MODEL 1
REMARK VINA RESULT:      -7.4      0.000      0.000
REMARK  6 active torsions:
REMARK  status: ('A' for Active; 'I' for Inactive)
REMARK    1  A    between atoms: O1_1  and  C1_2 
REMARK    2  A    between atoms: C1_2  and  O2_3 
REMARK    3  A    between atoms: O2_3  and  C2_4 
REMARK    4  A    between atoms: C6_10  and  S1_11 
REMARK    5  A    between atoms: S1_11  and  C7_12 
REMARK    6  A    between atoms: C9_14  and  C10_15 
ROOT
HETATM    1  C2  UNL     1      22.689  -0.761  54.137  1.00  0.00     0.089 A 
HETATM    2  C3  UNL     1      21.541  -1.416  54.181  1.00  0.00     0.070 A 
HETATM    3  C4  UNL     1      20.966  -0.396  53.315  1.00  0.00     0.076 A 
HETATM    4  N1  UNL     1      19.877   0.064  52.644  1.00  0.00    -0.241 NA
HETATM    5  C5  UNL     1      19.972   1.206  51.923  1.00  0.00     0.234 A 
HETATM    6  N2  UNL     1      21.129   1.910  51.849  1.00  0.00    -0.234 NA
HETATM    7  C6  UNL     1      22.226   1.485  52.500  1.00  0.00     0.110 A 
HETATM    8  C16 UNL     1      22.175   0.309  53.257  1.00  0.00     0.062 A 
ENDROOT
BRANCH   7   9
HETATM    9  S1  UNL     1      23.792   2.277  52.506  1.00  0.00    -0.104 SA
BRANCH   9  10
HETATM   10  C7  UNL     1      25.186   1.235  52.123  1.00  0.00     0.063 A 
HETATM   11  C8  UNL     1      26.398   1.846  51.531  1.00  0.00     0.027 A 
HETATM   12  C9  UNL     1      26.405   1.129  52.919  1.00  0.00     0.034 A 
BRANCH  12  13
HETATM   13  C10 UNL     1      27.223  -0.095  52.973  1.00  0.00    -0.053 A 
HETATM   14  C11 UNL     1      26.710  -1.312  52.550  1.00  0.00     0.007 A 
HETATM   15  C12 UNL     1      27.455  -2.482  52.588  1.00  0.00     0.001 A 
HETATM   16  C13 UNL     1      28.753  -2.465  53.055  1.00  0.00     0.000 A 
HETATM   17  C14 UNL     1      29.262  -1.260  53.474  1.00  0.00     0.001 A 
HETATM   18  C15 UNL     1      28.540  -0.079  53.447  1.00  0.00     0.007 A 
ENDBRANCH  12  13
ENDBRANCH   9  10
ENDBRANCH   7   9
BRANCH   1  19
HETATM   19  O2  UNL     1      23.974  -0.901  54.663  1.00  0.00    -0.325 OA
BRANCH  19  20
HETATM   20  C1  UNL     1      24.089  -1.486  55.947  1.00  0.00     0.341 C 
BRANCH  20  21
HETATM   21  O1  UNL     1      25.420  -1.266  56.337  1.00  0.00    -0.377 OA
HETATM   22  H1  UNL     1      26.056  -1.689  55.716  1.00  0.00     0.212 HD
ENDBRANCH  20  21
ENDBRANCH  19  20
ENDBRANCH   1  19
TORSDOF 6
ENDMDL
MODEL 2
REMARK VINA RESULT:      -7.2      3.624      5.636
REMARK  6 active torsions:
REMARK  status: ('A' for Active; 'I' for Inactive)
REMARK    1  A    between atoms: O1_1  and  C1_2 
REMARK    2  A    between atoms: C1_2  and  O2_3 
REMARK    3  A    between atoms: O2_3  and  C2_4 
REMARK    4  A    between atoms: C6_10  and  S1_11 
REMARK    5  A    between atoms: S1_11  and  C7_12 
REMARK    6  A    between atoms: C9_14  and  C10_15 
ROOT
HETATM    1  C2  UNL     1      26.096   0.916  52.725  1.00  0.00     0.089 A 
HETATM    2  C3  UNL     1      26.051  -0.341  53.137  1.00  0.00     0.070 A 
HETATM    3  C4  UNL     1      24.601  -0.227  53.215  1.00  0.00     0.076 A 
HETATM    4  N1  UNL     1      23.413  -0.823  53.503  1.00  0.00    -0.241 NA
HETATM    5  C5  UNL     1      22.265  -0.119  53.365  1.00  0.00     0.234 A 
HETATM    6  N2  UNL     1      22.263   1.171  52.946  1.00  0.00    -0.234 NA
HETATM    7  C6  UNL     1      23.419   1.792  52.653  1.00  0.00     0.110 A 
HETATM    8  C16 UNL     1      24.631   1.104  52.780  1.00  0.00     0.062 A 
ENDROOT
BRANCH   7   9
HETATM    9  S1  UNL     1      23.586   3.449  52.100  1.00  0.00    -0.104 SA
BRANCH   9  10
HETATM   10  C7  UNL     1      24.706   3.700  50.737  1.00  0.00     0.063 A 
HETATM   11  C8  UNL     1      24.223   3.466  49.357  1.00  0.00     0.027 A 
HETATM   12  C9  UNL     1      24.716   4.862  49.855  1.00  0.00     0.034 A 
BRANCH  12  13
HETATM   13  C10 UNL     1      25.936   5.354  49.190  1.00  0.00    -0.053 A 
HETATM   14  C11 UNL     1      27.065   4.554  49.095  1.00  0.00     0.007 A 
HETATM   15  C12 UNL     1      28.228   4.987  48.476  1.00  0.00     0.001 A 
HETATM   16  C13 UNL     1      28.294   6.251  47.925  1.00  0.00     0.000 A 
HETATM   17  C14 UNL     1      27.176   7.044  48.018  1.00  0.00     0.001 A 
HETATM   18  C15 UNL     1      26.004   6.635  48.631  1.00  0.00     0.007 A 
ENDBRANCH  12  13
ENDBRANCH   9  10
ENDBRANCH   7   9
BRANCH   1  19
HETATM   19  O2  UNL     1      27.070   1.840  52.347  1.00  0.00    -0.325 OA
BRANCH  19  20
HETATM   20  C1  UNL     1      28.223   1.937  53.162  1.00  0.00     0.341 C 
BRANCH  20  21
HETATM   21  O1  UNL     1      27.880   2.833  54.187  1.00  0.00    -0.377 OA
HETATM   22  H1  UNL     1      26.980   2.652  54.542  1.00  0.00     0.212 HD
ENDBRANCH  20  21
ENDBRANCH  19  20
ENDBRANCH   1  19
TORSDOF 6
ENDMDL
MODEL 3
REMARK VINA RESULT:      -7.1      1.779      2.656
REMARK  6 active torsions:
REMARK  status: ('A' for Active; 'I' for Inactive)
REMARK    1  A    between atoms: O1_1  and  C1_2 
REMARK    2  A    between atoms: C1_2  and  O2_3 
REMARK    3  A    between atoms: O2_3  and  C2_4 
REMARK    4  A    between atoms: C6_10  and  S1_11 
REMARK    5  A    between atoms: S1_11  and  C7_12 
REMARK    6  A    between atoms: C9_14  and  C10_15 
ROOT
HETATM    1  C2  UNL     1      21.311   0.457  52.473  1.00  0.00     0.089 A 
HETATM    2  C3  UNL     1      20.527   0.252  51.427  1.00  0.00     0.070 A 
HETATM    3  C4  UNL     1      21.430   1.074  50.634  1.00  0.00     0.076 A 
HETATM    4  N1  UNL     1      21.726   1.622  49.425  1.00  0.00    -0.241 NA
HETATM    5  C5  UNL     1      22.836   2.386  49.294  1.00  0.00     0.234 A 
HETATM    6  N2  UNL     1      23.668   2.623  50.338  1.00  0.00    -0.234 NA
HETATM    7  C6  UNL     1      23.407   2.097  51.548  1.00  0.00     0.110 A 
HETATM    8  C16 UNL     1      22.270   1.301  51.731  1.00  0.00     0.062 A 
ENDROOT
BRANCH   7   9
HETATM    9  S1  UNL     1      24.379   2.308  52.994  1.00  0.00    -0.104 SA
BRANCH   9  10
HETATM   10  C7  UNL     1      25.385   0.913  53.458  1.00  0.00     0.063 A 
HETATM   11  C8  UNL     1      24.804  -0.447  53.389  1.00  0.00     0.027 A 
HETATM   12  C9  UNL     1      26.033  -0.008  52.530  1.00  0.00     0.034 A 
BRANCH  12  13
HETATM   13  C10 UNL     1      27.286  -0.716  52.846  1.00  0.00    -0.053 A 
HETATM   14  C11 UNL     1      28.381  -0.030  53.351  1.00  0.00     0.007 A 
HETATM   15  C12 UNL     1      29.574  -0.668  53.659  1.00  0.00     0.001 A 
HETATM   16  C13 UNL     1      29.706  -2.028  53.468  1.00  0.00     0.000 A 
HETATM   17  C14 UNL     1      28.622  -2.707  52.968  1.00  0.00     0.001 A 
HETATM   18  C15 UNL     1      27.421  -2.095  52.652  1.00  0.00     0.007 A 
ENDBRANCH  12  13
ENDBRANCH   9  10
ENDBRANCH   7   9
BRANCH   1  19
HETATM   19  O2  UNL     1      21.348   0.088  53.818  1.00  0.00    -0.325 OA
BRANCH  19  20
HETATM   20  C1  UNL     1      21.222  -1.290  54.116  1.00  0.00     0.341 C 
BRANCH  20  21
HETATM   21  O1  UNL     1      21.964  -1.485  55.293  1.00  0.00    -0.377 OA
HETATM   22  H1  UNL     1      21.581  -2.201  55.850  1.00  0.00     0.212 HD
ENDBRANCH  20  21
ENDBRANCH  19  20
ENDBRANCH   1  19
TORSDOF 6
ENDMDL
MODEL 4
REMARK VINA RESULT:      -7.0      3.371      4.700
REMARK  6 active torsions:
REMARK  status: ('A' for Active; 'I' for Inactive)
REMARK    1  A    between atoms: O1_1  and  C1_2 
REMARK    2  A    between atoms: C1_2  and  O2_3 
REMARK    3  A    between atoms: O2_3  and  C2_4 
REMARK    4  A    between atoms: C6_10  and  S1_11 
REMARK    5  A    between atoms: S1_11  and  C7_12 
REMARK    6  A    between atoms: C9_14  and  C10_15 
ROOT
HETATM    1  C2  UNL     1      24.004   4.341  49.864  1.00  0.00     0.089 A 
HETATM    2  C3  UNL     1      23.373   4.201  48.709  1.00  0.00     0.070 A 
HETATM    3  C4  UNL     1      22.779   2.975  49.223  1.00  0.00     0.076 A 
HETATM    4  N1  UNL     1      21.957   1.914  49.003  1.00  0.00    -0.241 NA
HETATM    5  C5  UNL     1      21.783   0.993  49.980  1.00  0.00     0.234 A 
HETATM    6  N2  UNL     1      22.409   1.096  51.179  1.00  0.00    -0.234 NA
HETATM    7  C6  UNL     1      23.229   2.132  51.431  1.00  0.00     0.110 A 
HETATM    8  C16 UNL     1      23.438   3.109  50.451  1.00  0.00     0.062 A 
ENDROOT
BRANCH   7   9
HETATM    9  S1  UNL     1      24.109   2.409  52.924  1.00  0.00    -0.104 SA
BRANCH   9  10
HETATM   10  C7  UNL     1      25.160   1.075  53.460  1.00  0.00     0.063 A 
HETATM   11  C8  UNL     1      24.566  -0.261  53.688  1.00  0.00     0.027 A 
HETATM   12  C9  UNL     1      25.665   0.002  52.609  1.00  0.00     0.034 A 
BRANCH  12  13
HETATM   13  C10 UNL     1      26.945  -0.683  52.859  1.00  0.00    -0.053 A 
HETATM   14  C11 UNL     1      28.036   0.009  53.364  1.00  0.00     0.007 A 
HETATM   15  C12 UNL     1      29.254  -0.608  53.610  1.00  0.00     0.001 A 
HETATM   16  C13 UNL     1      29.416  -1.954  53.353  1.00  0.00     0.000 A 
HETATM   17  C14 UNL     1      28.337  -2.640  52.853  1.00  0.00     0.001 A 
HETATM   18  C15 UNL     1      27.111  -2.049  52.599  1.00  0.00     0.007 A 
ENDBRANCH  12  13
ENDBRANCH   9  10
ENDBRANCH   7   9
BRANCH   1  19
HETATM   19  O2  UNL     1      24.890   5.246  50.448  1.00  0.00    -0.325 OA
BRANCH  19  20
HETATM   20  C1  UNL     1      24.407   6.552  50.708  1.00  0.00     0.341 C 
BRANCH  20  21
HETATM   21  O1  UNL     1      24.569   6.739  52.091  1.00  0.00    -0.377 OA
HETATM   22  H1  UNL     1      24.190   5.991  52.607  1.00  0.00     0.212 HD
ENDBRANCH  20  21
ENDBRANCH  19  20
ENDBRANCH   1  19
TORSDOF 6
ENDMDL
MODEL 5
REMARK VINA RESULT:      -6.9      3.534      5.663
REMARK  6 active torsions:
REMARK  status: ('A' for Active; 'I' for Inactive)
REMARK    1  A    between atoms: O1_1  and  C1_2 
REMARK    2  A    between atoms: C1_2  and  O2_3 
REMARK    3  A    between atoms: O2_3  and  C2_4 
REMARK    4  A    between atoms: C6_10  and  S1_11 
REMARK    5  A    between atoms: S1_11  and  C7_12 
REMARK    6  A    between atoms: C9_14  and  C10_15 
ROOT
HETATM    1  C2  UNL     1      22.232  -0.638  53.697  1.00  0.00     0.089 A 
HETATM    2  C3  UNL     1      22.514  -1.381  54.755  1.00  0.00     0.070 A 
HETATM    3  C4  UNL     1      23.889  -0.906  54.678  1.00  0.00     0.076 A 
HETATM    4  N1  UNL     1      25.146  -0.932  55.194  1.00  0.00    -0.241 NA
HETATM    5  C5  UNL     1      26.119  -0.186  54.617  1.00  0.00     0.234 A 
HETATM    6  N2  UNL     1      25.875   0.590  53.533  1.00  0.00    -0.234 NA
HETATM    7  C6  UNL     1      24.643   0.640  52.995  1.00  0.00     0.110 A 
HETATM    8  C16 UNL     1      23.607  -0.113  53.558  1.00  0.00     0.062 A 
ENDROOT
BRANCH   7   9
HETATM    9  S1  UNL     1      24.166   1.590  51.599  1.00  0.00    -0.104 SA
BRANCH   9  10
HETATM   10  C7  UNL     1      25.255   2.934  51.170  1.00  0.00     0.063 A 
HETATM   11  C8  UNL     1      26.718   2.710  51.199  1.00  0.00     0.027 A 
HETATM   12  C9  UNL     1      25.947   3.086  49.894  1.00  0.00     0.034 A 
BRANCH  12  13
HETATM   13  C10 UNL     1      26.304   4.399  49.327  1.00  0.00    -0.053 A 
HETATM   14  C11 UNL     1      27.556   4.616  48.773  1.00  0.00     0.007 A 
HETATM   15  C12 UNL     1      27.922   5.840  48.232  1.00  0.00     0.001 A 
HETATM   16  C13 UNL     1      27.032   6.895  48.231  1.00  0.00     0.000 A 
HETATM   17  C14 UNL     1      25.792   6.680  48.780  1.00  0.00     0.001 A 
HETATM   18  C15 UNL     1      25.402   5.469  49.326  1.00  0.00     0.007 A 
ENDBRANCH  12  13
ENDBRANCH   9  10
ENDBRANCH   7   9
BRANCH   1  19
HETATM   19  O2  UNL     1      21.118  -0.355  52.907  1.00  0.00    -0.325 OA
BRANCH  19  20
HETATM   20  C1  UNL     1      19.948   0.090  53.569  1.00  0.00     0.341 C 
BRANCH  20  21
HETATM   21  O1  UNL     1      19.200  -1.071  53.821  1.00  0.00    -0.377 OA
HETATM   22  H1  UNL     1      19.362  -1.764  53.140  1.00  0.00     0.212 HD
ENDBRANCH  20  21
ENDBRANCH  19  20
ENDBRANCH   1  19
TORSDOF 6
ENDMDL
MODEL 6
REMARK VINA RESULT:      -6.9      3.542      6.587
REMARK  6 active torsions:
REMARK  status: ('A' for Active; 'I' for Inactive)
REMARK    1  A    between atoms: O1_1  and  C1_2 
REMARK    2  A    between atoms: C1_2  and  O2_3 
REMARK    3  A    between atoms: O2_3  and  C2_4 
REMARK    4  A    between atoms: C6_10  and  S1_11 
REMARK    5  A    between atoms: S1_11  and  C7_12 
REMARK    6  A    between atoms: C9_14  and  C10_15 
ROOT
HETATM    1  C2  UNL     1      29.034   0.211  54.297  1.00  0.00     0.089 A 
HETATM    2  C3  UNL     1      29.762  -0.855  54.007  1.00  0.00     0.070 A 
HETATM    3  C4  UNL     1      28.592  -1.433  53.359  1.00  0.00     0.076 A 
HETATM    4  N1  UNL     1      28.052  -2.480  52.681  1.00  0.00    -0.241 NA
HETATM    5  C5  UNL     1      26.753  -2.427  52.299  1.00  0.00     0.234 A 
HETATM    6  N2  UNL     1      25.971  -1.354  52.574  1.00  0.00    -0.234 NA
HETATM    7  C6  UNL     1      26.472  -0.301  53.243  1.00  0.00     0.110 A 
HETATM    8  C16 UNL     1      27.809  -0.311  53.658  1.00  0.00     0.062 A 
ENDROOT
BRANCH   7   9
HETATM    9  S1  UNL     1      25.595   1.156  53.676  1.00  0.00    -0.104 SA
BRANCH   9  10
HETATM   10  C7  UNL     1      24.181   1.537  52.662  1.00  0.00     0.063 A 
HETATM   11  C8  UNL     1      23.587   2.892  52.735  1.00  0.00     0.027 A 
HETATM   12  C9  UNL     1      24.212   2.312  51.425  1.00  0.00     0.034 A 
BRANCH  12  13
HETATM   13  C10 UNL     1      23.251   2.108  50.327  1.00  0.00    -0.053 A 
HETATM   14  C11 UNL     1      23.359   2.824  49.145  1.00  0.00     0.007 A 
HETATM   15  C12 UNL     1      22.470   2.654  48.093  1.00  0.00     0.001 A 
HETATM   16  C13 UNL     1      21.434   1.749  48.197  1.00  0.00     0.000 A 
HETATM   17  C14 UNL     1      21.326   1.039  49.368  1.00  0.00     0.001 A 
HETATM   18  C15 UNL     1      22.199   1.190  50.432  1.00  0.00     0.007 A 
ENDBRANCH  12  13
ENDBRANCH   9  10
ENDBRANCH   7   9
BRANCH   1  19
HETATM   19  O2  UNL     1      29.214   1.432  54.947  1.00  0.00    -0.325 OA
BRANCH  19  20
HETATM   20  C1  UNL     1      29.928   2.438  54.253  1.00  0.00     0.341 C 
BRANCH  20  21
HETATM   21  O1  UNL     1      29.086   2.835  53.202  1.00  0.00    -0.377 OA
HETATM   22  H1  UNL     1      29.586   2.970  52.365  1.00  0.00     0.212 HD
ENDBRANCH  20  21
ENDBRANCH  19  20
ENDBRANCH   1  19
TORSDOF 6
ENDMDL
MODEL 7
REMARK VINA RESULT:      -6.8      3.854      5.993
REMARK  6 active torsions:
REMARK  status: ('A' for Active; 'I' for Inactive)
REMARK    1  A    between atoms: O1_1  and  C1_2 
REMARK    2  A    between atoms: C1_2  and  O2_3 
REMARK    3  A    between atoms: O2_3  and  C2_4 
REMARK    4  A    between atoms: C6_10  and  S1_11 
REMARK    5  A    between atoms: S1_11  and  C7_12 
REMARK    6  A    between atoms: C9_14  and  C10_15 
ROOT
HETATM    1  C2  UNL     1      23.883  -0.294  53.901  1.00  0.00     0.089 A 
HETATM    2  C3  UNL     1      24.668  -0.967  54.726  1.00  0.00     0.070 A 
HETATM    3  C4  UNL     1      25.803  -0.221  54.198  1.00  0.00     0.076 A 
HETATM    4  N1  UNL     1      27.143   0.008  54.227  1.00  0.00    -0.241 NA
HETATM    5  C5  UNL     1      27.676   0.937  53.398  1.00  0.00     0.234 A 
HETATM    6  N2  UNL     1      26.910   1.650  52.536  1.00  0.00    -0.234 NA
HETATM    7  C6  UNL     1      25.582   1.449  52.481  1.00  0.00     0.110 A 
HETATM    8  C16 UNL     1      24.986   0.500  53.319  1.00  0.00     0.062 A 
ENDROOT
BRANCH   7   9
HETATM    9  S1  UNL     1      24.456   2.286  51.426  1.00  0.00    -0.104 SA
BRANCH   9  10
HETATM   10  C7  UNL     1      25.186   3.157  50.054  1.00  0.00     0.063 A 
HETATM   11  C8  UNL     1      24.303   3.697  48.995  1.00  0.00     0.027 A 
HETATM   12  C9  UNL     1      25.206   4.607  49.888  1.00  0.00     0.034 A 
BRANCH  12  13
HETATM   13  C10 UNL     1      26.273   5.316  49.159  1.00  0.00    -0.053 A 
HETATM   14  C11 UNL     1      26.077   6.606  48.689  1.00  0.00     0.007 A 
HETATM   15  C12 UNL     1      27.062   7.298  48.000  1.00  0.00     0.001 A 
HETATM   16  C13 UNL     1      28.287   6.711  47.760  1.00  0.00     0.000 A 
HETATM   17  C14 UNL     1      28.482   5.434  48.225  1.00  0.00     0.001 A 
HETATM   18  C15 UNL     1      27.516   4.720  48.915  1.00  0.00     0.007 A 
ENDBRANCH  12  13
ENDBRANCH   9  10
ENDBRANCH   7   9
BRANCH   1  19
HETATM   19  O2  UNL     1      22.525  -0.242  53.587  1.00  0.00    -0.325 OA
BRANCH  19  20
HETATM   20  C1  UNL     1      21.767  -1.421  53.785  1.00  0.00     0.341 C 
BRANCH  20  21
HETATM   21  O1  UNL     1      21.346  -1.370  55.124  1.00  0.00    -0.377 OA
HETATM   22  H1  UNL     1      21.521  -0.489  55.528  1.00  0.00     0.212 HD
ENDBRANCH  20  21
ENDBRANCH  19  20
ENDBRANCH   1  19
TORSDOF 6
ENDMDL
MODEL 8
REMARK VINA RESULT:      -6.8      3.142      4.562
REMARK  6 active torsions:
REMARK  status: ('A' for Active; 'I' for Inactive)
REMARK    1  A    between atoms: O1_1  and  C1_2 
REMARK    2  A    between atoms: C1_2  and  O2_3 
REMARK    3  A    between atoms: O2_3  and  C2_4 
REMARK    4  A    between atoms: C6_10  and  S1_11 
REMARK    5  A    between atoms: S1_11  and  C7_12 
REMARK    6  A    between atoms: C9_14  and  C10_15 
ROOT
HETATM    1  C2  UNL     1      23.810   3.964  50.366  1.00  0.00     0.089 A 
HETATM    2  C3  UNL     1      23.880   4.189  49.064  1.00  0.00     0.070 A 
HETATM    3  C4  UNL     1      23.051   3.010  48.852  1.00  0.00     0.076 A 
HETATM    4  N1  UNL     1      22.424   2.188  47.969  1.00  0.00    -0.241 NA
HETATM    5  C5  UNL     1      21.721   1.127  48.431  1.00  0.00     0.234 A 
HETATM    6  N2  UNL     1      21.622   0.858  49.756  1.00  0.00    -0.234 NA
HETATM    7  C6  UNL     1      22.229   1.650  50.658  1.00  0.00     0.110 A 
HETATM    8  C16 UNL     1      22.966   2.758  50.226  1.00  0.00     0.062 A 
ENDROOT
BRANCH   7   9
HETATM    9  S1  UNL     1      22.197   1.440  52.400  1.00  0.00    -0.104 SA
BRANCH   9  10
HETATM   10  C7  UNL     1      23.764   1.064  53.161  1.00  0.00     0.063 A 
HETATM   11  C8  UNL     1      24.048  -0.331  53.569  1.00  0.00     0.027 A 
HETATM   12  C9  UNL     1      24.895   0.425  52.495  1.00  0.00     0.034 A 
BRANCH  12  13
HETATM   13  C10 UNL     1      26.296   0.672  52.883  1.00  0.00    -0.053 A 
HETATM   14  C11 UNL     1      26.749   1.959  53.128  1.00  0.00     0.007 A 
HETATM   15  C12 UNL     1      28.061   2.223  53.494  1.00  0.00     0.001 A 
HETATM   16  C13 UNL     1      28.967   1.192  53.627  1.00  0.00     0.000 A 
HETATM   17  C14 UNL     1      28.519  -0.084  53.384  1.00  0.00     0.001 A 
HETATM   18  C15 UNL     1      27.216  -0.374  53.017  1.00  0.00     0.007 A 
ENDBRANCH  12  13
ENDBRANCH   9  10
ENDBRANCH   7   9
BRANCH   1  19
HETATM   19  O2  UNL     1      24.291   4.548  51.538  1.00  0.00    -0.325 OA
BRANCH  19  20
HETATM   20  C1  UNL     1      23.334   5.034  52.461  1.00  0.00     0.341 C 
BRANCH  20  21
HETATM   21  O1  UNL     1      24.077   5.484  53.564  1.00  0.00    -0.377 OA
HETATM   22  H1  UNL     1      24.441   6.387  53.414  1.00  0.00     0.212 HD
ENDBRANCH  20  21
ENDBRANCH  19  20
ENDBRANCH   1  19
TORSDOF 6
ENDMDL
MODEL 9
REMARK VINA RESULT:      -6.7      3.425      4.615
REMARK  6 active torsions:
REMARK  status: ('A' for Active; 'I' for Inactive)
REMARK    1  A    between atoms: O1_1  and  C1_2 
REMARK    2  A    between atoms: C1_2  and  O2_3 
REMARK    3  A    between atoms: O2_3  and  C2_4 
REMARK    4  A    between atoms: C6_10  and  S1_11 
REMARK    5  A    between atoms: S1_11  and  C7_12 
REMARK    6  A    between atoms: C9_14  and  C10_15 
ROOT
HETATM    1  C2  UNL     1      22.489   5.372  50.889  1.00  0.00     0.089 A 
HETATM    2  C3  UNL     1      21.289   5.716  51.329  1.00  0.00     0.070 A 
HETATM    3  C4  UNL     1      21.103   4.346  51.787  1.00  0.00     0.076 A 
HETATM    4  N1  UNL     1      20.296   3.435  52.394  1.00  0.00    -0.241 NA
HETATM    5  C5  UNL     1      20.730   2.162  52.549  1.00  0.00     0.234 A 
HETATM    6  N2  UNL     1      21.951   1.765  52.115  1.00  0.00    -0.234 NA
HETATM    7  C6  UNL     1      22.775   2.639  51.510  1.00  0.00     0.110 A 
HETATM    8  C16 UNL     1      22.370   3.966  51.328  1.00  0.00     0.062 A 
ENDROOT
BRANCH   7   9
HETATM    9  S1  UNL     1      24.380   2.285  50.894  1.00  0.00    -0.104 SA
BRANCH   9  10
HETATM   10  C7  UNL     1      25.565   1.726  52.101  1.00  0.00     0.063 A 
HETATM   11  C8  UNL     1      25.078   1.066  53.334  1.00  0.00     0.027 A 
HETATM   12  C9  UNL     1      25.989   0.342  52.290  1.00  0.00     0.034 A 
BRANCH  12  13
HETATM   13  C10 UNL     1      27.324  -0.025  52.793  1.00  0.00    -0.053 A 
HETATM   14  C11 UNL     1      27.716  -1.354  52.865  1.00  0.00     0.007 A 
HETATM   15  C12 UNL     1      28.966  -1.731  53.333  1.00  0.00     0.001 A 
HETATM   16  C13 UNL     1      29.871  -0.776  53.748  1.00  0.00     0.000 A 
HETATM   17  C14 UNL     1      29.484   0.540  53.678  1.00  0.00     0.001 A 
HETATM   18  C15 UNL     1      28.243   0.943  53.215  1.00  0.00     0.007 A 
ENDBRANCH  12  13
ENDBRANCH   9  10
ENDBRANCH   7   9
BRANCH   1  19
HETATM   19  O2  UNL     1      23.562   5.986  50.244  1.00  0.00    -0.325 OA
BRANCH  19  20
HETATM   20  C1  UNL     1      23.994   7.236  50.749  1.00  0.00     0.341 C 
BRANCH  20  21
HETATM   21  O1  UNL     1      24.521   6.962  52.021  1.00  0.00    -0.377 OA
HETATM   22  H1  UNL     1      25.197   6.246  51.989  1.00  0.00     0.212 HD
ENDBRANCH  20  21
ENDBRANCH  19  20
ENDBRANCH   1  19
TORSDOF 6
ENDMDL
