MODEL 1
REMARK VINA RESULT:      -9.3      0.000      0.000
REMARK  2 active torsions:
REMARK  status: ('A' for Active; 'I' for Inactive)
REMARK    1  A    between atoms: C7_9  and  C12_16 
REMARK    2  A    between atoms: C12_16  and  C13_17 
ROOT
HETATM    1  C1  UNL     1      21.152   1.464  49.720  1.00  0.00    -0.078 C 
HETATM    2  C2  UNL     1      20.275   0.967  50.180  1.00  0.00    -0.093 C 
HETATM    3  C3  UNL     1      19.183   0.376  50.733  1.00  0.00     0.115 C 
HETATM    4  C4  UNL     1      18.978   0.870  51.992  1.00  0.00     0.171 C 
HETATM    5  O1  UNL     1      20.105   1.606  51.699  1.00  0.00    -0.357 OA
HETATM    6  C5  UNL     1      20.624   2.581  52.547  1.00  0.00     0.344 C 
HETATM    7  O2  UNL     1      22.056   2.642  52.466  1.00  0.00    -0.333 OA
HETATM    8  C6  UNL     1      22.801   1.559  52.738  1.00  0.00     0.045 A 
HETATM    9  C7  UNL     1      23.575   0.562  52.994  1.00  0.00     0.073 A 
HETATM   10  C8  UNL     1      25.068   0.581  53.085  1.00  0.00     0.067 A 
HETATM   11  C9  UNL     1      26.350   1.285  53.065  1.00  0.00     0.114 A 
HETATM   12  N1  UNL     1      27.551   0.773  53.258  1.00  0.00    -0.228 NA
HETATM   13  C10 UNL     1      27.837  -0.484  53.512  1.00  0.00     0.229 A 
HETATM   14  N2  UNL     1      26.739  -1.256  53.566  1.00  0.00    -0.268 NA
HETATM   15  C11 UNL     1      25.525  -0.762  53.376  1.00  0.00     0.106 A 
HETATM   16  C12 UNL     1      24.435  -0.092  53.171  1.00  0.00     0.060 A 
HETATM   17  C13 UNL     1      24.172   1.406  52.845  1.00  0.00     0.048 A 
HETATM   18  C14 UNL     1      24.839   2.856  52.483  1.00  0.00     0.122 C 
HETATM   19  C15 UNL     1      24.622   2.993  51.065  1.00  0.00    -0.001 C 
HETATM   20  C16 UNL     1      24.481   3.155  49.728  1.00  0.00    -0.001 C 
HETATM   21  C17 UNL     1      23.337   2.699  48.931  1.00  0.00     0.009 C 
HETATM   22  C18 UNL     1      22.230   2.100  49.163  1.00  0.00     0.064 C 
HETATM   23  N3  UNL     1      26.244   2.666  52.888  1.00  0.00    -0.368 N 
HETATM   24  H13 UNL     1      27.168   3.102  53.091  1.00  0.00     0.161 HD
ENDROOT
TORSDOF 2
ENDMDL
MODEL 2
REMARK VINA RESULT:      -8.9      1.636      3.521
REMARK  2 active torsions:
REMARK  status: ('A' for Active; 'I' for Inactive)
REMARK    1  A    between atoms: C7_9  and  C12_16 
REMARK    2  A    between atoms: C12_16  and  C13_17 
ROOT
HETATM    1  C1  UNL     1      20.625   1.720  53.395  1.00  0.00    -0.078 C 
HETATM    2  C2  UNL     1      20.424   2.556  52.695  1.00  0.00    -0.093 C 
HETATM    3  C3  UNL     1      20.154   3.570  51.831  1.00  0.00     0.115 C 
HETATM    4  C4  UNL     1      20.647   3.265  50.593  1.00  0.00     0.171 C 
HETATM    5  O1  UNL     1      21.062   2.117  51.231  1.00  0.00    -0.357 OA
HETATM    6  C5  UNL     1      21.679   1.056  50.573  1.00  0.00     0.344 C 
HETATM    7  O2  UNL     1      22.646   0.406  51.412  1.00  0.00    -0.333 OA
HETATM    8  C6  UNL     1      23.674   1.097  51.929  1.00  0.00     0.045 A 
HETATM    9  C7  UNL     1      24.687   1.697  52.450  1.00  0.00     0.073 A 
HETATM   10  C8  UNL     1      25.818   1.069  53.201  1.00  0.00     0.067 A 
HETATM   11  C9  UNL     1      26.525  -0.101  53.722  1.00  0.00     0.114 A 
HETATM   12  N1  UNL     1      27.665  -0.122  54.387  1.00  0.00    -0.228 NA
HETATM   13  C10 UNL     1      28.401   0.916  54.714  1.00  0.00     0.229 A 
HETATM   14  N2  UNL     1      27.869   2.073  54.290  1.00  0.00    -0.268 NA
HETATM   15  C11 UNL     1      26.726   2.115  53.620  1.00  0.00     0.106 A 
HETATM   16  C12 UNL     1      25.613   1.946  52.980  1.00  0.00     0.060 A 
HETATM   17  C13 UNL     1      24.777   0.676  52.651  1.00  0.00     0.048 A 
HETATM   18  C14 UNL     1      24.605  -0.935  52.879  1.00  0.00     0.122 C 
HETATM   19  C15 UNL     1      23.523  -1.038  53.824  1.00  0.00    -0.001 C 
HETATM   20  C16 UNL     1      22.537  -1.191  54.741  1.00  0.00    -0.001 C 
HETATM   21  C17 UNL     1      21.346  -0.343  54.860  1.00  0.00     0.009 C 
HETATM   22  C18 UNL     1      20.868   0.671  54.240  1.00  0.00     0.064 C 
HETATM   23  N3  UNL     1      25.930  -1.323  53.397  1.00  0.00    -0.368 N 
HETATM   24  H13 UNL     1      26.596  -2.091  53.624  1.00  0.00     0.161 HD
ENDROOT
TORSDOF 2
ENDMDL
MODEL 3
REMARK VINA RESULT:      -8.8      3.497      6.263
REMARK  2 active torsions:
REMARK  status: ('A' for Active; 'I' for Inactive)
REMARK    1  A    between atoms: C7_9  and  C12_16 
REMARK    2  A    between atoms: C12_16  and  C13_17 
ROOT
HETATM    1  C1  UNL     1      26.713  -1.450  53.116  1.00  0.00    -0.078 C 
HETATM    2  C2  UNL     1      27.814  -1.570  53.068  1.00  0.00    -0.093 C 
HETATM    3  C3  UNL     1      29.163  -1.733  53.030  1.00  0.00     0.115 C 
HETATM    4  C4  UNL     1      29.770  -0.709  53.704  1.00  0.00     0.171 C 
HETATM    5  O1  UNL     1      28.472  -0.290  53.888  1.00  0.00    -0.357 OA
HETATM    6  C5  UNL     1      28.126   0.814  54.663  1.00  0.00     0.344 C 
HETATM    7  O2  UNL     1      26.974   1.489  54.136  1.00  0.00    -0.333 OA
HETATM    8  C6  UNL     1      26.980   1.972  52.883  1.00  0.00     0.045 A 
HETATM    9  C7  UNL     1      26.921   2.466  51.696  1.00  0.00     0.073 A 
HETATM   10  C8  UNL     1      25.829   3.313  51.125  1.00  0.00     0.067 A 
HETATM   11  C9  UNL     1      24.565   4.040  51.249  1.00  0.00     0.114 A 
HETATM   12  N1  UNL     1      23.957   4.759  50.325  1.00  0.00    -0.228 NA
HETATM   13  C10 UNL     1      24.372   4.969  49.096  1.00  0.00     0.229 A 
HETATM   14  N2  UNL     1      25.540   4.358  48.839  1.00  0.00    -0.268 NA
HETATM   15  C11 UNL     1      26.166   3.633  49.754  1.00  0.00     0.106 A 
HETATM   16  C12 UNL     1      26.621   2.980  50.777  1.00  0.00     0.060 A 
HETATM   17  C13 UNL     1      26.055   2.749  52.207  1.00  0.00     0.048 A 
HETATM   18  C14 UNL     1      24.786   2.959  53.218  1.00  0.00     0.122 C 
HETATM   19  C15 UNL     1      24.164   1.660  53.269  1.00  0.00    -0.001 C 
HETATM   20  C16 UNL     1      23.517   0.471  53.321  1.00  0.00    -0.001 C 
HETATM   21  C17 UNL     1      24.157  -0.849  53.275  1.00  0.00     0.009 C 
HETATM   22  C18 UNL     1      25.355  -1.293  53.200  1.00  0.00     0.064 C 
HETATM   23  N3  UNL     1      24.004   4.002  52.528  1.00  0.00    -0.368 N 
HETATM   24  H13 UNL     1      23.234   4.702  52.577  1.00  0.00     0.161 HD
ENDROOT
TORSDOF 2
ENDMDL
MODEL 4
REMARK VINA RESULT:      -8.4      3.164      6.101
REMARK  2 active torsions:
REMARK  status: ('A' for Active; 'I' for Inactive)
REMARK    1  A    between atoms: C7_9  and  C12_16 
REMARK    2  A    between atoms: C12_16  and  C13_17 
ROOT
HETATM    1  C1  UNL     1      24.732  -0.557  53.249  1.00  0.00    -0.078 C 
HETATM    2  C2  UNL     1      25.798  -0.401  52.984  1.00  0.00    -0.093 C 
HETATM    3  C3  UNL     1      27.110  -0.214  52.685  1.00  0.00     0.115 C 
HETATM    4  C4  UNL     1      27.424   1.113  52.792  1.00  0.00     0.171 C 
HETATM    5  O1  UNL     1      26.092   1.224  53.123  1.00  0.00    -0.357 OA
HETATM    6  C5  UNL     1      25.498   2.419  53.521  1.00  0.00     0.344 C 
HETATM    7  O2  UNL     1      24.134   2.502  53.083  1.00  0.00    -0.333 OA
HETATM    8  C6  UNL     1      23.831   2.419  51.778  1.00  0.00     0.045 A 
HETATM    9  C7  UNL     1      23.470   2.356  50.543  1.00  0.00     0.073 A 
HETATM   10  C8  UNL     1      22.100   2.588  49.991  1.00  0.00     0.067 A 
HETATM   11  C9  UNL     1      20.692   2.953  50.152  1.00  0.00     0.114 A 
HETATM   12  N1  UNL     1      19.775   3.053  49.208  1.00  0.00    -0.228 NA
HETATM   13  C10 UNL     1      19.947   2.845  47.922  1.00  0.00     0.229 A 
HETATM   14  N2  UNL     1      21.211   2.503  47.624  1.00  0.00    -0.268 NA
HETATM   15  C11 UNL     1      22.146   2.398  48.557  1.00  0.00     0.106 A 
HETATM   16  C12 UNL     1      22.909   2.357  49.603  1.00  0.00     0.060 A 
HETATM   17  C13 UNL     1      22.628   2.590  51.115  1.00  0.00     0.048 A 
HETATM   18  C14 UNL     1      21.491   2.860  52.260  1.00  0.00     0.122 C 
HETATM   19  C15 UNL     1      21.342   1.582  52.909  1.00  0.00    -0.001 C 
HETATM   20  C16 UNL     1      21.132   0.395  53.527  1.00  0.00    -0.001 C 
HETATM   21  C17 UNL     1      22.159  -0.618  53.794  1.00  0.00     0.009 C 
HETATM   22  C18 UNL     1      23.419  -0.732  53.594  1.00  0.00     0.064 C 
HETATM   23  N3  UNL     1      20.333   3.296  51.458  1.00  0.00    -0.368 N 
HETATM   24  H13 UNL     1      19.387   3.733  51.442  1.00  0.00     0.161 HD
ENDROOT
TORSDOF 2
ENDMDL
MODEL 5
REMARK VINA RESULT:      -8.1      4.199      5.624
REMARK  2 active torsions:
REMARK  status: ('A' for Active; 'I' for Inactive)
REMARK    1  A    between atoms: C7_9  and  C12_16 
REMARK    2  A    between atoms: C12_16  and  C13_17 
ROOT
HETATM    1  C1  UNL     1      22.081   3.491  47.475  1.00  0.00    -0.078 C 
HETATM    2  C2  UNL     1      22.003   2.523  48.009  1.00  0.00    -0.093 C 
HETATM    3  C3  UNL     1      21.881   1.339  48.667  1.00  0.00     0.115 C 
HETATM    4  C4  UNL     1      22.015   1.543  50.013  1.00  0.00     0.171 C 
HETATM    5  O1  UNL     1      22.190   2.852  49.622  1.00  0.00    -0.357 OA
HETATM    6  C5  UNL     1      22.332   3.906  50.521  1.00  0.00     0.344 C 
HETATM    7  O2  UNL     1      23.208   4.921  50.009  1.00  0.00    -0.333 OA
HETATM    8  C6  UNL     1      24.473   4.623  49.672  1.00  0.00     0.045 A 
HETATM    9  C7  UNL     1      25.698   4.408  49.338  1.00  0.00     0.073 A 
HETATM   10  C8  UNL     1      26.718   5.430  48.947  1.00  0.00     0.067 A 
HETATM   11  C9  UNL     1      27.138   6.816  48.741  1.00  0.00     0.114 A 
HETATM   12  N1  UNL     1      28.328   7.249  48.367  1.00  0.00    -0.228 NA
HETATM   13  C10 UNL     1      29.383   6.511  48.106  1.00  0.00     0.229 A 
HETATM   14  N2  UNL     1      29.142   5.199  48.262  1.00  0.00    -0.268 NA
HETATM   15  C11 UNL     1      27.955   4.745  48.637  1.00  0.00     0.106 A 
HETATM   16  C12 UNL     1      26.740   4.505  49.015  1.00  0.00     0.060 A 
HETATM   17  C13 UNL     1      25.522   5.436  49.280  1.00  0.00     0.048 A 
HETATM   18  C14 UNL     1      24.934   6.961  49.201  1.00  0.00     0.122 C 
HETATM   19  C15 UNL     1      24.071   6.940  48.047  1.00  0.00    -0.001 C 
HETATM   20  C16 UNL     1      23.280   6.988  46.948  1.00  0.00    -0.001 C 
HETATM   21  C17 UNL     1      22.435   5.892  46.459  1.00  0.00     0.009 C 
HETATM   22  C18 UNL     1      22.164   4.697  46.832  1.00  0.00     0.064 C 
HETATM   23  N3  UNL     1      26.161   7.765  49.053  1.00  0.00    -0.368 N 
HETATM   24  H13 UNL     1      26.604   8.707  49.075  1.00  0.00     0.161 HD
ENDROOT
TORSDOF 2
ENDMDL
MODEL 6
REMARK VINA RESULT:      -8.0      7.504     10.350
REMARK  2 active torsions:
REMARK  status: ('A' for Active; 'I' for Inactive)
REMARK    1  A    between atoms: C7_9  and  C12_16 
REMARK    2  A    between atoms: C12_16  and  C13_17 
ROOT
HETATM    1  C1  UNL     1      32.313   7.755  49.169  1.00  0.00    -0.078 C 
HETATM    2  C2  UNL     1      32.996   6.937  48.864  1.00  0.00    -0.093 C 
HETATM    3  C3  UNL     1      33.850   5.952  48.480  1.00  0.00     0.115 C 
HETATM    4  C4  UNL     1      33.576   5.577  47.194  1.00  0.00     0.171 C 
HETATM    5  O1  UNL     1      32.591   6.533  47.309  1.00  0.00    -0.357 OA
HETATM    6  C5  UNL     1      31.762   6.908  46.255  1.00  0.00     0.344 C 
HETATM    7  O2  UNL     1      30.448   7.259  46.716  1.00  0.00    -0.333 OA
HETATM    8  C6  UNL     1      29.707   6.373  47.400  1.00  0.00     0.045 A 
HETATM    9  C7  UNL     1      28.940   5.571  48.053  1.00  0.00     0.073 A 
HETATM   10  C8  UNL     1      27.511   5.798  48.432  1.00  0.00     0.067 A 
HETATM   11  C9  UNL     1      26.286   6.598  48.414  1.00  0.00     0.114 A 
HETATM   12  N1  UNL     1      25.119   6.294  48.950  1.00  0.00    -0.228 NA
HETATM   13  C10 UNL     1      24.822   5.198  49.612  1.00  0.00     0.229 A 
HETATM   14  N2  UNL     1      25.865   4.358  49.704  1.00  0.00    -0.268 NA
HETATM   15  C11 UNL     1      27.045   4.644  49.172  1.00  0.00     0.106 A 
HETATM   16  C12 UNL     1      28.104   5.101  48.582  1.00  0.00     0.060 A 
HETATM   17  C13 UNL     1      28.394   6.434  47.835  1.00  0.00     0.048 A 
HETATM   18  C14 UNL     1      27.830   7.915  47.427  1.00  0.00     0.122 C 
HETATM   19  C15 UNL     1      28.524   8.808  48.319  1.00  0.00    -0.001 C 
HETATM   20  C16 UNL     1      29.118   9.688  49.161  1.00  0.00    -0.001 C 
HETATM   21  C17 UNL     1      30.490   9.584  49.671  1.00  0.00     0.009 C 
HETATM   22  C18 UNL     1      31.472   8.776  49.524  1.00  0.00     0.064 C 
HETATM   23  N3  UNL     1      26.383   7.780  47.675  1.00  0.00    -0.368 N 
HETATM   24  H13 UNL     1      25.427   8.173  47.545  1.00  0.00     0.161 HD
ENDROOT
TORSDOF 2
ENDMDL
MODEL 7
REMARK VINA RESULT:      -8.0      1.952      3.807
REMARK  2 active torsions:
REMARK  status: ('A' for Active; 'I' for Inactive)
REMARK    1  A    between atoms: C7_9  and  C12_16 
REMARK    2  A    between atoms: C12_16  and  C13_17 
ROOT
HETATM    1  C1  UNL     1      21.597   4.600  51.211  1.00  0.00    -0.078 C 
HETATM    2  C2  UNL     1      22.183   5.263  50.544  1.00  0.00    -0.093 C 
HETATM    3  C3  UNL     1      22.881   6.079  49.710  1.00  0.00     0.115 C 
HETATM    4  C4  UNL     1      23.502   5.333  48.747  1.00  0.00     0.171 C 
HETATM    5  O1  UNL     1      22.912   4.287  49.421  1.00  0.00    -0.357 OA
HETATM    6  C5  UNL     1      22.979   2.964  48.992  1.00  0.00     0.344 C 
HETATM    7  O2  UNL     1      23.012   2.051  50.098  1.00  0.00    -0.333 OA
HETATM    8  C6  UNL     1      23.986   2.132  51.020  1.00  0.00     0.045 A 
HETATM    9  C7  UNL     1      24.893   2.148  51.934  1.00  0.00     0.073 A 
HETATM   10  C8  UNL     1      25.091   1.145  53.025  1.00  0.00     0.067 A 
HETATM   11  C9  UNL     1      24.743  -0.102  53.705  1.00  0.00     0.114 A 
HETATM   12  N1  UNL     1      25.331  -0.634  54.761  1.00  0.00    -0.228 NA
HETATM   13  C10 UNL     1      26.359  -0.142  55.416  1.00  0.00     0.229 A 
HETATM   14  N2  UNL     1      26.793   1.015  54.892  1.00  0.00    -0.268 NA
HETATM   15  C11 UNL     1      26.217   1.564  53.832  1.00  0.00     0.106 A 
HETATM   16  C12 UNL     1      25.529   1.930  52.798  1.00  0.00     0.060 A 
HETATM   17  C13 UNL     1      24.293   1.307  52.088  1.00  0.00     0.048 A 
HETATM   18  C14 UNL     1      23.149   0.138  52.126  1.00  0.00     0.122 C 
HETATM   19  C15 UNL     1      21.963   0.828  52.563  1.00  0.00    -0.001 C 
HETATM   20  C16 UNL     1      20.828   1.419  53.010  1.00  0.00    -0.001 C 
HETATM   21  C17 UNL     1      20.407   2.792  52.707  1.00  0.00     0.009 C 
HETATM   22  C18 UNL     1      20.866   3.768  52.016  1.00  0.00     0.064 C 
HETATM   23  N3  UNL     1      23.711  -0.820  53.097  1.00  0.00    -0.368 N 
HETATM   24  H13 UNL     1      23.672  -1.773  53.517  1.00  0.00     0.161 HD
ENDROOT
TORSDOF 2
ENDMDL
MODEL 8
REMARK VINA RESULT:      -8.0      2.622      4.881
REMARK  2 active torsions:
REMARK  status: ('A' for Active; 'I' for Inactive)
REMARK    1  A    between atoms: C7_9  and  C12_16 
REMARK    2  A    between atoms: C12_16  and  C13_17 
ROOT
HETATM    1  C1  UNL     1      23.264   0.632  53.350  1.00  0.00    -0.078 C 
HETATM    2  C2  UNL     1      22.168   0.576  53.506  1.00  0.00    -0.093 C 
HETATM    3  C3  UNL     1      20.826   0.482  53.697  1.00  0.00     0.115 C 
HETATM    4  C4  UNL     1      20.184   0.528  52.490  1.00  0.00     0.171 C 
HETATM    5  O1  UNL     1      21.467   0.654  52.007  1.00  0.00    -0.357 OA
HETATM    6  C5  UNL     1      21.775   0.687  50.650  1.00  0.00     0.344 C 
HETATM    7  O2  UNL     1      22.902   1.535  50.384  1.00  0.00    -0.333 OA
HETATM    8  C6  UNL     1      22.878   2.831  50.733  1.00  0.00     0.045 A 
HETATM    9  C7  UNL     1      22.918   4.083  51.033  1.00  0.00     0.073 A 
HETATM   10  C8  UNL     1      23.980   5.066  50.656  1.00  0.00     0.067 A 
HETATM   11  C9  UNL     1      25.217   5.422  49.962  1.00  0.00     0.114 A 
HETATM   12  N1  UNL     1      25.799   6.605  49.910  1.00  0.00    -0.228 NA
HETATM   13  C10 UNL     1      25.376   7.712  50.476  1.00  0.00     0.229 A 
HETATM   14  N2  UNL     1      24.229   7.534  51.153  1.00  0.00    -0.268 NA
HETATM   15  C11 UNL     1      23.630   6.355  51.216  1.00  0.00     0.106 A 
HETATM   16  C12 UNL     1      23.199   5.134  51.152  1.00  0.00     0.060 A 
HETATM   17  C13 UNL     1      23.774   3.855  50.480  1.00  0.00     0.048 A 
HETATM   18  C14 UNL     1      25.037   3.190  49.679  1.00  0.00     0.122 C 
HETATM   19  C15 UNL     1      25.703   2.397  50.680  1.00  0.00    -0.001 C 
HETATM   20  C16 UNL     1      26.391   1.667  51.591  1.00  0.00    -0.001 C 
HETATM   21  C17 UNL     1      25.799   0.912  52.701  1.00  0.00     0.009 C 
HETATM   22  C18 UNL     1      24.616   0.686  53.137  1.00  0.00     0.064 C 
HETATM   23  N3  UNL     1      25.781   4.378  49.223  1.00  0.00    -0.368 N 
HETATM   24  H13 UNL     1      26.526   4.768  48.607  1.00  0.00     0.161 HD
ENDROOT
TORSDOF 2
ENDMDL
MODEL 9
REMARK VINA RESULT:      -7.8      2.646      4.237
REMARK  2 active torsions:
REMARK  status: ('A' for Active; 'I' for Inactive)
REMARK    1  A    between atoms: C7_9  and  C12_16 
REMARK    2  A    between atoms: C12_16  and  C13_17 
ROOT
HETATM    1  C1  UNL     1      24.522   4.903  48.959  1.00  0.00    -0.078 C 
HETATM    2  C2  UNL     1      23.678   5.607  48.813  1.00  0.00    -0.093 C 
HETATM    3  C3  UNL     1      22.662   6.491  48.630  1.00  0.00     0.115 C 
HETATM    4  C4  UNL     1      22.330   7.067  49.825  1.00  0.00     0.171 C 
HETATM    5  O1  UNL     1      23.328   6.247  50.301  1.00  0.00    -0.357 OA
HETATM    6  C5  UNL     1      23.767   6.262  51.622  1.00  0.00     0.344 C 
HETATM    7  O2  UNL     1      24.170   4.955  52.059  1.00  0.00    -0.333 OA
HETATM    8  C6  UNL     1      23.306   3.928  52.026  1.00  0.00     0.045 A 
HETATM    9  C7  UNL     1      22.528   2.902  52.028  1.00  0.00     0.073 A 
HETATM   10  C8  UNL     1      22.815   1.554  52.606  1.00  0.00     0.067 A 
HETATM   11  C9  UNL     1      23.673   0.625  53.343  1.00  0.00     0.114 A 
HETATM   12  N1  UNL     1      23.414  -0.629  53.661  1.00  0.00    -0.228 NA
HETATM   13  C10 UNL     1      22.320  -1.299  53.379  1.00  0.00     0.229 A 
HETATM   14  N2  UNL     1      21.428  -0.560  52.700  1.00  0.00    -0.268 NA
HETATM   15  C11 UNL     1      21.669   0.701  52.371  1.00  0.00     0.106 A 
HETATM   16  C12 UNL     1      22.087   1.908  52.154  1.00  0.00     0.060 A 
HETATM   17  C13 UNL     1      23.421   2.632  52.496  1.00  0.00     0.048 A 
HETATM   18  C14 UNL     1      24.936   2.479  53.096  1.00  0.00     0.122 C 
HETATM   19  C15 UNL     1      25.775   2.490  51.924  1.00  0.00    -0.001 C 
HETATM   20  C16 UNL     1      26.606   2.453  50.856  1.00  0.00    -0.001 C 
HETATM   21  C17 UNL     1      26.425   3.207  49.610  1.00  0.00     0.009 C 
HETATM   22  C18 UNL     1      25.573   4.048  49.154  1.00  0.00     0.064 C 
HETATM   23  N3  UNL     1      24.865   1.189  53.806  1.00  0.00    -0.368 N 
HETATM   24  H13 UNL     1      25.307   0.530  54.482  1.00  0.00     0.161 HD
ENDROOT
TORSDOF 2
ENDMDL
