MODEL 1
REMARK VINA RESULT:      -9.1      0.000      0.000
REMARK  5 active torsions:
REMARK  status: ('A' for Active; 'I' for Inactive)
REMARK    1  A    between atoms: C5_6  and  C6_7 
REMARK    2  A    between atoms: C6_7  and  N1_8 
REMARK    3  A    between atoms: N1_8  and  C7_9 
REMARK       I    between atoms: N1_8  and  C14_17 
REMARK    4  A    between atoms: C7_9  and  C8_10 
REMARK       I    between atoms: C14_17  and  N2_19 
REMARK    5  A    between atoms: N2_19  and  C15_20 
ROOT
HETATM    1  N1  UNL     1      25.423   2.076  51.664  1.00  0.00    -0.324 N 
HETATM    2  C14 UNL     1      24.138   1.459  51.894  1.00  0.00     0.323 C 
HETATM    3  O2  UNL     1      23.512   1.319  50.805  1.00  0.00    -0.247 OA
HETATM    4  N2  UNL     1      23.676   1.076  53.182  1.00  0.00    -0.309 N 
HETATM    5  H14 UNL     1      24.281   1.240  54.008  1.00  0.00     0.170 HD
ENDROOT
BRANCH   1   6
HETATM    6  C6  UNL     1      25.758   2.409  50.293  1.00  0.00     0.193 C 
BRANCH   6   7
HETATM    7  C5  UNL     1      25.699   3.899  50.078  1.00  0.00     0.071 A 
HETATM    8  O1  UNL     1      24.697   4.688  50.627  1.00  0.00    -0.349 OA
HETATM    9  C4  UNL     1      24.883   6.044  50.266  1.00  0.00     0.214 A 
HETATM   10  C3  UNL     1      26.114   5.976  49.440  1.00  0.00    -0.023 A 
HETATM   11  C2  UNL     1      27.156   6.302  48.676  1.00  0.00    -0.070 A 
HETATM   12  C21 UNL     1      26.578   4.582  49.362  1.00  0.00    -0.015 A 
HETATM   13  C1  UNL     1      27.625   7.612  48.135  1.00  0.00     0.044 C 
HETATM   14  C22 UNL     1      27.718   4.952  48.521  1.00  0.00     0.076 A 
ENDBRANCH   6   7
ENDBRANCH   1   6
BRANCH   1  15
HETATM   15  C7  UNL     1      26.419   2.405  52.631  1.00  0.00     0.166 C 
BRANCH  15  16
HETATM   16  C8  UNL     1      27.376   1.347  52.960  1.00  0.00    -0.040 A 
HETATM   17  C9  UNL     1      27.188   0.010  52.784  1.00  0.00     0.012 A 
HETATM   18  C10 UNL     1      28.081  -0.994  53.088  1.00  0.00     0.043 A 
HETATM   19  C11 UNL     1      29.303  -0.612  53.631  1.00  0.00     0.116 A 
HETATM   20  F1  UNL     1      30.240  -1.534  53.960  1.00  0.00    -0.206 F 
HETATM   21  C12 UNL     1      29.567   0.734  53.839  1.00  0.00     0.043 A 
HETATM   22  C13 UNL     1      28.621   1.676  53.508  1.00  0.00     0.012 A 
ENDBRANCH  15  16
ENDBRANCH   1  15
BRANCH   4  23
HETATM   23  C15 UNL     1      22.402   0.470  53.371  1.00  0.00     0.036 A 
HETATM   24  C16 UNL     1      22.473  -0.801  53.941  1.00  0.00     0.029 A 
HETATM   25  C17 UNL     1      21.306  -1.511  54.184  1.00  0.00     0.002 A 
HETATM   26  C18 UNL     1      20.071  -0.976  53.867  1.00  0.00     0.000 A 
HETATM   27  C19 UNL     1      20.022   0.292  53.300  1.00  0.00     0.002 A 
HETATM   28  C20 UNL     1      21.184   1.025  53.047  1.00  0.00     0.029 A 
ENDBRANCH   4  23
TORSDOF 5
ENDMDL
MODEL 2
REMARK VINA RESULT:      -9.0      2.661      6.784
REMARK  5 active torsions:
REMARK  status: ('A' for Active; 'I' for Inactive)
REMARK    1  A    between atoms: C5_6  and  C6_7 
REMARK    2  A    between atoms: C6_7  and  N1_8 
REMARK    3  A    between atoms: N1_8  and  C7_9 
REMARK       I    between atoms: N1_8  and  C14_17 
REMARK    4  A    between atoms: C7_9  and  C8_10 
REMARK       I    between atoms: C14_17  and  N2_19 
REMARK    5  A    between atoms: N2_19  and  C15_20 
ROOT
HETATM    1  N1  UNL     1      24.465   3.417  51.528  1.00  0.00    -0.324 N 
HETATM    2  C14 UNL     1      25.385   2.590  52.273  1.00  0.00     0.323 C 
HETATM    3  O2  UNL     1      25.171   2.698  53.515  1.00  0.00    -0.247 OA
HETATM    4  N2  UNL     1      26.380   1.782  51.660  1.00  0.00    -0.309 N 
HETATM    5  H14 UNL     1      26.460   1.774  50.626  1.00  0.00     0.170 HD
ENDROOT
BRANCH   1   6
HETATM    6  C6  UNL     1      23.502   4.186  52.292  1.00  0.00     0.193 C 
BRANCH   6   7
HETATM    7  C5  UNL     1      22.116   3.617  52.127  1.00  0.00     0.071 A 
HETATM    8  O1  UNL     1      21.052   4.380  51.664  1.00  0.00    -0.349 OA
HETATM    9  C4  UNL     1      19.872   3.600  51.608  1.00  0.00     0.214 A 
HETATM   10  C3  UNL     1      20.354   2.281  52.089  1.00  0.00    -0.023 A 
HETATM   11  C2  UNL     1      20.409   1.001  52.459  1.00  0.00    -0.070 A 
HETATM   12  C21 UNL     1      21.789   2.364  52.402  1.00  0.00    -0.015 A 
HETATM   13  C1  UNL     1      19.369  -0.067  52.512  1.00  0.00     0.044 C 
HETATM   14  C22 UNL     1      21.837   0.959  52.807  1.00  0.00     0.076 A 
ENDBRANCH   6   7
ENDBRANCH   1   6
BRANCH   1  15
HETATM   15  C7  UNL     1      24.385   3.576  50.113  1.00  0.00     0.166 C 
BRANCH  15  16
HETATM   16  C8  UNL     1      25.392   4.444  49.501  1.00  0.00    -0.040 A 
HETATM   17  C9  UNL     1      26.688   4.113  49.242  1.00  0.00     0.012 A 
HETATM   18  C10 UNL     1      27.644   4.921  48.667  1.00  0.00     0.043 A 
HETATM   19  C11 UNL     1      27.256   6.208  48.310  1.00  0.00     0.116 A 
HETATM   20  F1  UNL     1      28.133   7.069  47.738  1.00  0.00    -0.206 F 
HETATM   21  C12 UNL     1      25.951   6.617  48.543  1.00  0.00     0.043 A 
HETATM   22  C13 UNL     1      25.055   5.749  49.123  1.00  0.00     0.012 A 
ENDBRANCH  15  16
ENDBRANCH   1  15
BRANCH   4  23
HETATM   23  C15 UNL     1      27.270   0.980  52.428  1.00  0.00     0.036 A 
HETATM   24  C16 UNL     1      26.976  -0.383  52.371  1.00  0.00     0.029 A 
HETATM   25  C17 UNL     1      27.763  -1.286  53.072  1.00  0.00     0.002 A 
HETATM   26  C18 UNL     1      28.836  -0.853  53.828  1.00  0.00     0.000 A 
HETATM   27  C19 UNL     1      29.113   0.509  53.872  1.00  0.00     0.002 A 
HETATM   28  C20 UNL     1      28.334   1.436  53.174  1.00  0.00     0.029 A 
ENDBRANCH   4  23
TORSDOF 5
ENDMDL
MODEL 3
REMARK VINA RESULT:      -9.0      2.294      5.470
REMARK  5 active torsions:
REMARK  status: ('A' for Active; 'I' for Inactive)
REMARK    1  A    between atoms: C5_6  and  C6_7 
REMARK    2  A    between atoms: C6_7  and  N1_8 
REMARK    3  A    between atoms: N1_8  and  C7_9 
REMARK       I    between atoms: N1_8  and  C14_17 
REMARK    4  A    between atoms: C7_9  and  C8_10 
REMARK       I    between atoms: C14_17  and  N2_19 
REMARK    5  A    between atoms: N2_19  and  C15_20 
ROOT
HETATM    1  N1  UNL     1      24.592   2.057  51.793  1.00  0.00    -0.324 N 
HETATM    2  C14 UNL     1      25.873   1.412  51.957  1.00  0.00     0.323 C 
HETATM    3  O2  UNL     1      26.467   1.318  50.845  1.00  0.00    -0.247 OA
HETATM    4  N2  UNL     1      26.363   0.958  53.212  1.00  0.00    -0.309 N 
HETATM    5  H14 UNL     1      25.783   1.092  54.061  1.00  0.00     0.170 HD
ENDROOT
BRANCH   1   6
HETATM    6  C6  UNL     1      24.228   2.468  50.451  1.00  0.00     0.193 C 
BRANCH   6   7
HETATM    7  C5  UNL     1      24.619   3.904  50.210  1.00  0.00     0.071 A 
HETATM    8  O1  UNL     1      23.821   4.967  50.614  1.00  0.00    -0.349 OA
HETATM    9  C4  UNL     1      24.424   6.198  50.262  1.00  0.00     0.214 A 
HETATM   10  C3  UNL     1      25.676   5.749  49.603  1.00  0.00    -0.023 A 
HETATM   11  C2  UNL     1      26.853   5.734  48.976  1.00  0.00    -0.070 A 
HETATM   12  C21 UNL     1      25.734   4.279  49.604  1.00  0.00    -0.015 A 
HETATM   13  C1  UNL     1      27.734   6.833  48.483  1.00  0.00     0.044 C 
HETATM   14  C22 UNL     1      27.025   4.275  48.914  1.00  0.00     0.076 A 
ENDBRANCH   6   7
ENDBRANCH   1   6
BRANCH   1  15
HETATM   15  C7  UNL     1      23.623   2.344  52.801  1.00  0.00     0.166 C 
BRANCH  15  16
HETATM   16  C8  UNL     1      22.644   1.290  53.075  1.00  0.00    -0.040 A 
HETATM   17  C9  UNL     1      22.899   0.091  53.668  1.00  0.00     0.012 A 
HETATM   18  C10 UNL     1      21.987  -0.907  53.932  1.00  0.00     0.043 A 
HETATM   19  C11 UNL     1      20.667  -0.675  53.560  1.00  0.00     0.116 A 
HETATM   20  F1  UNL     1      19.705  -1.602  53.782  1.00  0.00    -0.206 F 
HETATM   21  C12 UNL     1      20.331   0.526  52.950  1.00  0.00     0.043 A 
HETATM   22  C13 UNL     1      21.302   1.472  52.721  1.00  0.00     0.012 A 
ENDBRANCH  15  16
ENDBRANCH   1  15
BRANCH   4  23
HETATM   23  C15 UNL     1      27.631   0.325  53.335  1.00  0.00     0.036 A 
HETATM   24  C16 UNL     1      27.586  -1.053  53.122  1.00  0.00     0.029 A 
HETATM   25  C17 UNL     1      28.752  -1.801  53.210  1.00  0.00     0.002 A 
HETATM   26  C18 UNL     1      29.960  -1.198  53.507  1.00  0.00     0.000 A 
HETATM   27  C19 UNL     1      29.984   0.176  53.714  1.00  0.00     0.002 A 
HETATM   28  C20 UNL     1      28.823   0.949  53.631  1.00  0.00     0.029 A 
ENDBRANCH   4  23
TORSDOF 5
ENDMDL
MODEL 4
REMARK VINA RESULT:      -8.8      1.359      6.464
REMARK  5 active torsions:
REMARK  status: ('A' for Active; 'I' for Inactive)
REMARK    1  A    between atoms: C5_6  and  C6_7 
REMARK    2  A    between atoms: C6_7  and  N1_8 
REMARK    3  A    between atoms: N1_8  and  C7_9 
REMARK       I    between atoms: N1_8  and  C14_17 
REMARK    4  A    between atoms: C7_9  and  C8_10 
REMARK       I    between atoms: C14_17  and  N2_19 
REMARK    5  A    between atoms: N2_19  and  C15_20 
ROOT
HETATM    1  N1  UNL     1      25.108   1.436  52.255  1.00  0.00    -0.324 N 
HETATM    2  C14 UNL     1      25.172   2.686  51.535  1.00  0.00     0.323 C 
HETATM    3  O2  UNL     1      24.532   3.585  52.151  1.00  0.00    -0.247 OA
HETATM    4  N2  UNL     1      25.868   2.844  50.306  1.00  0.00    -0.309 N 
HETATM    5  H14 UNL     1      26.361   2.030  49.894  1.00  0.00     0.170 HD
ENDROOT
BRANCH   1   6
HETATM    6  C6  UNL     1      24.362   1.428  53.498  1.00  0.00     0.193 C 
BRANCH   6   7
HETATM    7  C5  UNL     1      23.144   0.548  53.383  1.00  0.00     0.071 A 
HETATM    8  O1  UNL     1      23.047  -0.673  54.038  1.00  0.00    -0.349 OA
HETATM    9  C4  UNL     1      21.804  -1.288  53.755  1.00  0.00     0.214 A 
HETATM   10  C3  UNL     1      21.167  -0.293  52.857  1.00  0.00    -0.023 A 
HETATM   11  C2  UNL     1      20.305   0.335  52.057  1.00  0.00    -0.070 A 
HETATM   12  C21 UNL     1      22.075   0.849  52.663  1.00  0.00    -0.015 A 
HETATM   13  C1  UNL     1      18.941  -0.033  51.576  1.00  0.00     0.044 C 
HETATM   14  C22 UNL     1      21.121   1.527  51.784  1.00  0.00     0.076 A 
ENDBRANCH   6   7
ENDBRANCH   1   6
BRANCH   1  15
HETATM   15  C7  UNL     1      25.694   0.187  51.890  1.00  0.00     0.166 C 
BRANCH  15  16
HETATM   16  C8  UNL     1      26.991  -0.120  52.496  1.00  0.00    -0.040 A 
HETATM   17  C9  UNL     1      27.890   0.786  52.973  1.00  0.00     0.012 A 
HETATM   18  C10 UNL     1      29.112   0.509  53.546  1.00  0.00     0.043 A 
HETATM   19  C11 UNL     1      29.473  -0.830  53.654  1.00  0.00     0.116 A 
HETATM   20  F1  UNL     1      30.658  -1.192  54.204  1.00  0.00    -0.206 F 
HETATM   21  C12 UNL     1      28.608  -1.810  53.190  1.00  0.00     0.043 A 
HETATM   22  C13 UNL     1      27.404  -1.451  52.630  1.00  0.00     0.012 A 
ENDBRANCH  15  16
ENDBRANCH   1  15
BRANCH   4  23
HETATM   23  C15 UNL     1      25.909   4.092  49.625  1.00  0.00     0.036 A 
HETATM   24  C16 UNL     1      27.190   4.451  49.203  1.00  0.00     0.029 A 
HETATM   25  C17 UNL     1      27.380   5.645  48.523  1.00  0.00     0.002 A 
HETATM   26  C18 UNL     1      26.316   6.487  48.257  1.00  0.00     0.000 A 
HETATM   27  C19 UNL     1      25.048   6.112  48.685  1.00  0.00     0.002 A 
HETATM   28  C20 UNL     1      24.833   4.913  49.372  1.00  0.00     0.029 A 
ENDBRANCH   4  23
TORSDOF 5
ENDMDL
MODEL 5
REMARK VINA RESULT:      -8.7      1.272      6.942
REMARK  5 active torsions:
REMARK  status: ('A' for Active; 'I' for Inactive)
REMARK    1  A    between atoms: C5_6  and  C6_7 
REMARK    2  A    between atoms: C6_7  and  N1_8 
REMARK    3  A    between atoms: N1_8  and  C7_9 
REMARK       I    between atoms: N1_8  and  C14_17 
REMARK    4  A    between atoms: C7_9  and  C8_10 
REMARK       I    between atoms: C14_17  and  N2_19 
REMARK    5  A    between atoms: N2_19  and  C15_20 
ROOT
HETATM    1  N1  UNL     1      25.157   3.022  51.218  1.00  0.00    -0.324 N 
HETATM    2  C14 UNL     1      25.498   4.221  50.490  1.00  0.00     0.323 C 
HETATM    3  O2  UNL     1      24.862   5.213  50.948  1.00  0.00    -0.247 OA
HETATM    4  N2  UNL     1      26.424   4.243  49.412  1.00  0.00    -0.309 N 
HETATM    5  H14 UNL     1      26.888   3.361  49.124  1.00  0.00     0.170 HD
ENDROOT
BRANCH   1   6
HETATM    6  C6  UNL     1      24.197   3.155  52.296  1.00  0.00     0.193 C 
BRANCH   6   7
HETATM    7  C5  UNL     1      23.145   2.079  52.208  1.00  0.00     0.071 A 
HETATM    8  O1  UNL     1      22.135   2.105  51.254  1.00  0.00    -0.349 OA
HETATM    9  C4  UNL     1      21.290   0.980  51.400  1.00  0.00     0.214 A 
HETATM   10  C3  UNL     1      21.911   0.275  52.549  1.00  0.00    -0.023 A 
HETATM   11  C2  UNL     1      22.174  -0.608  53.513  1.00  0.00    -0.070 A 
HETATM   12  C21 UNL     1      23.086   1.031  53.013  1.00  0.00    -0.015 A 
HETATM   13  C1  UNL     1      21.494  -1.872  53.918  1.00  0.00     0.044 C 
HETATM   14  C22 UNL     1      23.363   0.055  54.069  1.00  0.00     0.076 A 
ENDBRANCH   6   7
ENDBRANCH   1   6
BRANCH   1  15
HETATM   15  C7  UNL     1      25.653   1.701  51.006  1.00  0.00     0.166 C 
BRANCH  15  16
HETATM   16  C8  UNL     1      26.626   1.211  51.984  1.00  0.00    -0.040 A 
HETATM   17  C9  UNL     1      27.569   1.958  52.623  1.00  0.00     0.012 A 
HETATM   18  C10 UNL     1      28.489   1.508  53.545  1.00  0.00     0.043 A 
HETATM   19  C11 UNL     1      28.459   0.154  53.863  1.00  0.00     0.116 A 
HETATM   20  F1  UNL     1      29.328  -0.372  54.759  1.00  0.00    -0.206 F 
HETATM   21  C12 UNL     1      27.525  -0.670  53.251  1.00  0.00     0.043 A 
HETATM   22  C13 UNL     1      26.640  -0.143  52.340  1.00  0.00     0.012 A 
ENDBRANCH  15  16
ENDBRANCH   1  15
BRANCH   4  23
HETATM   23  C15 UNL     1      26.735   5.445  48.717  1.00  0.00     0.036 A 
HETATM   24  C16 UNL     1      28.101   5.611  48.483  1.00  0.00     0.029 A 
HETATM   25  C17 UNL     1      28.550   6.740  47.812  1.00  0.00     0.002 A 
HETATM   26  C18 UNL     1      27.662   7.704  47.373  1.00  0.00     0.000 A 
HETATM   27  C19 UNL     1      26.306   7.520  47.615  1.00  0.00     0.002 A 
HETATM   28  C20 UNL     1      25.831   6.391  48.288  1.00  0.00     0.029 A 
ENDBRANCH   4  23
TORSDOF 5
ENDMDL
MODEL 6
REMARK VINA RESULT:      -8.5      1.943      2.833
REMARK  5 active torsions:
REMARK  status: ('A' for Active; 'I' for Inactive)
REMARK    1  A    between atoms: C5_6  and  C6_7 
REMARK    2  A    between atoms: C6_7  and  N1_8 
REMARK    3  A    between atoms: N1_8  and  C7_9 
REMARK       I    between atoms: N1_8  and  C14_17 
REMARK    4  A    between atoms: C7_9  and  C8_10 
REMARK       I    between atoms: C14_17  and  N2_19 
REMARK    5  A    between atoms: N2_19  and  C15_20 
ROOT
HETATM    1  N1  UNL     1      22.716   1.638  51.536  1.00  0.00    -0.324 N 
HETATM    2  C14 UNL     1      21.446   0.953  51.472  1.00  0.00     0.323 C 
HETATM    3  O2  UNL     1      21.240   0.509  50.306  1.00  0.00    -0.247 OA
HETATM    4  N2  UNL     1      20.574   0.819  52.586  1.00  0.00    -0.309 N 
HETATM    5  H14 UNL     1      20.852   1.226  53.499  1.00  0.00     0.170 HD
ENDROOT
BRANCH   1   6
HETATM    6  C6  UNL     1      23.498   1.692  50.317  1.00  0.00     0.193 C 
BRANCH   6   7
HETATM    7  C5  UNL     1      23.789   3.121  49.934  1.00  0.00     0.071 A 
HETATM    8  O1  UNL     1      22.790   4.081  49.843  1.00  0.00    -0.349 OA
HETATM    9  C4  UNL     1      23.339   5.330  49.466  1.00  0.00     0.214 A 
HETATM   10  C3  UNL     1      24.782   5.006  49.344  1.00  0.00    -0.023 A 
HETATM   11  C2  UNL     1      26.097   5.098  49.142  1.00  0.00    -0.070 A 
HETATM   12  C21 UNL     1      24.996   3.584  49.655  1.00  0.00    -0.015 A 
HETATM   13  C1  UNL     1      26.968   6.243  48.750  1.00  0.00     0.044 C 
HETATM   14  C22 UNL     1      26.438   3.696  49.429  1.00  0.00     0.076 A 
ENDBRANCH   6   7
ENDBRANCH   1   6
BRANCH   1  15
HETATM   15  C7  UNL     1      23.306   2.278  52.666  1.00  0.00     0.166 C 
BRANCH  15  16
HETATM   16  C8  UNL     1      24.530   1.669  53.189  1.00  0.00    -0.040 A 
HETATM   17  C9  UNL     1      25.721   2.300  53.387  1.00  0.00     0.012 A 
HETATM   18  C10 UNL     1      26.878   1.738  53.878  1.00  0.00     0.043 A 
HETATM   19  C11 UNL     1      26.836   0.388  54.211  1.00  0.00     0.116 A 
HETATM   20  F1  UNL     1      27.929  -0.245  54.702  1.00  0.00    -0.206 F 
HETATM   21  C12 UNL     1      25.657  -0.322  54.038  1.00  0.00     0.043 A 
HETATM   22  C13 UNL     1      24.543   0.314  53.540  1.00  0.00     0.012 A 
ENDBRANCH  15  16
ENDBRANCH   1  15
BRANCH   4  23
HETATM   23  C15 UNL     1      19.329   0.138  52.485  1.00  0.00     0.036 A 
HETATM   24  C16 UNL     1      19.192  -0.903  53.404  1.00  0.00     0.029 A 
HETATM   25  C17 UNL     1      18.026  -1.656  53.420  1.00  0.00     0.002 A 
HETATM   26  C18 UNL     1      16.997  -1.388  52.536  1.00  0.00     0.000 A 
HETATM   27  C19 UNL     1      17.153  -0.347  51.629  1.00  0.00     0.002 A 
HETATM   28  C20 UNL     1      18.318   0.424  51.595  1.00  0.00     0.029 A 
ENDBRANCH   4  23
TORSDOF 5
ENDMDL
MODEL 7
REMARK VINA RESULT:      -8.3      2.737      5.903
REMARK  5 active torsions:
REMARK  status: ('A' for Active; 'I' for Inactive)
REMARK    1  A    between atoms: C5_6  and  C6_7 
REMARK    2  A    between atoms: C6_7  and  N1_8 
REMARK    3  A    between atoms: N1_8  and  C7_9 
REMARK       I    between atoms: N1_8  and  C14_17 
REMARK    4  A    between atoms: C7_9  and  C8_10 
REMARK       I    between atoms: C14_17  and  N2_19 
REMARK    5  A    between atoms: N2_19  and  C15_20 
ROOT
HETATM    1  N1  UNL     1      24.083   2.070  52.319  1.00  0.00    -0.324 N 
HETATM    2  C14 UNL     1      25.384   1.640  52.776  1.00  0.00     0.323 C 
HETATM    3  O2  UNL     1      25.850   2.460  53.618  1.00  0.00    -0.247 OA
HETATM    4  N2  UNL     1      26.019   0.455  52.319  1.00  0.00    -0.309 N 
HETATM    5  H14 UNL     1      25.536  -0.144  51.623  1.00  0.00     0.170 HD
ENDROOT
BRANCH   1   6
HETATM    6  C6  UNL     1      23.561   3.301  52.878  1.00  0.00     0.193 C 
BRANCH   6   7
HETATM    7  C5  UNL     1      23.424   4.355  51.810  1.00  0.00     0.071 A 
HETATM    8  O1  UNL     1      22.281   5.132  51.677  1.00  0.00    -0.349 OA
HETATM    9  C4  UNL     1      22.421   6.036  50.597  1.00  0.00     0.214 A 
HETATM   10  C3  UNL     1      23.782   5.712  50.100  1.00  0.00    -0.023 A 
HETATM   11  C2  UNL     1      24.915   5.706  49.398  1.00  0.00    -0.070 A 
HETATM   12  C21 UNL     1      24.361   4.634  50.917  1.00  0.00    -0.015 A 
HETATM   13  C1  UNL     1      25.368   6.517  48.231  1.00  0.00     0.044 C 
HETATM   14  C22 UNL     1      25.600   4.635  50.137  1.00  0.00     0.076 A 
ENDBRANCH   6   7
ENDBRANCH   1   6
BRANCH   1  15
HETATM   15  C7  UNL     1      23.235   1.425  51.371  1.00  0.00     0.166 C 
BRANCH  15  16
HETATM   16  C8  UNL     1      22.026   0.796  51.907  1.00  0.00    -0.040 A 
HETATM   17  C9  UNL     1      20.778   0.864  51.367  1.00  0.00     0.012 A 
HETATM   18  C10 UNL     1      19.634   0.276  51.861  1.00  0.00     0.043 A 
HETATM   19  C11 UNL     1      19.757  -0.466  53.031  1.00  0.00     0.116 A 
HETATM   20  F1  UNL     1      18.683  -1.078  53.586  1.00  0.00    -0.206 F 
HETATM   21  C12 UNL     1      20.998  -0.581  53.639  1.00  0.00     0.043 A 
HETATM   22  C13 UNL     1      22.093   0.038  53.082  1.00  0.00     0.012 A 
ENDBRANCH  15  16
ENDBRANCH   1  15
BRANCH   4  23
HETATM   23  C15 UNL     1      27.303   0.063  52.792  1.00  0.00     0.036 A 
HETATM   24  C16 UNL     1      27.496  -1.319  52.791  1.00  0.00     0.029 A 
HETATM   25  C17 UNL     1      28.704  -1.844  53.227  1.00  0.00     0.002 A 
HETATM   26  C18 UNL     1      29.721  -1.016  53.663  1.00  0.00     0.000 A 
HETATM   27  C19 UNL     1      29.510   0.358  53.656  1.00  0.00     0.002 A 
HETATM   28  C20 UNL     1      28.301   0.909  53.222  1.00  0.00     0.029 A 
ENDBRANCH   4  23
TORSDOF 5
ENDMDL
MODEL 8
REMARK VINA RESULT:      -8.3      2.850      6.741
REMARK  5 active torsions:
REMARK  status: ('A' for Active; 'I' for Inactive)
REMARK    1  A    between atoms: C5_6  and  C6_7 
REMARK    2  A    between atoms: C6_7  and  N1_8 
REMARK    3  A    between atoms: N1_8  and  C7_9 
REMARK       I    between atoms: N1_8  and  C14_17 
REMARK    4  A    between atoms: C7_9  and  C8_10 
REMARK       I    between atoms: C14_17  and  N2_19 
REMARK    5  A    between atoms: N2_19  and  C15_20 
ROOT
HETATM    1  N1  UNL     1      24.476   2.431  52.047  1.00  0.00    -0.324 N 
HETATM    2  C14 UNL     1      24.131   3.652  51.356  1.00  0.00     0.323 C 
HETATM    3  O2  UNL     1      24.683   3.689  50.219  1.00  0.00    -0.247 OA
HETATM    4  N2  UNL     1      23.284   4.649  51.911  1.00  0.00    -0.309 N 
HETATM    5  H14 UNL     1      22.886   4.507  52.858  1.00  0.00     0.170 HD
ENDROOT
BRANCH   1   6
HETATM    6  C6  UNL     1      25.349   1.505  51.353  1.00  0.00     0.193 C 
BRANCH   6   7
HETATM    7  C5  UNL     1      26.663   1.367  52.078  1.00  0.00     0.071 A 
HETATM    8  O1  UNL     1      27.439   2.466  52.423  1.00  0.00    -0.349 OA
HETATM    9  C4  UNL     1      28.615   2.050  53.092  1.00  0.00     0.214 A 
HETATM   10  C3  UNL     1      28.452   0.574  53.109  1.00  0.00    -0.023 A 
HETATM   11  C2  UNL     1      28.652  -0.728  53.312  1.00  0.00    -0.070 A 
HETATM   12  C21 UNL     1      27.190   0.210  52.447  1.00  0.00    -0.015 A 
HETATM   13  C1  UNL     1      29.761  -1.475  53.972  1.00  0.00     0.044 C 
HETATM   14  C22 UNL     1      27.421  -1.218  52.673  1.00  0.00     0.076 A 
ENDBRANCH   6   7
ENDBRANCH   1   6
BRANCH   1  15
HETATM   15  C7  UNL     1      24.061   2.018  53.348  1.00  0.00     0.166 C 
BRANCH  15  16
HETATM   16  C8  UNL     1      22.937   1.081  53.400  1.00  0.00    -0.040 A 
HETATM   17  C9  UNL     1      21.657   1.340  53.014  1.00  0.00     0.012 A 
HETATM   18  C10 UNL     1      20.592   0.468  53.058  1.00  0.00     0.043 A 
HETATM   19  C11 UNL     1      20.839  -0.811  53.545  1.00  0.00     0.116 A 
HETATM   20  F1  UNL     1      19.849  -1.733  53.623  1.00  0.00    -0.206 F 
HETATM   21  C12 UNL     1      22.120  -1.149  53.958  1.00  0.00     0.043 A 
HETATM   22  C13 UNL     1      23.131  -0.219  53.882  1.00  0.00     0.012 A 
ENDBRANCH  15  16
ENDBRANCH   1  15
BRANCH   4  23
HETATM   23  C15 UNL     1      22.966   5.840  51.200  1.00  0.00     0.036 A 
HETATM   24  C16 UNL     1      24.002   6.775  51.193  1.00  0.00     0.029 A 
HETATM   25  C17 UNL     1      23.831   7.985  50.535  1.00  0.00     0.002 A 
HETATM   26  C18 UNL     1      22.647   8.278  49.886  1.00  0.00     0.000 A 
HETATM   27  C19 UNL     1      21.627   7.334  49.904  1.00  0.00     0.002 A 
HETATM   28  C20 UNL     1      21.777   6.109  50.560  1.00  0.00     0.029 A 
ENDBRANCH   4  23
TORSDOF 5
ENDMDL
MODEL 9
REMARK VINA RESULT:      -8.2      2.087      7.052
REMARK  5 active torsions:
REMARK  status: ('A' for Active; 'I' for Inactive)
REMARK    1  A    between atoms: C5_6  and  C6_7 
REMARK    2  A    between atoms: C6_7  and  N1_8 
REMARK    3  A    between atoms: N1_8  and  C7_9 
REMARK       I    between atoms: N1_8  and  C14_17 
REMARK    4  A    between atoms: C7_9  and  C8_10 
REMARK       I    between atoms: C14_17  and  N2_19 
REMARK    5  A    between atoms: N2_19  and  C15_20 
ROOT
HETATM    1  N1  UNL     1      24.080   3.349  50.762  1.00  0.00    -0.324 N 
HETATM    2  C14 UNL     1      24.627   4.437  49.987  1.00  0.00     0.323 C 
HETATM    3  O2  UNL     1      24.155   4.426  48.814  1.00  0.00    -0.247 OA
HETATM    4  N2  UNL     1      25.565   5.370  50.506  1.00  0.00    -0.309 N 
HETATM    5  H14 UNL     1      25.880   5.279  51.490  1.00  0.00     0.170 HD
ENDROOT
BRANCH   1   6
HETATM    6  C6  UNL     1      23.130   2.478  50.098  1.00  0.00     0.193 C 
BRANCH   6   7
HETATM    7  C5  UNL     1      21.873   2.336  50.918  1.00  0.00     0.071 A 
HETATM    8  O1  UNL     1      21.103   3.431  51.289  1.00  0.00    -0.349 OA
HETATM    9  C4  UNL     1      19.987   3.013  52.052  1.00  0.00     0.214 A 
HETATM   10  C3  UNL     1      20.176   1.541  52.092  1.00  0.00    -0.023 A 
HETATM   11  C2  UNL     1      20.013   0.241  52.337  1.00  0.00    -0.070 A 
HETATM   12  C21 UNL     1      21.395   1.181  51.351  1.00  0.00    -0.015 A 
HETATM   13  C1  UNL     1      18.964  -0.508  53.087  1.00  0.00     0.044 C 
HETATM   14  C22 UNL     1      21.207  -0.244  51.629  1.00  0.00     0.076 A 
ENDBRANCH   6   7
ENDBRANCH   1   6
BRANCH   1  15
HETATM   15  C7  UNL     1      24.362   3.017  52.121  1.00  0.00     0.166 C 
BRANCH  15  16
HETATM   16  C8  UNL     1      24.980   1.710  52.352  1.00  0.00    -0.040 A 
HETATM   17  C9  UNL     1      24.486   0.716  53.142  1.00  0.00     0.012 A 
HETATM   18  C10 UNL     1      25.058  -0.517  53.366  1.00  0.00     0.043 A 
HETATM   19  C11 UNL     1      26.263  -0.784  52.725  1.00  0.00     0.116 A 
HETATM   20  F1  UNL     1      26.894  -1.972  52.890  1.00  0.00    -0.206 F 
HETATM   21  C12 UNL     1      26.828   0.181  51.904  1.00  0.00     0.043 A 
HETATM   22  C13 UNL     1      26.193   1.389  51.731  1.00  0.00     0.012 A 
ENDBRANCH  15  16
ENDBRANCH   1  15
BRANCH   4  23
HETATM   23  C15 UNL     1      26.083   6.431  49.711  1.00  0.00     0.036 A 
HETATM   24  C16 UNL     1      26.991   6.004  48.742  1.00  0.00     0.029 A 
HETATM   25  C17 UNL     1      27.576   6.932  47.893  1.00  0.00     0.002 A 
HETATM   26  C18 UNL     1      27.273   8.277  47.994  1.00  0.00     0.000 A 
HETATM   27  C19 UNL     1      26.365   8.682  48.966  1.00  0.00     0.002 A 
HETATM   28  C20 UNL     1      25.764   7.765  49.832  1.00  0.00     0.029 A 
ENDBRANCH   4  23
TORSDOF 5
ENDMDL
