MODEL 1
REMARK VINA RESULT:      -7.7      0.000      0.000
REMARK  4 active torsions:
REMARK  status: ('A' for Active; 'I' for Inactive)
REMARK    1  A    between atoms: C1_2  and  C2_3 
REMARK       I    between atoms: C1_2  and  N1_11 
REMARK    2  A    between atoms: C2_3  and  C3_4 
REMARK    3  A    between atoms: N1_11  and  S1_12 
REMARK    4  A    between atoms: S1_12  and  C9_15 
ROOT
HETATM    1  O1  UNL     1      24.054   3.314  53.014  1.00  0.00    -0.272 OA
HETATM    2  C1  UNL     1      23.748   2.166  52.581  1.00  0.00     0.235 C 
HETATM    3  N1  UNL     1      23.163   2.107  51.282  1.00  0.00    -0.250 N 
HETATM    4  H7  UNL     1      22.886   1.178  50.867  1.00  0.00     0.181 HD
ENDROOT
BRANCH   3   5
HETATM    5  S1  UNL     1      22.947   3.633  50.459  1.00  0.00     0.265 S 
HETATM    6  O2  UNL     1      21.987   3.482  49.316  1.00  0.00    -0.200 OA
HETATM    7  O3  UNL     1      22.406   4.682  51.394  1.00  0.00    -0.200 OA
BRANCH   5   8
HETATM    8  C9  UNL     1      24.530   4.100  49.875  1.00  0.00     0.080 A 
HETATM    9  C10 UNL     1      24.637   5.423  49.454  1.00  0.00     0.027 A 
HETATM   10  C11 UNL     1      25.854   5.854  48.983  1.00  0.00     0.020 A 
HETATM   11  C12 UNL     1      26.933   4.996  48.935  1.00  0.00     0.011 A 
HETATM   12 BR2  UNL     1      28.595   5.677  48.266  1.00  0.00    -0.051 Br
HETATM   13  C13 UNL     1      26.850   3.669  49.352  1.00  0.00     0.020 A 
HETATM   14  C14 UNL     1      25.623   3.261  49.817  1.00  0.00     0.027 A 
ENDBRANCH   5   8
ENDBRANCH   3   5
BRANCH   2  15
HETATM   15  C2  UNL     1      23.936   0.883  53.286  1.00  0.00     0.142 C 
BRANCH  15  16
HETATM   16  C3  UNL     1      25.333   0.500  53.475  1.00  0.00    -0.049 A 
HETATM   17  C4  UNL     1      25.968  -0.076  52.377  1.00  0.00     0.009 A 
HETATM   18  C5  UNL     1      27.279  -0.502  52.363  1.00  0.00     0.019 A 
HETATM   19  C6  UNL     1      27.998  -0.334  53.535  1.00  0.00     0.011 A 
HETATM   20 BR1  UNL     1      29.820  -0.891  53.612  1.00  0.00    -0.051 Br
HETATM   21  C7  UNL     1      27.417   0.233  54.659  1.00  0.00     0.019 A 
HETATM   22  C8  UNL     1      26.082   0.646  54.617  1.00  0.00     0.009 A 
ENDBRANCH  15  16
ENDBRANCH   2  15
TORSDOF 4
ENDMDL
MODEL 2
REMARK VINA RESULT:      -7.6      1.088      1.500
REMARK  4 active torsions:
REMARK  status: ('A' for Active; 'I' for Inactive)
REMARK    1  A    between atoms: C1_2  and  C2_3 
REMARK       I    between atoms: C1_2  and  N1_11 
REMARK    2  A    between atoms: C2_3  and  C3_4 
REMARK    3  A    between atoms: N1_11  and  S1_12 
REMARK    4  A    between atoms: S1_12  and  C9_15 
ROOT
HETATM    1  O1  UNL     1      22.146   0.660  51.942  1.00  0.00    -0.272 OA
HETATM    2  C1  UNL     1      23.266   0.851  52.495  1.00  0.00     0.235 C 
HETATM    3  N1  UNL     1      24.076   1.894  51.957  1.00  0.00    -0.250 N 
HETATM    4  H7  UNL     1      25.022   2.101  52.374  1.00  0.00     0.181 HD
ENDROOT
BRANCH   3   5
HETATM    5  S1  UNL     1      23.408   2.773  50.602  1.00  0.00     0.265 S 
HETATM    6  O2  UNL     1      22.864   1.823  49.576  1.00  0.00    -0.200 OA
HETATM    7  O3  UNL     1      22.291   3.682  51.042  1.00  0.00    -0.200 OA
BRANCH   5   8
HETATM    8  C9  UNL     1      24.726   3.712  49.933  1.00  0.00     0.080 A 
HETATM    9  C10 UNL     1      24.385   4.997  49.522  1.00  0.00     0.027 A 
HETATM   10  C11 UNL     1      25.375   5.787  48.987  1.00  0.00     0.020 A 
HETATM   11  C12 UNL     1      26.664   5.314  48.866  1.00  0.00     0.011 A 
HETATM   12 BR2  UNL     1      27.984   6.479  48.110  1.00  0.00    -0.051 Br
HETATM   13  C13 UNL     1      27.029   4.031  49.272  1.00  0.00     0.020 A 
HETATM   14  C14 UNL     1      26.022   3.260  49.803  1.00  0.00     0.027 A 
ENDBRANCH   5   8
ENDBRANCH   3   5
BRANCH   2  15
HETATM   15  C2  UNL     1      23.820   0.101  53.639  1.00  0.00     0.142 C 
BRANCH  15  16
HETATM   16  C3  UNL     1      25.254  -0.167  53.544  1.00  0.00    -0.049 A 
HETATM   17  C4  UNL     1      26.062   0.456  54.493  1.00  0.00     0.009 A 
HETATM   18  C5  UNL     1      27.432   0.325  54.564  1.00  0.00     0.019 A 
HETATM   19  C6  UNL     1      28.027  -0.490  53.614  1.00  0.00     0.011 A 
HETATM   20 BR1  UNL     1      29.918  -0.733  53.632  1.00  0.00    -0.051 Br
HETATM   21  C7  UNL     1      27.272  -1.134  52.646  1.00  0.00     0.019 A 
HETATM   22  C8  UNL     1      25.885  -0.965  52.620  1.00  0.00     0.009 A 
ENDBRANCH  15  16
ENDBRANCH   2  15
TORSDOF 4
ENDMDL
MODEL 3
REMARK VINA RESULT:      -7.6      1.613      2.263
REMARK  4 active torsions:
REMARK  status: ('A' for Active; 'I' for Inactive)
REMARK    1  A    between atoms: C1_2  and  C2_3 
REMARK       I    between atoms: C1_2  and  N1_11 
REMARK    2  A    between atoms: C2_3  and  C3_4 
REMARK    3  A    between atoms: N1_11  and  S1_12 
REMARK    4  A    between atoms: S1_12  and  C9_15 
ROOT
HETATM    1  O1  UNL     1      23.385   2.527  51.396  1.00  0.00    -0.272 OA
HETATM    2  C1  UNL     1      24.406   2.942  52.015  1.00  0.00     0.235 C 
HETATM    3  N1  UNL     1      25.208   3.915  51.350  1.00  0.00    -0.250 N 
HETATM    4  H7  UNL     1      26.073   4.299  51.816  1.00  0.00     0.181 HD
ENDROOT
BRANCH   3   5
HETATM    5  S1  UNL     1      24.671   4.407  49.762  1.00  0.00     0.265 S 
HETATM    6  O2  UNL     1      24.322   3.207  48.930  1.00  0.00    -0.200 OA
HETATM    7  O3  UNL     1      23.455   5.290  49.849  1.00  0.00    -0.200 OA
BRANCH   5   8
HETATM    8  C9  UNL     1      26.006   5.284  49.045  1.00  0.00     0.080 A 
HETATM    9  C10 UNL     1      27.204   4.579  48.974  1.00  0.00     0.027 A 
HETATM   10  C11 UNL     1      28.292   5.211  48.421  1.00  0.00     0.020 A 
HETATM   11  C12 UNL     1      28.192   6.505  47.953  1.00  0.00     0.011 A 
HETATM   12 BR2  UNL     1      29.757   7.313  47.197  1.00  0.00    -0.051 Br
HETATM   13  C13 UNL     1      27.003   7.230  48.014  1.00  0.00     0.020 A 
HETATM   14  C14 UNL     1      25.929   6.577  48.571  1.00  0.00     0.027 A 
ENDBRANCH   5   8
ENDBRANCH   3   5
BRANCH   2  15
HETATM   15  C2  UNL     1      24.850   2.518  53.358  1.00  0.00     0.142 C 
BRANCH  15  16
HETATM   16  C3  UNL     1      25.942   1.547  53.350  1.00  0.00    -0.049 A 
HETATM   17  C4  UNL     1      27.185   2.012  53.771  1.00  0.00     0.009 A 
HETATM   18  C5  UNL     1      28.330   1.248  53.833  1.00  0.00     0.019 A 
HETATM   19  C6  UNL     1      28.212  -0.077  53.443  1.00  0.00     0.011 A 
HETATM   20 BR1  UNL     1      29.742  -1.214  53.493  1.00  0.00    -0.051 Br
HETATM   21  C7  UNL     1      27.000  -0.594  53.014  1.00  0.00     0.019 A 
HETATM   22  C8  UNL     1      25.870   0.228  52.971  1.00  0.00     0.009 A 
ENDBRANCH  15  16
ENDBRANCH   2  15
TORSDOF 4
ENDMDL
MODEL 4
REMARK VINA RESULT:      -7.3      3.648      7.144
REMARK  4 active torsions:
REMARK  status: ('A' for Active; 'I' for Inactive)
REMARK    1  A    between atoms: C1_2  and  C2_3 
REMARK       I    between atoms: C1_2  and  N1_11 
REMARK    2  A    between atoms: C2_3  and  C3_4 
REMARK    3  A    between atoms: N1_11  and  S1_12 
REMARK    4  A    between atoms: S1_12  and  C9_15 
ROOT
HETATM    1  O1  UNL     1      27.306   2.651  51.710  1.00  0.00    -0.272 OA
HETATM    2  C1  UNL     1      26.440   2.606  50.790  1.00  0.00     0.235 C 
HETATM    3  N1  UNL     1      25.151   2.115  51.148  1.00  0.00    -0.250 N 
HETATM    4  H7  UNL     1      24.387   2.052  50.423  1.00  0.00     0.181 HD
ENDROOT
BRANCH   3   5
HETATM    5  S1  UNL     1      24.937   1.642  52.816  1.00  0.00     0.265 S 
HETATM    6  O2  UNL     1      25.937   0.589  53.197  1.00  0.00    -0.200 OA
HETATM    7  O3  UNL     1      25.114   2.817  53.740  1.00  0.00    -0.200 OA
BRANCH   5   8
HETATM    8  C9  UNL     1      23.307   1.015  52.940  1.00  0.00     0.080 A 
HETATM    9  C10 UNL     1      23.214  -0.304  53.373  1.00  0.00     0.027 A 
HETATM   10  C11 UNL     1      21.961  -0.857  53.492  1.00  0.00     0.020 A 
HETATM   11  C12 UNL     1      20.835  -0.121  53.190  1.00  0.00     0.011 A 
HETATM   12 BR2  UNL     1      19.126  -0.967  53.383  1.00  0.00    -0.051 Br
HETATM   13  C13 UNL     1      20.904   1.202  52.755  1.00  0.00     0.020 A 
HETATM   14  C14 UNL     1      22.167   1.733  52.644  1.00  0.00     0.027 A 
ENDBRANCH   5   8
ENDBRANCH   3   5
BRANCH   2  15
HETATM   15  C2  UNL     1      26.633   3.008  49.383  1.00  0.00     0.142 C 
BRANCH  15  16
HETATM   16  C3  UNL     1      26.811   4.445  49.188  1.00  0.00    -0.049 A 
HETATM   17  C4  UNL     1      25.815   5.266  49.712  1.00  0.00     0.009 A 
HETATM   18  C5  UNL     1      25.807   6.642  49.627  1.00  0.00     0.019 A 
HETATM   19  C6  UNL     1      26.877   7.228  48.970  1.00  0.00     0.011 A 
HETATM   20 BR1  UNL     1      26.954   9.126  48.802  1.00  0.00    -0.051 Br
HETATM   21  C7  UNL     1      27.896   6.460  48.428  1.00  0.00     0.019 A 
HETATM   22  C8  UNL     1      27.852   5.068  48.543  1.00  0.00     0.009 A 
ENDBRANCH  15  16
ENDBRANCH   2  15
TORSDOF 4
ENDMDL
MODEL 5
REMARK VINA RESULT:      -7.3      1.707      5.906
REMARK  4 active torsions:
REMARK  status: ('A' for Active; 'I' for Inactive)
REMARK    1  A    between atoms: C1_2  and  C2_3 
REMARK       I    between atoms: C1_2  and  N1_11 
REMARK    2  A    between atoms: C2_3  and  C3_4 
REMARK    3  A    between atoms: N1_11  and  S1_12 
REMARK    4  A    between atoms: S1_12  and  C9_15 
ROOT
HETATM    1  O1  UNL     1      23.716   2.829  52.874  1.00  0.00    -0.272 OA
HETATM    2  C1  UNL     1      23.376   2.424  51.726  1.00  0.00     0.235 C 
HETATM    3  N1  UNL     1      23.114   1.030  51.590  1.00  0.00    -0.250 N 
HETATM    4  H7  UNL     1      22.828   0.632  50.656  1.00  0.00     0.181 HD
ENDROOT
BRANCH   3   5
HETATM    5  S1  UNL     1      23.297   0.063  53.033  1.00  0.00     0.265 S 
HETATM    6  O2  UNL     1      22.577   0.698  54.187  1.00  0.00    -0.200 OA
HETATM    7  O3  UNL     1      22.740  -1.321  52.835  1.00  0.00    -0.200 OA
BRANCH   5   8
HETATM    8  C9  UNL     1      25.017  -0.017  53.351  1.00  0.00     0.080 A 
HETATM    9  C10 UNL     1      25.822  -0.137  52.222  1.00  0.00     0.027 A 
HETATM   10  C11 UNL     1      27.182  -0.204  52.403  1.00  0.00     0.020 A 
HETATM   11  C12 UNL     1      27.727  -0.153  53.669  1.00  0.00     0.011 A 
HETATM   12 BR2  UNL     1      29.634  -0.254  53.833  1.00  0.00    -0.051 Br
HETATM   13  C13 UNL     1      26.942  -0.034  54.814  1.00  0.00     0.020 A 
HETATM   14  C14 UNL     1      25.584   0.031  54.608  1.00  0.00     0.027 A 
ENDBRANCH   5   8
ENDBRANCH   3   5
BRANCH   2  15
HETATM   15  C2  UNL     1      23.225   3.252  50.512  1.00  0.00     0.142 C 
BRANCH  15  16
HETATM   16  C3  UNL     1      24.481   3.779  49.985  1.00  0.00    -0.049 A 
HETATM   17  C4  UNL     1      24.457   5.098  49.537  1.00  0.00     0.009 A 
HETATM   18  C5  UNL     1      25.539   5.767  49.008  1.00  0.00     0.019 A 
HETATM   19  C6  UNL     1      26.727   5.058  48.926  1.00  0.00     0.011 A 
HETATM   20 BR1  UNL     1      28.280   5.900  48.208  1.00  0.00    -0.051 Br
HETATM   21  C7  UNL     1      26.809   3.743  49.356  1.00  0.00     0.019 A 
HETATM   22  C8  UNL     1      25.679   3.113  49.884  1.00  0.00     0.009 A 
ENDBRANCH  15  16
ENDBRANCH   2  15
TORSDOF 4
ENDMDL
MODEL 6
REMARK VINA RESULT:      -7.3      1.604      6.292
REMARK  4 active torsions:
REMARK  status: ('A' for Active; 'I' for Inactive)
REMARK    1  A    between atoms: C1_2  and  C2_3 
REMARK       I    between atoms: C1_2  and  N1_11 
REMARK    2  A    between atoms: C2_3  and  C3_4 
REMARK    3  A    between atoms: N1_11  and  S1_12 
REMARK    4  A    between atoms: S1_12  and  C9_15 
ROOT
HETATM    1  O1  UNL     1      23.889   4.678  51.799  1.00  0.00    -0.272 OA
HETATM    2  C1  UNL     1      24.259   4.017  50.788  1.00  0.00     0.235 C 
HETATM    3  N1  UNL     1      24.656   2.666  51.015  1.00  0.00    -0.250 N 
HETATM    4  H7  UNL     1      24.976   2.064  50.211  1.00  0.00     0.181 HD
ENDROOT
BRANCH   3   5
HETATM    5  S1  UNL     1      24.576   2.103  52.667  1.00  0.00     0.265 S 
HETATM    6  O2  UNL     1      24.581   3.264  53.619  1.00  0.00    -0.200 OA
HETATM    7  O3  UNL     1      23.325   1.301  52.908  1.00  0.00    -0.200 OA
BRANCH   5   8
HETATM    8  C9  UNL     1      25.992   1.103  52.910  1.00  0.00     0.080 A 
HETATM    9  C10 UNL     1      27.053   1.729  53.560  1.00  0.00     0.027 A 
HETATM   10  C11 UNL     1      28.195   0.998  53.782  1.00  0.00     0.020 A 
HETATM   11  C12 UNL     1      28.281  -0.315  53.372  1.00  0.00     0.011 A 
HETATM   12 BR2  UNL     1      29.910  -1.263  53.720  1.00  0.00    -0.051 Br
HETATM   13  C13 UNL     1      27.233  -0.963  52.720  1.00  0.00     0.020 A 
HETATM   14  C14 UNL     1      26.101  -0.212  52.509  1.00  0.00     0.027 A 
ENDBRANCH   5   8
ENDBRANCH   3   5
BRANCH   2  15
HETATM   15  C2  UNL     1      24.323   4.504  49.396  1.00  0.00     0.142 C 
BRANCH  15  16
HETATM   16  C3  UNL     1      25.627   5.034  49.004  1.00  0.00    -0.049 A 
HETATM   17  C4  UNL     1      25.647   6.350  48.547  1.00  0.00     0.009 A 
HETATM   18  C5  UNL     1      26.778   7.021  48.134  1.00  0.00     0.019 A 
HETATM   19  C6  UNL     1      27.970   6.316  48.186  1.00  0.00     0.011 A 
HETATM   20 BR1  UNL     1      29.588   7.160  47.635  1.00  0.00    -0.051 Br
HETATM   21  C7  UNL     1      28.010   5.004  48.632  1.00  0.00     0.019 A 
HETATM   22  C8  UNL     1      26.831   4.372  49.038  1.00  0.00     0.009 A 
ENDBRANCH  15  16
ENDBRANCH   2  15
TORSDOF 4
ENDMDL
MODEL 7
REMARK VINA RESULT:      -7.2      3.745      7.121
REMARK  4 active torsions:
REMARK  status: ('A' for Active; 'I' for Inactive)
REMARK    1  A    between atoms: C1_2  and  C2_3 
REMARK       I    between atoms: C1_2  and  N1_11 
REMARK    2  A    between atoms: C2_3  and  C3_4 
REMARK    3  A    between atoms: N1_11  and  S1_12 
REMARK    4  A    between atoms: S1_12  and  C9_15 
ROOT
HETATM    1  O1  UNL     1      25.685   2.634  53.008  1.00  0.00    -0.272 OA
HETATM    2  C1  UNL     1      26.165   2.058  51.990  1.00  0.00     0.235 C 
HETATM    3  N1  UNL     1      26.253   0.636  52.040  1.00  0.00    -0.250 N 
HETATM    4  H7  UNL     1      26.646   0.100  51.222  1.00  0.00     0.181 HD
ENDROOT
BRANCH   3   5
HETATM    5  S1  UNL     1      25.682  -0.124  53.506  1.00  0.00     0.265 S 
HETATM    6  O2  UNL     1      26.265  -1.500  53.646  1.00  0.00    -0.200 OA
HETATM    7  O3  UNL     1      26.068   0.678  54.720  1.00  0.00    -0.200 OA
BRANCH   5   8
HETATM    8  C9  UNL     1      23.939  -0.207  53.364  1.00  0.00     0.080 A 
HETATM    9  C10 UNL     1      23.297  -0.910  54.379  1.00  0.00     0.027 A 
HETATM   10  C11 UNL     1      21.927  -1.012  54.327  1.00  0.00     0.020 A 
HETATM   11  C12 UNL     1      21.216  -0.432  53.298  1.00  0.00     0.011 A 
HETATM   12 BR2  UNL     1      19.310  -0.621  53.300  1.00  0.00    -0.051 Br
HETATM   13  C13 UNL     1      21.837   0.278  52.271  1.00  0.00     0.020 A 
HETATM   14  C14 UNL     1      23.207   0.366  52.344  1.00  0.00     0.027 A 
ENDBRANCH   5   8
ENDBRANCH   3   5
BRANCH   2  15
HETATM   15  C2  UNL     1      26.645   2.712  50.757  1.00  0.00     0.142 C 
BRANCH  15  16
HETATM   16  C3  UNL     1      25.620   3.465  50.038  1.00  0.00    -0.049 A 
HETATM   17  C4  UNL     1      25.978   4.742  49.610  1.00  0.00     0.009 A 
HETATM   18  C5  UNL     1      25.149   5.600  48.920  1.00  0.00     0.019 A 
HETATM   19  C6  UNL     1      23.873   5.138  48.642  1.00  0.00     0.011 A 
HETATM   20 BR1  UNL     1      22.654   6.254  47.690  1.00  0.00    -0.051 Br
HETATM   21  C7  UNL     1      23.462   3.876  49.044  1.00  0.00     0.019 A 
HETATM   22  C8  UNL     1      24.345   3.048  49.742  1.00  0.00     0.009 A 
ENDBRANCH  15  16
ENDBRANCH   2  15
TORSDOF 4
ENDMDL
MODEL 8
REMARK VINA RESULT:      -7.0      1.932      2.383
REMARK  4 active torsions:
REMARK  status: ('A' for Active; 'I' for Inactive)
REMARK    1  A    between atoms: C1_2  and  C2_3 
REMARK       I    between atoms: C1_2  and  N1_11 
REMARK    2  A    between atoms: C2_3  and  C3_4 
REMARK    3  A    between atoms: N1_11  and  S1_12 
REMARK    4  A    between atoms: S1_12  and  C9_15 
ROOT
HETATM    1  O1  UNL     1      23.674   3.467  50.689  1.00  0.00    -0.272 OA
HETATM    2  C1  UNL     1      24.007   3.967  51.802  1.00  0.00     0.235 C 
HETATM    3  N1  UNL     1      24.315   5.358  51.813  1.00  0.00    -0.250 N 
HETATM    4  H7  UNL     1      24.601   5.832  52.711  1.00  0.00     0.181 HD
ENDROOT
BRANCH   3   5
HETATM    5  S1  UNL     1      24.188   6.192  50.283  1.00  0.00     0.265 S 
HETATM    6  O2  UNL     1      23.155   5.538  49.411  1.00  0.00    -0.200 OA
HETATM    7  O3  UNL     1      23.796   7.632  50.479  1.00  0.00    -0.200 OA
BRANCH   5   8
HETATM    8  C9  UNL     1      25.771   6.092  49.540  1.00  0.00     0.080 A 
HETATM    9  C10 UNL     1      26.384   7.316  49.289  1.00  0.00     0.027 A 
HETATM   10  C11 UNL     1      27.629   7.306  48.707  1.00  0.00     0.020 A 
HETATM   11  C12 UNL     1      28.247   6.116  48.385  1.00  0.00     0.011 A 
HETATM   12 BR2  UNL     1      29.982   6.192  47.576  1.00  0.00    -0.051 Br
HETATM   13  C13 UNL     1      27.652   4.878  48.627  1.00  0.00     0.020 A 
HETATM   14  C14 UNL     1      26.408   4.913  49.209  1.00  0.00     0.027 A 
ENDBRANCH   5   8
ENDBRANCH   3   5
BRANCH   2  15
HETATM   15  C2  UNL     1      24.112   3.251  53.088  1.00  0.00     0.142 C 
BRANCH  15  16
HETATM   16  C3  UNL     1      24.738   1.934  52.994  1.00  0.00    -0.049 A 
HETATM   17  C4  UNL     1      26.071   1.913  52.590  1.00  0.00     0.009 A 
HETATM   18  C5  UNL     1      26.828   0.770  52.443  1.00  0.00     0.019 A 
HETATM   19  C6  UNL     1      26.198  -0.431  52.723  1.00  0.00     0.011 A 
HETATM   20 BR1  UNL     1      27.164  -2.066  52.548  1.00  0.00    -0.051 Br
HETATM   21  C7  UNL     1      24.873  -0.470  53.129  1.00  0.00     0.019 A 
HETATM   22  C8  UNL     1      24.152   0.721  53.261  1.00  0.00     0.009 A 
ENDBRANCH  15  16
ENDBRANCH   2  15
TORSDOF 4
ENDMDL
MODEL 9
REMARK VINA RESULT:      -7.0      2.851      6.845
REMARK  4 active torsions:
REMARK  status: ('A' for Active; 'I' for Inactive)
REMARK    1  A    between atoms: C1_2  and  C2_3 
REMARK       I    between atoms: C1_2  and  N1_11 
REMARK    2  A    between atoms: C2_3  and  C3_4 
REMARK    3  A    between atoms: N1_11  and  S1_12 
REMARK    4  A    between atoms: S1_12  and  C9_15 
ROOT
HETATM    1  O1  UNL     1      24.217   3.139  49.201  1.00  0.00    -0.272 OA
HETATM    2  C1  UNL     1      25.187   3.529  49.912  1.00  0.00     0.235 C 
HETATM    3  N1  UNL     1      24.872   4.016  51.214  1.00  0.00    -0.250 N 
HETATM    4  H7  UNL     1      25.638   4.356  51.853  1.00  0.00     0.181 HD
ENDROOT
BRANCH   3   5
HETATM    5  S1  UNL     1      23.182   4.007  51.656  1.00  0.00     0.265 S 
HETATM    6  O2  UNL     1      22.890   5.103  52.640  1.00  0.00    -0.200 OA
HETATM    7  O3  UNL     1      22.304   4.210  50.451  1.00  0.00    -0.200 OA
BRANCH   5   8
HETATM    8  C9  UNL     1      22.874   2.440  52.373  1.00  0.00     0.080 A 
HETATM    9  C10 UNL     1      21.529   2.128  52.555  1.00  0.00     0.027 A 
HETATM   10  C11 UNL     1      21.219   0.911  53.113  1.00  0.00     0.020 A 
HETATM   11  C12 UNL     1      22.215   0.030  53.479  1.00  0.00     0.011 A 
HETATM   12 BR2  UNL     1      21.697  -1.646  54.250  1.00  0.00    -0.051 Br
HETATM   13  C13 UNL     1      23.568   0.320  53.306  1.00  0.00     0.020 A 
HETATM   14  C14 UNL     1      23.853   1.543  52.747  1.00  0.00     0.027 A 
ENDBRANCH   5   8
ENDBRANCH   3   5
BRANCH   2  15
HETATM   15  C2  UNL     1      26.612   3.531  49.526  1.00  0.00     0.142 C 
BRANCH  15  16
HETATM   16  C3  UNL     1      27.068   4.781  48.922  1.00  0.00    -0.049 A 
HETATM   17  C4  UNL     1      26.105   5.775  48.758  1.00  0.00     0.009 A 
HETATM   18  C5  UNL     1      26.344   7.016  48.209  1.00  0.00     0.019 A 
HETATM   19  C6  UNL     1      27.642   7.273  47.798  1.00  0.00     0.011 A 
HETATM   20 BR1  UNL     1      28.070   8.963  47.027  1.00  0.00    -0.051 Br
HETATM   21  C7  UNL     1      28.641   6.321  47.937  1.00  0.00     0.019 A 
HETATM   22  C8  UNL     1      28.342   5.077  48.501  1.00  0.00     0.009 A 
ENDBRANCH  15  16
ENDBRANCH   2  15
TORSDOF 4
ENDMDL
