MODEL 1
REMARK VINA RESULT:      -7.9      0.000      0.000
REMARK  4 active torsions:
REMARK  status: ('A' for Active; 'I' for Inactive)
REMARK    1  A    between atoms: C14_17  and  O3_18 
REMARK    2  A    between atoms: O3_18  and  C15_19 
REMARK    3  A    between atoms: C15_19  and  C16_20 
REMARK    4  A    between atoms: C16_20  and  O4_21 
ROOT
HETATM    1  C1  UNL     1      27.213  -2.316  52.345  1.00  0.00     0.018 C 
HETATM    2  C2  UNL     1      26.471  -1.553  52.939  1.00  0.00    -0.078 C 
HETATM    3  C3  UNL     1      25.593  -0.635  53.674  1.00  0.00     0.019 C 
HETATM    4  C4  UNL     1      24.324  -0.815  53.325  1.00  0.00     0.022 C 
HETATM    5  C5  UNL     1      22.939  -0.496  53.423  1.00  0.00     0.020 C 
HETATM    6  C6  UNL     1      21.636  -0.542  53.201  1.00  0.00     0.114 C 
HETATM    7  N1  UNL     1      20.665   0.281  53.815  1.00  0.00    -0.278 N 
HETATM    8  O1  UNL     1      20.299   1.555  53.502  1.00  0.00    -0.279 OA
HETATM    9  C7  UNL     1      21.062   2.025  52.453  1.00  0.00     0.227 C 
HETATM   10  C8  UNL     1      20.979   3.514  52.231  1.00  0.00     0.204 C 
HETATM   11  O2  UNL     1      21.831   3.790  51.133  1.00  0.00    -0.350 OA
HETATM   12  C9  UNL     1      23.203   3.412  51.227  1.00  0.00     0.087 A 
HETATM   13  C10 UNL     1      23.725   3.496  52.495  1.00  0.00     0.087 A 
HETATM   14  C11 UNL     1      24.982   3.219  52.976  1.00  0.00     0.042 A 
HETATM   15  C12 UNL     1      25.182   2.922  51.692  1.00  0.00     0.090 A 
HETATM   16  C13 UNL     1      25.213   2.666  50.366  1.00  0.00     0.046 A 
HETATM   17  C14 UNL     1      23.874   3.001  50.056  1.00  0.00     0.097 A 
HETATM   18  N2  UNL     1      26.480   2.562  52.015  1.00  0.00    -0.267 NA
HETATM   19  C18 UNL     1      27.038   1.579  52.638  1.00  0.00     0.228 C 
HETATM   20  N3  UNL     1      27.721   0.548  53.298  1.00  0.00    -0.240 NA
HETATM   21  C19 UNL     1      27.388   0.412  54.567  1.00  0.00     0.088 C 
HETATM   22  C20 UNL     1      26.049   0.324  54.683  1.00  0.00     0.054 C 
HETATM   23  H5  UNL     1      20.140  -0.101  54.614  1.00  0.00     0.193 HD
ENDROOT
BRANCH  17  24
HETATM   24  O3  UNL     1      23.128   3.018  48.966  1.00  0.00    -0.347 OA
BRANCH  24  25
HETATM   25  C15 UNL     1      22.564   2.315  47.981  1.00  0.00     0.201 C 
BRANCH  25  26
HETATM   26  C16 UNL     1      21.558   1.322  48.481  1.00  0.00     0.193 C 
BRANCH  26  27
HETATM   27  O4  UNL     1      20.406   1.920  48.906  1.00  0.00    -0.394 OA
HETATM   28  C17 UNL     1      19.836   2.711  47.918  1.00  0.00     0.201 C 
ENDBRANCH  26  27
ENDBRANCH  25  26
ENDBRANCH  24  25
ENDBRANCH  17  24
TORSDOF 4
ENDMDL
MODEL 2
REMARK VINA RESULT:      -7.1      1.759      1.989
REMARK  4 active torsions:
REMARK  status: ('A' for Active; 'I' for Inactive)
REMARK    1  A    between atoms: C14_17  and  O3_18 
REMARK    2  A    between atoms: O3_18  and  C15_19 
REMARK    3  A    between atoms: C15_19  and  C16_20 
REMARK    4  A    between atoms: C16_20  and  O4_21 
ROOT
HETATM    1  C1  UNL     1      26.885  -1.084  52.083  1.00  0.00     0.018 C 
HETATM    2  C2  UNL     1      26.169  -0.200  52.520  1.00  0.00    -0.078 C 
HETATM    3  C3  UNL     1      25.325   0.870  53.063  1.00  0.00     0.019 C 
HETATM    4  C4  UNL     1      24.037   0.592  52.885  1.00  0.00     0.022 C 
HETATM    5  C5  UNL     1      22.656   0.912  53.017  1.00  0.00     0.020 C 
HETATM    6  C6  UNL     1      21.341   0.797  52.929  1.00  0.00     0.114 C 
HETATM    7  N1  UNL     1      20.397   1.742  53.389  1.00  0.00    -0.278 N 
HETATM    8  O1  UNL     1      19.966   2.886  52.788  1.00  0.00    -0.279 OA
HETATM    9  C7  UNL     1      20.625   3.072  51.591  1.00  0.00     0.227 C 
HETATM   10  C8  UNL     1      20.476   4.449  50.997  1.00  0.00     0.204 C 
HETATM   11  O2  UNL     1      21.227   4.437  49.795  1.00  0.00    -0.350 OA
HETATM   12  C9  UNL     1      22.614   4.110  49.864  1.00  0.00     0.087 A 
HETATM   13  C10 UNL     1      23.234   4.528  51.017  1.00  0.00     0.087 A 
HETATM   14  C11 UNL     1      24.534   4.401  51.442  1.00  0.00     0.042 A 
HETATM   15  C12 UNL     1      24.638   3.779  50.267  1.00  0.00     0.090 A 
HETATM   16  C13 UNL     1      24.571   3.185  49.056  1.00  0.00     0.046 A 
HETATM   17  C14 UNL     1      23.200   3.413  48.787  1.00  0.00     0.097 A 
HETATM   18  N2  UNL     1      25.969   3.529  50.559  1.00  0.00    -0.267 NA
HETATM   19  C18 UNL     1      26.608   2.749  51.365  1.00  0.00     0.228 C 
HETATM   20  N3  UNL     1      27.376   1.934  52.209  1.00  0.00    -0.240 NA
HETATM   21  C19 UNL     1      27.152   2.133  53.494  1.00  0.00     0.088 C 
HETATM   22  C20 UNL     1      25.830   2.065  53.744  1.00  0.00     0.054 C 
HETATM   23  H5  UNL     1      19.952   1.578  54.303  1.00  0.00     0.193 HD
ENDROOT
BRANCH  17  24
HETATM   24  O3  UNL     1      22.368   3.136  47.799  1.00  0.00    -0.347 OA
BRANCH  24  25
HETATM   25  C15 UNL     1      21.877   3.496  46.611  1.00  0.00     0.201 C 
BRANCH  25  26
HETATM   26  C16 UNL     1      20.383   3.622  46.617  1.00  0.00     0.193 C 
BRANCH  26  27
HETATM   27  O4  UNL     1      19.852   3.549  45.361  1.00  0.00    -0.394 OA
HETATM   28  C17 UNL     1      20.770   3.916  44.386  1.00  0.00     0.201 C 
ENDBRANCH  26  27
ENDBRANCH  25  26
ENDBRANCH  24  25
ENDBRANCH  17  24
TORSDOF 4
ENDMDL
MODEL 3
REMARK VINA RESULT:      -6.9      8.061      9.703
REMARK  4 active torsions:
REMARK  status: ('A' for Active; 'I' for Inactive)
REMARK    1  A    between atoms: C14_17  and  O3_18 
REMARK    2  A    between atoms: O3_18  and  C15_19 
REMARK    3  A    between atoms: C15_19  and  C16_20 
REMARK    4  A    between atoms: C16_20  and  O4_21 
ROOT
HETATM    1  C1  UNL     1      32.781   4.615  45.754  1.00  0.00     0.018 C 
HETATM    2  C2  UNL     1      32.211   4.975  46.770  1.00  0.00    -0.078 C 
HETATM    3  C3  UNL     1      31.546   5.398  48.007  1.00  0.00     0.019 C 
HETATM    4  C4  UNL     1      30.225   5.374  47.865  1.00  0.00     0.022 C 
HETATM    5  C5  UNL     1      28.906   5.566  48.367  1.00  0.00     0.020 C 
HETATM    6  C6  UNL     1      27.584   5.597  48.405  1.00  0.00     0.114 C 
HETATM    7  N1  UNL     1      26.799   5.993  49.510  1.00  0.00    -0.278 N 
HETATM    8  O1  UNL     1      26.471   7.248  49.923  1.00  0.00    -0.279 OA
HETATM    9  C7  UNL     1      27.062   8.188  49.105  1.00  0.00     0.227 C 
HETATM   10  C8  UNL     1      27.042   9.596  49.644  1.00  0.00     0.204 C 
HETATM   11  O2  UNL     1      27.699  10.393  48.674  1.00  0.00    -0.350 OA
HETATM   12  C9  UNL     1      29.036  10.055  48.310  1.00  0.00     0.087 A 
HETATM   13  C10 UNL     1      29.783   9.529  49.337  1.00  0.00     0.087 A 
HETATM   14  C11 UNL     1      31.084   9.090  49.376  1.00  0.00     0.042 A 
HETATM   15  C12 UNL     1      31.028   9.457  48.095  1.00  0.00     0.090 A 
HETATM   16  C13 UNL     1      30.802   9.875  46.830  1.00  0.00     0.046 A 
HETATM   17  C14 UNL     1      29.454  10.280  46.982  1.00  0.00     0.097 A 
HETATM   18  N2  UNL     1      32.335   9.022  47.950  1.00  0.00    -0.267 NA
HETATM   19  C18 UNL     1      32.928   7.876  47.905  1.00  0.00     0.228 C 
HETATM   20  N3  UNL     1      33.647   6.674  47.846  1.00  0.00    -0.240 NA
HETATM   21  C19 UNL     1      33.541   5.932  48.931  1.00  0.00     0.088 C 
HETATM   22  C20 UNL     1      32.242   5.762  49.244  1.00  0.00     0.054 C 
HETATM   23  H5  UNL     1      26.402   5.257  50.112  1.00  0.00     0.193 HD
ENDROOT
BRANCH  17  24
HETATM   24  O3  UNL     1      28.527  10.801  46.199  1.00  0.00    -0.347 OA
BRANCH  24  25
HETATM   25  C15 UNL     1      27.701  10.623  45.165  1.00  0.00     0.201 C 
BRANCH  25  26
HETATM   26  C16 UNL     1      26.956   9.325  45.237  1.00  0.00     0.193 C 
BRANCH  26  27
HETATM   27  O4  UNL     1      25.829   9.415  46.003  1.00  0.00    -0.394 OA
HETATM   28  C17 UNL     1      25.102   8.232  46.000  1.00  0.00     0.201 C 
ENDBRANCH  26  27
ENDBRANCH  25  26
ENDBRANCH  24  25
ENDBRANCH  17  24
TORSDOF 4
ENDMDL
MODEL 4
REMARK VINA RESULT:      -6.8      8.780     10.478
REMARK  4 active torsions:
REMARK  status: ('A' for Active; 'I' for Inactive)
REMARK    1  A    between atoms: C14_17  and  O3_18 
REMARK    2  A    between atoms: O3_18  and  C15_19 
REMARK    3  A    between atoms: C15_19  and  C16_20 
REMARK    4  A    between atoms: C16_20  and  O4_21 
ROOT
HETATM    1  C1  UNL     1      32.647   4.520  45.709  1.00  0.00     0.018 C 
HETATM    2  C2  UNL     1      32.103   4.896  46.733  1.00  0.00    -0.078 C 
HETATM    3  C3  UNL     1      31.468   5.337  47.980  1.00  0.00     0.019 C 
HETATM    4  C4  UNL     1      30.147   5.390  47.844  1.00  0.00     0.022 C 
HETATM    5  C5  UNL     1      28.843   5.648  48.355  1.00  0.00     0.020 C 
HETATM    6  C6  UNL     1      27.525   5.753  48.400  1.00  0.00     0.114 C 
HETATM    7  N1  UNL     1      26.769   6.175  49.515  1.00  0.00    -0.278 N 
HETATM    8  O1  UNL     1      26.513   7.441  49.948  1.00  0.00    -0.279 OA
HETATM    9  C7  UNL     1      27.152   8.359  49.141  1.00  0.00     0.227 C 
HETATM   10  C8  UNL     1      27.214   9.756  49.701  1.00  0.00     0.204 C 
HETATM   11  O2  UNL     1      27.910  10.530  48.738  1.00  0.00    -0.350 OA
HETATM   12  C9  UNL     1      29.225  10.123  48.363  1.00  0.00     0.087 A 
HETATM   13  C10 UNL     1      29.946   9.541  49.378  1.00  0.00     0.087 A 
HETATM   14  C11 UNL     1      31.220   9.029  49.404  1.00  0.00     0.042 A 
HETATM   15  C12 UNL     1      31.179   9.417  48.129  1.00  0.00     0.090 A 
HETATM   16  C13 UNL     1      30.971   9.866  46.872  1.00  0.00     0.046 A 
HETATM   17  C14 UNL     1      29.649  10.344  47.036  1.00  0.00     0.097 A 
HETATM   18  N2  UNL     1      32.459   8.912  47.972  1.00  0.00    -0.267 NA
HETATM   19  C18 UNL     1      32.986   7.735  47.907  1.00  0.00     0.228 C 
HETATM   20  N3  UNL     1      33.637   6.496  47.826  1.00  0.00    -0.240 NA
HETATM   21  C19 UNL     1      33.493   5.745  48.901  1.00  0.00     0.088 C 
HETATM   22  C20 UNL     1      32.188   5.643  49.219  1.00  0.00     0.054 C 
HETATM   23  H5  UNL     1      26.334   5.454  50.108  1.00  0.00     0.193 HD
ENDROOT
BRANCH  17  24
HETATM   24  O3  UNL     1      28.749  10.928  46.266  1.00  0.00    -0.347 OA
BRANCH  24  25
HETATM   25  C15 UNL     1      28.417  12.000  45.542  1.00  0.00     0.201 C 
BRANCH  25  26
HETATM   26  C16 UNL     1      29.203  13.219  45.920  1.00  0.00     0.193 C 
BRANCH  26  27
HETATM   27  O4  UNL     1      28.874  13.685  47.162  1.00  0.00    -0.394 OA
HETATM   28  C17 UNL     1      28.021  14.778  47.097  1.00  0.00     0.201 C 
ENDBRANCH  26  27
ENDBRANCH  25  26
ENDBRANCH  24  25
ENDBRANCH  17  24
TORSDOF 4
ENDMDL
MODEL 5
REMARK VINA RESULT:      -6.6      9.613     12.581
REMARK  4 active torsions:
REMARK  status: ('A' for Active; 'I' for Inactive)
REMARK    1  A    between atoms: C14_17  and  O3_18 
REMARK    2  A    between atoms: O3_18  and  C15_19 
REMARK    3  A    between atoms: C15_19  and  C16_20 
REMARK    4  A    between atoms: C16_20  and  O4_21 
ROOT
HETATM    1  C1  UNL     1      27.729   8.223  45.350  1.00  0.00     0.018 C 
HETATM    2  C2  UNL     1      28.567   8.439  46.208  1.00  0.00    -0.078 C 
HETATM    3  C3  UNL     1      29.557   8.707  47.257  1.00  0.00     0.019 C 
HETATM    4  C4  UNL     1      30.715   9.088  46.728  1.00  0.00     0.022 C 
HETATM    5  C5  UNL     1      32.072   9.503  46.847  1.00  0.00     0.020 C 
HETATM    6  C6  UNL     1      33.285   9.899  46.497  1.00  0.00     0.114 C 
HETATM    7  N1  UNL     1      34.348  10.182  47.382  1.00  0.00    -0.278 N 
HETATM    8  O1  UNL     1      35.209   9.320  47.993  1.00  0.00    -0.279 OA
HETATM    9  C7  UNL     1      34.892   8.018  47.663  1.00  0.00     0.227 C 
HETATM   10  C8  UNL     1      35.556   6.971  48.520  1.00  0.00     0.204 C 
HETATM   11  O2  UNL     1      35.096   5.722  48.032  1.00  0.00    -0.350 OA
HETATM   12  C9  UNL     1      33.691   5.478  48.007  1.00  0.00     0.087 A 
HETATM   13  C10 UNL     1      32.998   6.072  49.035  1.00  0.00     0.087 A 
HETATM   14  C11 UNL     1      31.660   6.071  49.342  1.00  0.00     0.042 A 
HETATM   15  C12 UNL     1      31.621   5.314  48.246  1.00  0.00     0.090 A 
HETATM   16  C13 UNL     1      31.758   4.569  47.126  1.00  0.00     0.046 A 
HETATM   17  C14 UNL     1      33.161   4.682  46.971  1.00  0.00     0.097 A 
HETATM   18  N2  UNL     1      30.245   5.242  48.387  1.00  0.00    -0.267 NA
HETATM   19  C18 UNL     1      29.255   6.054  48.223  1.00  0.00     0.228 C 
HETATM   20  N3  UNL     1      28.127   6.872  48.067  1.00  0.00    -0.240 NA
HETATM   21  C19 UNL     1      28.131   7.943  48.838  1.00  0.00     0.088 C 
HETATM   22  C20 UNL     1      29.295   8.606  48.695  1.00  0.00     0.054 C 
HETATM   23  H5  UNL     1      34.529  11.166  47.624  1.00  0.00     0.193 HD
ENDROOT
BRANCH  17  24
HETATM   24  O3  UNL     1      34.059   4.234  46.113  1.00  0.00    -0.347 OA
BRANCH  24  25
HETATM   25  C15 UNL     1      34.367   3.986  44.838  1.00  0.00     0.201 C 
BRANCH  25  26
HETATM   26  C16 UNL     1      33.698   4.932  43.886  1.00  0.00     0.193 C 
BRANCH  26  27
HETATM   27  O4  UNL     1      34.499   5.988  43.557  1.00  0.00    -0.394 OA
HETATM   28  C17 UNL     1      34.018   7.185  44.071  1.00  0.00     0.201 C 
ENDBRANCH  26  27
ENDBRANCH  25  26
ENDBRANCH  24  25
ENDBRANCH  17  24
TORSDOF 4
ENDMDL
MODEL 6
REMARK VINA RESULT:      -6.5      3.315      6.093
REMARK  4 active torsions:
REMARK  status: ('A' for Active; 'I' for Inactive)
REMARK    1  A    between atoms: C14_17  and  O3_18 
REMARK    2  A    between atoms: O3_18  and  C15_19 
REMARK    3  A    between atoms: C15_19  and  C16_20 
REMARK    4  A    between atoms: C16_20  and  O4_21 
ROOT
HETATM    1  C1  UNL     1      24.523   7.621  46.830  1.00  0.00     0.018 C 
HETATM    2  C2  UNL     1      24.864   7.156  47.904  1.00  0.00    -0.078 C 
HETATM    3  C3  UNL     1      25.285   6.621  49.203  1.00  0.00     0.019 C 
HETATM    4  C4  UNL     1      25.589   5.331  49.106  1.00  0.00     0.022 C 
HETATM    5  C5  UNL     1      26.022   4.098  49.673  1.00  0.00     0.020 C 
HETATM    6  C6  UNL     1      26.366   2.824  49.759  1.00  0.00     0.114 C 
HETATM    7  N1  UNL     1      26.779   2.158  50.934  1.00  0.00    -0.278 N 
HETATM    8  O1  UNL     1      26.018   1.636  51.936  1.00  0.00    -0.279 OA
HETATM    9  C7  UNL     1      24.681   1.873  51.691  1.00  0.00     0.227 C 
HETATM   10  C8  UNL     1      23.772   1.636  52.870  1.00  0.00     0.204 C 
HETATM   11  O2  UNL     1      22.464   1.942  52.419  1.00  0.00    -0.350 OA
HETATM   12  C9  UNL     1      22.214   3.246  51.896  1.00  0.00     0.087 A 
HETATM   13  C10 UNL     1      22.949   4.242  52.493  1.00  0.00     0.087 A 
HETATM   14  C11 UNL     1      22.988   5.596  52.267  1.00  0.00     0.042 A 
HETATM   15  C12 UNL     1      22.079   5.259  51.351  1.00  0.00     0.090 A 
HETATM   16  C13 UNL     1      21.180   4.751  50.480  1.00  0.00     0.046 A 
HETATM   17  C14 UNL     1      21.274   3.389  50.855  1.00  0.00     0.097 A 
HETATM   18  N2  UNL     1      22.024   6.590  50.969  1.00  0.00    -0.267 NA
HETATM   19  C18 UNL     1      22.800   7.401  50.332  1.00  0.00     0.228 C 
HETATM   20  N3  UNL     1      23.583   8.344  49.651  1.00  0.00    -0.240 NA
HETATM   21  C19 UNL     1      24.754   8.574  50.213  1.00  0.00     0.088 C 
HETATM   22  C20 UNL     1      25.393   7.409  50.434  1.00  0.00     0.054 C 
HETATM   23  H5  UNL     1      27.788   2.030  51.090  1.00  0.00     0.193 HD
ENDROOT
BRANCH  17  24
HETATM   24  O3  UNL     1      20.709   2.259  50.471  1.00  0.00    -0.347 OA
BRANCH  24  25
HETATM   25  C15 UNL     1      20.718   1.233  49.617  1.00  0.00     0.201 C 
BRANCH  25  26
HETATM   26  C16 UNL     1      21.601   1.476  48.430  1.00  0.00     0.193 C 
BRANCH  26  27
HETATM   27  O4  UNL     1      21.049   2.356  47.544  1.00  0.00    -0.394 OA
HETATM   28  C17 UNL     1      21.964   3.312  47.123  1.00  0.00     0.201 C 
ENDBRANCH  26  27
ENDBRANCH  25  26
ENDBRANCH  24  25
ENDBRANCH  17  24
TORSDOF 4
ENDMDL
MODEL 7
REMARK VINA RESULT:      -6.4      3.382      6.295
REMARK  4 active torsions:
REMARK  status: ('A' for Active; 'I' for Inactive)
REMARK    1  A    between atoms: C14_17  and  O3_18 
REMARK    2  A    between atoms: O3_18  and  C15_19 
REMARK    3  A    between atoms: C15_19  and  C16_20 
REMARK    4  A    between atoms: C16_20  and  O4_21 
ROOT
HETATM    1  C1  UNL     1      24.218   7.481  46.844  1.00  0.00     0.018 C 
HETATM    2  C2  UNL     1      24.551   7.036  47.929  1.00  0.00    -0.078 C 
HETATM    3  C3  UNL     1      24.959   6.526  49.242  1.00  0.00     0.019 C 
HETATM    4  C4  UNL     1      25.364   5.263  49.152  1.00  0.00     0.022 C 
HETATM    5  C5  UNL     1      25.867   4.064  49.732  1.00  0.00     0.020 C 
HETATM    6  C6  UNL     1      26.304   2.819  49.827  1.00  0.00     0.114 C 
HETATM    7  N1  UNL     1      26.719   2.178  51.016  1.00  0.00    -0.278 N 
HETATM    8  O1  UNL     1      25.961   1.593  51.984  1.00  0.00    -0.279 OA
HETATM    9  C7  UNL     1      24.621   1.729  51.686  1.00  0.00     0.227 C 
HETATM   10  C8  UNL     1      23.686   1.415  52.826  1.00  0.00     0.204 C 
HETATM   11  O2  UNL     1      22.378   1.624  52.324  1.00  0.00    -0.350 OA
HETATM   12  C9  UNL     1      22.049   2.908  51.797  1.00  0.00     0.087 A 
HETATM   13  C10 UNL     1      22.682   3.953  52.426  1.00  0.00     0.087 A 
HETATM   14  C11 UNL     1      22.626   5.308  52.207  1.00  0.00     0.042 A 
HETATM   15  C12 UNL     1      21.783   4.909  51.254  1.00  0.00     0.090 A 
HETATM   16  C13 UNL     1      20.961   4.339  50.346  1.00  0.00     0.046 A 
HETATM   17  C14 UNL     1      21.144   2.986  50.719  1.00  0.00     0.097 A 
HETATM   18  N2  UNL     1      21.642   6.234  50.875  1.00  0.00    -0.267 NA
HETATM   19  C18 UNL     1      22.379   7.107  50.273  1.00  0.00     0.228 C 
HETATM   20  N3  UNL     1      23.113   8.111  49.627  1.00  0.00    -0.240 NA
HETATM   21  C19 UNL     1      24.240   8.426  50.237  1.00  0.00     0.088 C 
HETATM   22  C20 UNL     1      24.957   7.311  50.479  1.00  0.00     0.054 C 
HETATM   23  H5  UNL     1      27.728   2.126  51.212  1.00  0.00     0.193 HD
ENDROOT
BRANCH  17  24
HETATM   24  O3  UNL     1      20.682   1.819  50.308  1.00  0.00    -0.347 OA
BRANCH  24  25
HETATM   25  C15 UNL     1      19.623   1.019  50.161  1.00  0.00     0.201 C 
BRANCH  25  26
HETATM   26  C16 UNL     1      18.869   0.817  51.441  1.00  0.00     0.193 C 
BRANCH  26  27
HETATM   27  O4  UNL     1      19.349  -0.236  52.166  1.00  0.00    -0.394 OA
HETATM   28  C17 UNL     1      18.358  -0.832  52.935  1.00  0.00     0.201 C 
ENDBRANCH  26  27
ENDBRANCH  25  26
ENDBRANCH  24  25
ENDBRANCH  17  24
TORSDOF 4
ENDMDL
MODEL 8
REMARK VINA RESULT:      -6.4      4.535      7.023
REMARK  4 active torsions:
REMARK  status: ('A' for Active; 'I' for Inactive)
REMARK    1  A    between atoms: C14_17  and  O3_18 
REMARK    2  A    between atoms: O3_18  and  C15_19 
REMARK    3  A    between atoms: C15_19  and  C16_20 
REMARK    4  A    between atoms: C16_20  and  O4_21 
ROOT
HETATM    1  C1  UNL     1      27.200   8.546  45.807  1.00  0.00     0.018 C 
HETATM    2  C2  UNL     1      27.118   8.161  46.961  1.00  0.00    -0.078 C 
HETATM    3  C3  UNL     1      27.033   7.719  48.357  1.00  0.00     0.019 C 
HETATM    4  C4  UNL     1      26.973   6.393  48.430  1.00  0.00     0.022 C 
HETATM    5  C5  UNL     1      26.885   5.181  49.172  1.00  0.00     0.020 C 
HETATM    6  C6  UNL     1      26.822   3.885  49.430  1.00  0.00     0.114 C 
HETATM    7  N1  UNL     1      26.723   3.303  50.713  1.00  0.00    -0.278 N 
HETATM    8  O1  UNL     1      25.621   3.135  51.495  1.00  0.00    -0.279 OA
HETATM    9  C7  UNL     1      24.511   3.669  50.875  1.00  0.00     0.227 C 
HETATM   10  C8  UNL     1      23.308   3.835  51.768  1.00  0.00     0.204 C 
HETATM   11  O2  UNL     1      22.295   4.401  50.953  1.00  0.00    -0.350 OA
HETATM   12  C9  UNL     1      22.562   5.641  50.301  1.00  0.00     0.087 A 
HETATM   13  C10 UNL     1      23.376   6.488  51.014  1.00  0.00     0.087 A 
HETATM   14  C11 UNL     1      23.851   7.744  50.722  1.00  0.00     0.042 A 
HETATM   15  C12 UNL     1      23.142   7.528  49.614  1.00  0.00     0.090 A 
HETATM   16  C13 UNL     1      22.383   7.151  48.562  1.00  0.00     0.046 A 
HETATM   17  C14 UNL     1      21.992   5.875  49.032  1.00  0.00     0.097 A 
HETATM   18  N2  UNL     1      23.562   8.763  49.148  1.00  0.00    -0.267 NA
HETATM   19  C18 UNL     1      24.670   9.255  48.702  1.00  0.00     0.228 C 
HETATM   20  N3  UNL     1      25.831   9.864  48.206  1.00  0.00    -0.240 NA
HETATM   21  C19 UNL     1      26.841   9.862  49.055  1.00  0.00     0.088 C 
HETATM   22  C20 UNL     1      27.048   8.614  49.517  1.00  0.00     0.054 C 
HETATM   23  H5  UNL     1      27.583   2.944  51.151  1.00  0.00     0.193 HD
ENDROOT
BRANCH  17  24
HETATM   24  O3  UNL     1      21.244   4.885  48.579  1.00  0.00    -0.347 OA
BRANCH  24  25
HETATM   25  C15 UNL     1      20.755   4.244  47.515  1.00  0.00     0.201 C 
BRANCH  25  26
HETATM   26  C16 UNL     1      21.659   3.149  47.034  1.00  0.00     0.193 C 
BRANCH  26  27
HETATM   27  O4  UNL     1      22.365   2.574  48.052  1.00  0.00    -0.394 OA
HETATM   28  C17 UNL     1      21.814   1.361  48.446  1.00  0.00     0.201 C 
ENDBRANCH  26  27
ENDBRANCH  25  26
ENDBRANCH  24  25
ENDBRANCH  17  24
TORSDOF 4
ENDMDL
MODEL 9
REMARK VINA RESULT:      -6.3     10.535     12.989
REMARK  4 active torsions:
REMARK  status: ('A' for Active; 'I' for Inactive)
REMARK    1  A    between atoms: C14_17  and  O3_18 
REMARK    2  A    between atoms: O3_18  and  C15_19 
REMARK    3  A    between atoms: C15_19  and  C16_20 
REMARK    4  A    between atoms: C16_20  and  O4_21 
ROOT
HETATM    1  C1  UNL     1      32.693   4.106  40.955  1.00  0.00     0.018 C 
HETATM    2  C2  UNL     1      33.388   4.594  41.829  1.00  0.00    -0.078 C 
HETATM    3  C3  UNL     1      34.244   5.185  42.864  1.00  0.00     0.019 C 
HETATM    4  C4  UNL     1      34.024   4.612  44.043  1.00  0.00     0.022 C 
HETATM    5  C5  UNL     1      34.279   4.475  45.437  1.00  0.00     0.020 C 
HETATM    6  C6  UNL     1      34.194   4.020  46.676  1.00  0.00     0.114 C 
HETATM    7  N1  UNL     1      34.935   4.491  47.782  1.00  0.00    -0.278 N 
HETATM    8  O1  UNL     1      34.709   5.584  48.563  1.00  0.00    -0.279 OA
HETATM    9  C7  UNL     1      33.604   6.273  48.108  1.00  0.00     0.227 C 
HETATM   10  C8  UNL     1      33.446   7.658  48.680  1.00  0.00     0.204 C 
HETATM   11  O2  UNL     1      32.275   8.192  48.086  1.00  0.00    -0.350 OA
HETATM   12  C9  UNL     1      32.210   8.269  46.663  1.00  0.00     0.087 A 
HETATM   13  C10 UNL     1      33.419   8.512  46.057  1.00  0.00     0.087 A 
HETATM   14  C11 UNL     1      33.755   8.648  44.732  1.00  0.00     0.042 A 
HETATM   15  C12 UNL     1      32.447   8.431  44.593  1.00  0.00     0.090 A 
HETATM   16  C13 UNL     1      31.116   8.200  44.629  1.00  0.00     0.046 A 
HETATM   17  C14 UNL     1      30.961   8.093  46.032  1.00  0.00     0.097 A 
HETATM   18  N2  UNL     1      32.619   8.500  43.220  1.00  0.00    -0.267 NA
HETATM   19  C18 UNL     1      33.143   7.744  42.315  1.00  0.00     0.228 C 
HETATM   20  N3  UNL     1      33.690   6.982  41.272  1.00  0.00    -0.240 NA
HETATM   21  C19 UNL     1      34.982   6.746  41.402  1.00  0.00     0.088 C 
HETATM   22  C20 UNL     1      35.234   6.238  42.624  1.00  0.00     0.054 C 
HETATM   23  H5  UNL     1      35.771   3.961  48.067  1.00  0.00     0.193 HD
ENDROOT
BRANCH  17  24
HETATM   24  O3  UNL     1      29.957   7.873  46.861  1.00  0.00    -0.347 OA
BRANCH  24  25
HETATM   25  C15 UNL     1      29.062   7.003  47.335  1.00  0.00     0.201 C 
BRANCH  25  26
HETATM   26  C16 UNL     1      29.688   5.927  48.171  1.00  0.00     0.193 C 
BRANCH  26  27
HETATM   27  O4  UNL     1      28.901   4.814  48.258  1.00  0.00    -0.394 OA
HETATM   28  C17 UNL     1      27.600   5.125  48.629  1.00  0.00     0.201 C 
ENDBRANCH  26  27
ENDBRANCH  25  26
ENDBRANCH  24  25
ENDBRANCH  17  24
TORSDOF 4
ENDMDL
