MODEL 1
REMARK VINA RESULT:      -8.0      0.000      0.000
REMARK  5 active torsions:
REMARK  status: ('A' for Active; 'I' for Inactive)
REMARK    1  A    between atoms: C2_2  and  C3_3 
REMARK    2  A    between atoms: C7_7  and  N1_8 
REMARK    3  A    between atoms: N3_12  and  C10_13 
REMARK    4  A    between atoms: C10_13  and  C11_14 
REMARK    5  A    between atoms: C15_19  and  O2_20 
ROOT
HETATM    1  N1  UNL     1      23.765   4.410  50.299  1.00  0.00    -0.169 N 
HETATM    2  N2  UNL     1      23.426   4.555  51.647  1.00  0.00    -0.164 NA
HETATM    3  C8  UNL     1      22.418   3.806  51.946  1.00  0.00     0.172 A 
HETATM    4  C9  UNL     1      21.932   3.045  50.807  1.00  0.00     0.391 A 
HETATM    5  N3  UNL     1      21.882   1.631  50.903  1.00  0.00     0.138 NA
HETATM    6  C17 UNL     1      21.633   0.988  49.654  1.00  0.00     0.425 C 
HETATM    7  N4  UNL     1      22.059   1.659  48.476  1.00  0.00    -0.253 NA
HETATM    8  C18 UNL     1      22.631   2.807  48.549  1.00  0.00     0.227 C 
HETATM    9  N5  UNL     1      22.880   3.482  49.765  1.00  0.00    -0.224 N 
ENDROOT
BRANCH   5  10
HETATM   10  C10 UNL     1      22.928   1.125  51.706  1.00  0.00     0.291 C 
BRANCH  10  11
HETATM   11  C11 UNL     1      22.600   0.057  52.685  1.00  0.00     0.092 C 
HETATM   12  C12 UNL     1      21.492   0.469  53.626  1.00  0.00    -0.018 C 
HETATM   13  C13 UNL     1      21.295  -0.245  54.732  1.00  0.00    -0.004 C 
HETATM   14  C14 UNL     1      22.287  -1.367  54.787  1.00  0.00     0.198 C 
HETATM   15  O1  UNL     1      23.585  -0.931  54.672  1.00  0.00    -0.357 OA
HETATM   16  C15 UNL     1      23.819  -0.091  53.609  1.00  0.00     0.268 C 
BRANCH  16  17
HETATM   17  O2  UNL     1      24.957  -0.474  52.918  1.00  0.00    -0.365 OA
HETATM   18  C16 UNL     1      26.113  -0.275  53.668  1.00  0.00     0.204 C 
ENDBRANCH  16  17
ENDBRANCH  10  11
ENDBRANCH   5  10
BRANCH   1  19
HETATM   19  C7  UNL     1      24.814   5.064  49.628  1.00  0.00     0.078 A 
HETATM   20  C6  UNL     1      24.435   6.300  49.097  1.00  0.00     0.033 A 
HETATM   21  C5  UNL     1      25.272   7.139  48.375  1.00  0.00     0.003 A 
HETATM   22  C4  UNL     1      26.572   6.745  48.153  1.00  0.00     0.011 A 
HETATM   23  C3  UNL     1      26.979   5.534  48.660  1.00  0.00    -0.035 A 
HETATM   24  C19 UNL     1      26.109   4.741  49.369  1.00  0.00     0.044 A 
BRANCH  23  25
HETATM   25  C2  UNL     1      28.335   5.047  48.469  1.00  0.00     0.001 C 
HETATM   26  C1  UNL     1      29.344   5.795  48.091  1.00  0.00     0.012 C 
ENDBRANCH  23  25
ENDBRANCH   1  19
TORSDOF 5
ENDMDL
MODEL 2
REMARK VINA RESULT:      -7.5      3.047      6.951
REMARK  5 active torsions:
REMARK  status: ('A' for Active; 'I' for Inactive)
REMARK    1  A    between atoms: C2_2  and  C3_3 
REMARK    2  A    between atoms: C7_7  and  N1_8 
REMARK    3  A    between atoms: N3_12  and  C10_13 
REMARK    4  A    between atoms: C10_13  and  C11_14 
REMARK    5  A    between atoms: C15_19  and  O2_20 
ROOT
HETATM    1  N1  UNL     1      20.442   1.336  50.268  1.00  0.00    -0.169 N 
HETATM    2  N2  UNL     1      21.200   1.001  49.143  1.00  0.00    -0.164 NA
HETATM    3  C8  UNL     1      22.191   1.817  49.002  1.00  0.00     0.172 A 
HETATM    4  C9  UNL     1      22.224   2.836  50.038  1.00  0.00     0.391 A 
HETATM    5  N3  UNL     1      23.388   2.957  50.838  1.00  0.00     0.138 NA
HETATM    6  C17 UNL     1      23.210   3.809  51.969  1.00  0.00     0.425 C 
HETATM    7  N4  UNL     1      21.899   3.919  52.506  1.00  0.00    -0.253 NA
HETATM    8  C18 UNL     1      20.919   3.282  51.973  1.00  0.00     0.227 C 
HETATM    9  N5  UNL     1      21.053   2.443  50.843  1.00  0.00    -0.224 N 
ENDROOT
BRANCH   5  10
HETATM   10  C10 UNL     1      24.009   1.706  51.048  1.00  0.00     0.291 C 
BRANCH  10  11
HETATM   11  C11 UNL     1      24.861   1.545  52.254  1.00  0.00     0.092 C 
HETATM   12  C12 UNL     1      26.263   1.101  51.905  1.00  0.00    -0.018 C 
HETATM   13  C13 UNL     1      27.043   0.629  52.875  1.00  0.00    -0.004 C 
HETATM   14  C14 UNL     1      26.295   0.649  54.173  1.00  0.00     0.198 C 
HETATM   15  O1  UNL     1      25.093  -0.012  54.101  1.00  0.00    -0.357 OA
HETATM   16  C15 UNL     1      24.294   0.355  53.045  1.00  0.00     0.268 C 
BRANCH  16  17
HETATM   17  O2  UNL     1      22.993   0.576  53.463  1.00  0.00    -0.365 OA
HETATM   18  C16 UNL     1      22.261  -0.606  53.533  1.00  0.00     0.204 C 
ENDBRANCH  16  17
ENDBRANCH  10  11
ENDBRANCH   5  10
BRANCH   1  19
HETATM   19  C7  UNL     1      19.298   0.663  50.733  1.00  0.00     0.078 A 
HETATM   20  C6  UNL     1      18.217   0.751  49.850  1.00  0.00     0.033 A 
HETATM   21  C5  UNL     1      16.967   0.191  50.074  1.00  0.00     0.003 A 
HETATM   22  C4  UNL     1      16.753  -0.502  51.243  1.00  0.00     0.011 A 
HETATM   23  C3  UNL     1      17.793  -0.607  52.135  1.00  0.00    -0.035 A 
HETATM   24  C19 UNL     1      19.012  -0.035  51.865  1.00  0.00     0.044 A 
BRANCH  23  25
HETATM   25  C2  UNL     1      17.647  -1.324  53.392  1.00  0.00     0.001 C 
HETATM   26  C1  UNL     1      18.075  -2.545  53.603  1.00  0.00     0.012 C 
ENDBRANCH  23  25
ENDBRANCH   1  19
TORSDOF 5
ENDMDL
MODEL 3
REMARK VINA RESULT:      -7.4      2.169      6.671
REMARK  5 active torsions:
REMARK  status: ('A' for Active; 'I' for Inactive)
REMARK    1  A    between atoms: C2_2  and  C3_3 
REMARK    2  A    between atoms: C7_7  and  N1_8 
REMARK    3  A    between atoms: N3_12  and  C10_13 
REMARK    4  A    between atoms: C10_13  and  C11_14 
REMARK    5  A    between atoms: C15_19  and  O2_20 
ROOT
HETATM    1  N1  UNL     1      21.570   1.075  51.110  1.00  0.00    -0.169 N 
HETATM    2  N2  UNL     1      21.547   0.599  49.796  1.00  0.00    -0.164 NA
HETATM    3  C8  UNL     1      21.021   1.473  49.004  1.00  0.00     0.172 A 
HETATM    4  C9  UNL     1      20.607   2.679  49.702  1.00  0.00     0.391 A 
HETATM    5  N3  UNL     1      21.140   3.925  49.285  1.00  0.00     0.138 NA
HETATM    6  C17 UNL     1      20.861   4.991  50.193  1.00  0.00     0.425 C 
HETATM    7  N4  UNL     1      20.684   4.655  51.562  1.00  0.00    -0.253 NA
HETATM    8  C18 UNL     1      20.760   3.433  51.950  1.00  0.00     0.227 C 
HETATM    9  N5  UNL     1      21.017   2.349  51.079  1.00  0.00    -0.224 N 
ENDROOT
BRANCH   5  10
HETATM   10  C10 UNL     1      22.464   3.794  48.811  1.00  0.00     0.291 C 
BRANCH  10  11
HETATM   11  C11 UNL     1      23.491   4.722  49.349  1.00  0.00     0.092 C 
HETATM   12  C12 UNL     1      23.954   5.720  48.314  1.00  0.00    -0.018 C 
HETATM   13  C13 UNL     1      25.069   6.410  48.546  1.00  0.00    -0.004 C 
HETATM   14  C14 UNL     1      25.642   6.006  49.869  1.00  0.00     0.198 C 
HETATM   15  O1  UNL     1      25.837   4.649  49.968  1.00  0.00    -0.357 OA
HETATM   16  C15 UNL     1      24.749   3.883  49.626  1.00  0.00     0.268 C 
BRANCH  16  17
HETATM   17  O2  UNL     1      24.523   2.895  50.570  1.00  0.00    -0.365 OA
HETATM   18  C16 UNL     1      25.701   2.487  51.189  1.00  0.00     0.204 C 
ENDBRANCH  16  17
ENDBRANCH  10  11
ENDBRANCH   5  10
BRANCH   1  19
HETATM   19  C7  UNL     1      22.077   0.399  52.233  1.00  0.00     0.078 A 
HETATM   20  C6  UNL     1      21.076  -0.178  53.020  1.00  0.00     0.033 A 
HETATM   21  C5  UNL     1      21.304  -0.887  54.191  1.00  0.00     0.003 A 
HETATM   22  C4  UNL     1      22.599  -1.044  54.629  1.00  0.00     0.011 A 
HETATM   23  C3  UNL     1      23.609  -0.489  53.880  1.00  0.00    -0.035 A 
HETATM   24  C19 UNL     1      23.330   0.203  52.726  1.00  0.00     0.044 A 
BRANCH  23  25
HETATM   25  C2  UNL     1      25.003  -0.611  54.274  1.00  0.00     0.001 C 
HETATM   26  C1  UNL     1      25.997  -0.784  53.437  1.00  0.00     0.012 C 
ENDBRANCH  23  25
ENDBRANCH   1  19
TORSDOF 5
ENDMDL
MODEL 4
REMARK VINA RESULT:      -7.4      3.323      6.366
REMARK  5 active torsions:
REMARK  status: ('A' for Active; 'I' for Inactive)
REMARK    1  A    between atoms: C2_2  and  C3_3 
REMARK    2  A    between atoms: C7_7  and  N1_8 
REMARK    3  A    between atoms: N3_12  and  C10_13 
REMARK    4  A    between atoms: C10_13  and  C11_14 
REMARK    5  A    between atoms: C15_19  and  O2_20 
ROOT
HETATM    1  N1  UNL     1      25.540   1.950  51.507  1.00  0.00    -0.169 N 
HETATM    2  N2  UNL     1      25.626   2.898  50.483  1.00  0.00    -0.164 NA
HETATM    3  C8  UNL     1      24.451   3.204  50.046  1.00  0.00     0.172 A 
HETATM    4  C9  UNL     1      23.394   2.480  50.733  1.00  0.00     0.391 A 
HETATM    5  N3  UNL     1      22.376   3.217  51.386  1.00  0.00     0.138 NA
HETATM    6  C17 UNL     1      21.547   2.414  52.227  1.00  0.00     0.425 C 
HETATM    7  N4  UNL     1      22.126   1.245  52.791  1.00  0.00    -0.253 NA
HETATM    8  C18 UNL     1      23.343   0.928  52.532  1.00  0.00     0.227 C 
HETATM    9  N5  UNL     1      24.188   1.689  51.691  1.00  0.00    -0.224 N 
ENDROOT
BRANCH   5  10
HETATM   10  C10 UNL     1      22.866   4.432  51.913  1.00  0.00     0.291 C 
BRANCH  10  11
HETATM   11  C11 UNL     1      22.171   5.688  51.531  1.00  0.00     0.092 C 
HETATM   12  C12 UNL     1      21.021   5.436  50.584  1.00  0.00    -0.018 C 
HETATM   13  C13 UNL     1      20.500   6.467  49.923  1.00  0.00    -0.004 C 
HETATM   14  C14 UNL     1      21.226   7.722  50.301  1.00  0.00     0.198 C 
HETATM   15  O1  UNL     1      22.585   7.621  50.122  1.00  0.00    -0.357 OA
HETATM   16  C15 UNL     1      23.159   6.507  50.687  1.00  0.00     0.268 C 
BRANCH  16  17
HETATM   17  O2  UNL     1      24.300   6.844  51.395  1.00  0.00    -0.365 OA
HETATM   18  C16 UNL     1      25.342   7.227  50.555  1.00  0.00     0.204 C 
ENDBRANCH  16  17
ENDBRANCH  10  11
ENDBRANCH   5  10
BRANCH   1  19
HETATM   19  C7  UNL     1      26.616   1.394  52.220  1.00  0.00     0.078 A 
HETATM   20  C6  UNL     1      27.446   2.359  52.796  1.00  0.00     0.033 A 
HETATM   21  C5  UNL     1      28.586   2.079  53.537  1.00  0.00     0.003 A 
HETATM   22  C4  UNL     1      28.944   0.765  53.730  1.00  0.00     0.011 A 
HETATM   23  C3  UNL     1      28.150  -0.211  53.176  1.00  0.00    -0.035 A 
HETATM   24  C19 UNL     1      27.031   0.119  52.451  1.00  0.00     0.044 A 
BRANCH  23  25
HETATM   25  C2  UNL     1      28.460  -1.623  53.334  1.00  0.00     0.001 C 
HETATM   26  C1  UNL     1      29.675  -2.110  53.422  1.00  0.00     0.012 C 
ENDBRANCH  23  25
ENDBRANCH   1  19
TORSDOF 5
ENDMDL
MODEL 5
REMARK VINA RESULT:      -7.4      2.694      5.407
REMARK  5 active torsions:
REMARK  status: ('A' for Active; 'I' for Inactive)
REMARK    1  A    between atoms: C2_2  and  C3_3 
REMARK    2  A    between atoms: C7_7  and  N1_8 
REMARK    3  A    between atoms: N3_12  and  C10_13 
REMARK    4  A    between atoms: C10_13  and  C11_14 
REMARK    5  A    between atoms: C15_19  and  O2_20 
ROOT
HETATM    1  N1  UNL     1      26.043   2.223  52.847  1.00  0.00    -0.169 N 
HETATM    2  N2  UNL     1      24.924   2.413  53.664  1.00  0.00    -0.164 NA
HETATM    3  C8  UNL     1      24.042   3.140  53.064  1.00  0.00     0.172 A 
HETATM    4  C9  UNL     1      24.465   3.548  51.735  1.00  0.00     0.391 A 
HETATM    5  N3  UNL     1      23.650   3.209  50.626  1.00  0.00     0.138 NA
HETATM    6  C17 UNL     1      24.284   3.437  49.368  1.00  0.00     0.425 C 
HETATM    7  N4  UNL     1      25.703   3.358  49.327  1.00  0.00    -0.253 NA
HETATM    8  C18 UNL     1      26.374   3.105  50.391  1.00  0.00     0.227 C 
HETATM    9  N5  UNL     1      25.783   2.891  51.658  1.00  0.00    -0.224 N 
ENDROOT
BRANCH   5  10
HETATM   10  C10 UNL     1      22.994   1.973  50.818  1.00  0.00     0.291 C 
BRANCH  10  11
HETATM   11  C11 UNL     1      21.511   1.975  50.887  1.00  0.00     0.092 C 
HETATM   12  C12 UNL     1      20.953   3.364  51.093  1.00  0.00    -0.018 C 
HETATM   13  C13 UNL     1      19.683   3.493  51.472  1.00  0.00    -0.004 C 
HETATM   14  C14 UNL     1      19.064   2.137  51.616  1.00  0.00     0.198 C 
HETATM   15  O1  UNL     1      19.778   1.315  52.454  1.00  0.00    -0.357 OA
HETATM   16  C15 UNL     1      21.122   1.238  52.178  1.00  0.00     0.268 C 
BRANCH  16  17
HETATM   17  O2  UNL     1      21.552  -0.079  52.179  1.00  0.00    -0.365 OA
HETATM   18  C16 UNL     1      22.081  -0.453  53.411  1.00  0.00     0.204 C 
ENDBRANCH  16  17
ENDBRANCH  10  11
ENDBRANCH   5  10
BRANCH   1  19
HETATM   19  C7  UNL     1      27.192   1.479  53.168  1.00  0.00     0.078 A 
HETATM   20  C6  UNL     1      28.228   2.268  53.678  1.00  0.00     0.033 A 
HETATM   21  C5  UNL     1      29.473   1.787  54.056  1.00  0.00     0.003 A 
HETATM   22  C4  UNL     1      29.730   0.441  53.928  1.00  0.00     0.011 A 
HETATM   23  C3  UNL     1      28.734  -0.365  53.429  1.00  0.00    -0.035 A 
HETATM   24  C19 UNL     1      27.517   0.162  53.069  1.00  0.00     0.044 A 
BRANCH  23  25
HETATM   25  C2  UNL     1      28.926  -1.797  53.263  1.00  0.00     0.001 C 
HETATM   26  C1  UNL     1      28.011  -2.620  52.811  1.00  0.00     0.012 C 
ENDBRANCH  23  25
ENDBRANCH   1  19
TORSDOF 5
ENDMDL
MODEL 6
REMARK VINA RESULT:      -7.3      2.972      4.864
REMARK  5 active torsions:
REMARK  status: ('A' for Active; 'I' for Inactive)
REMARK    1  A    between atoms: C2_2  and  C3_3 
REMARK    2  A    between atoms: C7_7  and  N1_8 
REMARK    3  A    between atoms: N3_12  and  C10_13 
REMARK    4  A    between atoms: C10_13  and  C11_14 
REMARK    5  A    between atoms: C15_19  and  O2_20 
ROOT
HETATM    1  N1  UNL     1      24.736   2.826  52.544  1.00  0.00    -0.169 N 
HETATM    2  N2  UNL     1      24.303   3.759  53.491  1.00  0.00    -0.164 NA
HETATM    3  C8  UNL     1      23.477   4.597  52.960  1.00  0.00     0.172 A 
HETATM    4  C9  UNL     1      23.246   4.333  51.549  1.00  0.00     0.391 A 
HETATM    5  N3  UNL     1      21.919   4.103  51.107  1.00  0.00     0.138 NA
HETATM    6  C17 UNL     1      21.846   3.613  49.768  1.00  0.00     0.425 C 
HETATM    7  N4  UNL     1      22.953   2.864  49.285  1.00  0.00    -0.253 NA
HETATM    8  C18 UNL     1      23.978   2.659  50.030  1.00  0.00     0.227 C 
HETATM    9  N5  UNL     1      24.094   3.143  51.354  1.00  0.00    -0.224 N 
ENDROOT
BRANCH   5  10
HETATM   10  C10 UNL     1      21.147   3.447  52.091  1.00  0.00     0.291 C 
BRANCH  10  11
HETATM   11  C11 UNL     1      20.373   2.247  51.684  1.00  0.00     0.092 C 
HETATM   12  C12 UNL     1      18.911   2.560  51.465  1.00  0.00    -0.018 C 
HETATM   13  C13 UNL     1      18.045   1.551  51.394  1.00  0.00    -0.004 C 
HETATM   14  C14 UNL     1      18.775   0.253  51.559  1.00  0.00     0.198 C 
HETATM   15  O1  UNL     1      19.530   0.213  52.707  1.00  0.00    -0.357 OA
HETATM   16  C15 UNL     1      20.360   1.294  52.889  1.00  0.00     0.268 C 
BRANCH  16  17
HETATM   17  O2  UNL     1      21.633   0.885  53.248  1.00  0.00    -0.365 OA
HETATM   18  C16 UNL     1      21.610  -0.036  54.291  1.00  0.00     0.204 C 
ENDBRANCH  16  17
ENDBRANCH  10  11
ENDBRANCH   5  10
BRANCH   1  19
HETATM   19  C7  UNL     1      25.629   1.764  52.768  1.00  0.00     0.078 A 
HETATM   20  C6  UNL     1      25.004   0.513  52.758  1.00  0.00     0.033 A 
HETATM   21  C5  UNL     1      25.653  -0.694  52.971  1.00  0.00     0.003 A 
HETATM   22  C4  UNL     1      27.008  -0.685  53.211  1.00  0.00     0.011 A 
HETATM   23  C3  UNL     1      27.655   0.527  53.228  1.00  0.00    -0.035 A 
HETATM   24  C19 UNL     1      26.966   1.696  53.012  1.00  0.00     0.044 A 
BRANCH  23  25
HETATM   25  C2  UNL     1      29.085   0.622  53.475  1.00  0.00     0.001 C 
HETATM   26  C1  UNL     1      29.892  -0.409  53.561  1.00  0.00     0.012 C 
ENDBRANCH  23  25
ENDBRANCH   1  19
TORSDOF 5
ENDMDL
MODEL 7
REMARK VINA RESULT:      -7.3      2.675      6.667
REMARK  5 active torsions:
REMARK  status: ('A' for Active; 'I' for Inactive)
REMARK    1  A    between atoms: C2_2  and  C3_3 
REMARK    2  A    between atoms: C7_7  and  N1_8 
REMARK    3  A    between atoms: N3_12  and  C10_13 
REMARK    4  A    between atoms: C10_13  and  C11_14 
REMARK    5  A    between atoms: C15_19  and  O2_20 
ROOT
HETATM    1  N1  UNL     1      23.613   3.405  52.081  1.00  0.00    -0.169 N 
HETATM    2  N2  UNL     1      22.627   4.326  52.443  1.00  0.00    -0.164 NA
HETATM    3  C8  UNL     1      22.840   5.467  51.877  1.00  0.00     0.172 A 
HETATM    4  C9  UNL     1      24.030   5.462  51.043  1.00  0.00     0.391 A 
HETATM    5  N3  UNL     1      23.905   5.803  49.673  1.00  0.00     0.138 NA
HETATM    6  C17 UNL     1      25.078   5.521  48.911  1.00  0.00     0.425 C 
HETATM    7  N4  UNL     1      25.912   4.463  49.362  1.00  0.00    -0.253 NA
HETATM    8  C18 UNL     1      25.617   3.805  50.424  1.00  0.00     0.227 C 
HETATM    9  N5  UNL     1      24.474   4.066  51.214  1.00  0.00    -0.224 N 
ENDROOT
BRANCH   5  10
HETATM   10  C10 UNL     1      22.662   5.391  49.144  1.00  0.00     0.291 C 
BRANCH  10  11
HETATM   11  C11 UNL     1      22.620   4.946  47.728  1.00  0.00     0.092 C 
HETATM   12  C12 UNL     1      21.612   5.726  46.916  1.00  0.00    -0.018 C 
HETATM   13  C13 UNL     1      21.246   5.252  45.727  1.00  0.00    -0.004 C 
HETATM   14  C14 UNL     1      21.969   3.969  45.455  1.00  0.00     0.198 C 
HETATM   15  O1  UNL     1      21.803   3.045  46.459  1.00  0.00    -0.357 OA
HETATM   16  C15 UNL     1      22.055   3.517  47.725  1.00  0.00     0.268 C 
BRANCH  16  17
HETATM   17  O2  UNL     1      22.857   2.635  48.430  1.00  0.00    -0.365 OA
HETATM   18  C16 UNL     1      22.109   1.657  49.080  1.00  0.00     0.204 C 
ENDBRANCH  16  17
ENDBRANCH  10  11
ENDBRANCH   5  10
BRANCH   1  19
HETATM   19  C7  UNL     1      23.697   2.065  52.499  1.00  0.00     0.078 A 
HETATM   20  C6  UNL     1      22.445   1.488  52.735  1.00  0.00     0.033 A 
HETATM   21  C5  UNL     1      22.246   0.186  53.172  1.00  0.00     0.003 A 
HETATM   22  C4  UNL     1      23.344  -0.612  53.396  1.00  0.00     0.011 A 
HETATM   23  C3  UNL     1      24.591  -0.077  53.176  1.00  0.00    -0.035 A 
HETATM   24  C19 UNL     1      24.733   1.219  52.743  1.00  0.00     0.044 A 
BRANCH  23  25
HETATM   25  C2  UNL     1      25.800  -0.855  53.390  1.00  0.00     0.001 C 
HETATM   26  C1  UNL     1      26.694  -1.105  52.463  1.00  0.00     0.012 C 
ENDBRANCH  23  25
ENDBRANCH   1  19
TORSDOF 5
ENDMDL
MODEL 8
REMARK VINA RESULT:      -7.1      3.341      7.028
REMARK  5 active torsions:
REMARK  status: ('A' for Active; 'I' for Inactive)
REMARK    1  A    between atoms: C2_2  and  C3_3 
REMARK    2  A    between atoms: C7_7  and  N1_8 
REMARK    3  A    between atoms: N3_12  and  C10_13 
REMARK    4  A    between atoms: C10_13  and  C11_14 
REMARK    5  A    between atoms: C15_19  and  O2_20 
ROOT
HETATM    1  N1  UNL     1      20.368   1.822  52.466  1.00  0.00    -0.169 N 
HETATM    2  N2  UNL     1      19.068   1.505  52.062  1.00  0.00    -0.164 NA
HETATM    3  C8  UNL     1      18.477   2.542  51.570  1.00  0.00     0.172 A 
HETATM    4  C9  UNL     1      19.323   3.724  51.584  1.00  0.00     0.391 A 
HETATM    5  N3  UNL     1      19.586   4.390  50.361  1.00  0.00     0.138 NA
HETATM    6  C17 UNL     1      20.617   5.372  50.462  1.00  0.00     0.425 C 
HETATM    7  N4  UNL     1      21.616   5.171  51.453  1.00  0.00    -0.253 NA
HETATM    8  C18 UNL     1      21.570   4.150  52.230  1.00  0.00     0.227 C 
HETATM    9  N5  UNL     1      20.556   3.167  52.172  1.00  0.00    -0.224 N 
ENDROOT
BRANCH   5  10
HETATM   10  C10 UNL     1      19.640   3.487  49.276  1.00  0.00     0.291 C 
BRANCH  10  11
HETATM   11  C11 UNL     1      20.554   3.807  48.150  1.00  0.00     0.092 C 
HETATM   12  C12 UNL     1      19.822   3.896  46.831  1.00  0.00    -0.018 C 
HETATM   13  C13 UNL     1      20.530   3.875  45.704  1.00  0.00    -0.004 C 
HETATM   14  C14 UNL     1      21.987   3.759  46.032  1.00  0.00     0.198 C 
HETATM   15  O1  UNL     1      22.263   2.684  46.842  1.00  0.00    -0.357 OA
HETATM   16  C15 UNL     1      21.478   2.592  47.966  1.00  0.00     0.268 C 
BRANCH  16  17
HETATM   17  O2  UNL     1      22.248   2.345  49.089  1.00  0.00    -0.365 OA
HETATM   18  C16 UNL     1      23.428   3.083  49.085  1.00  0.00     0.204 C 
ENDBRANCH  16  17
ENDBRANCH  10  11
ENDBRANCH   5  10
BRANCH   1  19
HETATM   19  C7  UNL     1      21.302   0.941  53.036  1.00  0.00     0.078 A 
HETATM   20  C6  UNL     1      20.760   0.161  54.063  1.00  0.00     0.033 A 
HETATM   21  C5  UNL     1      21.471  -0.774  54.802  1.00  0.00     0.003 A 
HETATM   22  C4  UNL     1      22.805  -0.964  54.522  1.00  0.00     0.011 A 
HETATM   23  C3  UNL     1      23.371  -0.214  53.520  1.00  0.00    -0.035 A 
HETATM   24  C19 UNL     1      22.623   0.700  52.817  1.00  0.00     0.044 A 
BRANCH  23  25
HETATM   25  C2  UNL     1      24.774  -0.355  53.164  1.00  0.00     0.001 C 
HETATM   26  C1  UNL     1      25.753  -0.436  54.032  1.00  0.00     0.012 C 
ENDBRANCH  23  25
ENDBRANCH   1  19
TORSDOF 5
ENDMDL
MODEL 9
REMARK VINA RESULT:      -7.1      6.258     11.086
REMARK  5 active torsions:
REMARK  status: ('A' for Active; 'I' for Inactive)
REMARK    1  A    between atoms: C2_2  and  C3_3 
REMARK    2  A    between atoms: C7_7  and  N1_8 
REMARK    3  A    between atoms: N3_12  and  C10_13 
REMARK    4  A    between atoms: C10_13  and  C11_14 
REMARK    5  A    between atoms: C15_19  and  O2_20 
ROOT
HETATM    1  N1  UNL     1      29.277   6.943  47.668  1.00  0.00    -0.169 N 
HETATM    2  N2  UNL     1      29.344   7.832  46.592  1.00  0.00    -0.164 NA
HETATM    3  C8  UNL     1      30.553   8.255  46.426  1.00  0.00     0.172 A 
HETATM    4  C9  UNL     1      31.478   7.695  47.397  1.00  0.00     0.391 A 
HETATM    5  N3  UNL     1      32.606   6.977  46.929  1.00  0.00     0.138 NA
HETATM    6  C17 UNL     1      33.294   6.269  47.961  1.00  0.00     0.425 C 
HETATM    7  N4  UNL     1      32.532   5.849  49.085  1.00  0.00    -0.253 NA
HETATM    8  C18 UNL     1      31.278   6.116  49.162  1.00  0.00     0.227 C 
HETATM    9  N5  UNL     1      30.567   6.829  48.169  1.00  0.00    -0.224 N 
ENDROOT
BRANCH   5  10
HETATM   10  C10 UNL     1      32.324   6.284  45.731  1.00  0.00     0.291 C 
BRANCH  10  11
HETATM   11  C11 UNL     1      33.392   6.209  44.702  1.00  0.00     0.092 C 
HETATM   12  C12 UNL     1      33.029   6.972  43.449  1.00  0.00    -0.018 C 
HETATM   13  C13 UNL     1      33.734   6.755  42.342  1.00  0.00    -0.004 C 
HETATM   14  C14 UNL     1      34.795   5.733  42.617  1.00  0.00     0.198 C 
HETATM   15  O1  UNL     1      34.286   4.573  43.148  1.00  0.00    -0.357 OA
HETATM   16  C15 UNL     1      33.454   4.749  44.227  1.00  0.00     0.268 C 
BRANCH  16  17
HETATM   17  O2  UNL     1      33.781   3.878  45.252  1.00  0.00    -0.365 OA
HETATM   18  C16 UNL     1      35.153   3.844  45.489  1.00  0.00     0.204 C 
ENDBRANCH  16  17
ENDBRANCH  10  11
ENDBRANCH   5  10
BRANCH   1  19
HETATM   19  C7  UNL     1      28.126   6.282  48.132  1.00  0.00     0.078 A 
HETATM   20  C6  UNL     1      26.984   7.087  48.101  1.00  0.00     0.033 A 
HETATM   21  C5  UNL     1      25.723   6.685  48.519  1.00  0.00     0.003 A 
HETATM   22  C4  UNL     1      25.563   5.407  49.004  1.00  0.00     0.011 A 
HETATM   23  C3  UNL     1      26.665   4.588  49.050  1.00  0.00    -0.035 A 
HETATM   24  C19 UNL     1      27.893   5.035  48.623  1.00  0.00     0.044 A 
BRANCH  23  25
HETATM   25  C2  UNL     1      26.579   3.224  49.549  1.00  0.00     0.001 C 
HETATM   26  C1  UNL     1      26.383   2.907  50.806  1.00  0.00     0.012 C 
ENDBRANCH  23  25
ENDBRANCH   1  19
TORSDOF 5
ENDMDL
