MODEL 1
REMARK VINA RESULT:      -8.6      0.000      0.000
REMARK  7 active torsions:
REMARK  status: ('A' for Active; 'I' for Inactive)
REMARK    1  A    between atoms: C7_7  and  N1_8 
REMARK    2  A    between atoms: N1_8  and  C8_9 
REMARK    3  A    between atoms: C12_15  and  N3_16 
REMARK       I    between atoms: N3_16  and  C14_18 
REMARK    4  A    between atoms: C14_18  and  C15_20 
REMARK    5  A    between atoms: C15_20  and  C16_21 
REMARK    6  A    between atoms: C16_21  and  C17_22 
REMARK    7  A    between atoms: C17_22  and  N4_23 
ROOT
HETATM    1  C8  UNL     1      25.227   2.791  52.009  1.00  0.00     0.151 C 
HETATM    2  N2  UNL     1      25.399   2.122  50.820  1.00  0.00    -0.255 NA
HETATM    3  C9  UNL     1      26.210   3.119  49.955  1.00  0.00     0.112 C 
HETATM    4  C10 UNL     1      26.629   4.327  49.318  1.00  0.00     0.098 C 
HETATM    5  C11 UNL     1      26.863   5.591  48.809  1.00  0.00     0.124 C 
HETATM    6  F1  UNL     1      27.770   4.809  48.226  1.00  0.00    -0.208 F 
HETATM    7  C12 UNL     1      26.053   6.594  49.259  1.00  0.00     0.051 C 
HETATM    8  C20 UNL     1      25.143   6.499  50.399  1.00  0.00     0.083 C 
HETATM    9  C21 UNL     1      23.716   6.367  50.223  1.00  0.00     0.235 C 
HETATM   10  N5  UNL     1      22.849   5.712  51.008  1.00  0.00    -0.311 NA
HETATM   11  C22 UNL     1      23.498   5.078  52.153  1.00  0.00     0.082 C 
HETATM   12  C23 UNL     1      24.307   3.990  52.001  1.00  0.00     0.084 C 
HETATM   13  N6  UNL     1      24.091   3.705  50.643  1.00  0.00    -0.384 N 
HETATM   14  C24 UNL     1      24.753   3.393  49.465  1.00  0.00     0.156 C 
HETATM   15  H27 UNL     1      23.096   3.669  50.223  1.00  0.00     0.159 HD
ENDROOT
BRANCH   7  16
HETATM   16  N3  UNL     1      26.341   7.879  48.652  1.00  0.00    -0.320 N 
HETATM   17  C13 UNL     1      25.354   8.275  47.631  1.00  0.00     0.159 C 
HETATM   18  C14 UNL     1      27.433   8.691  48.997  1.00  0.00     0.247 C 
HETATM   19  O1  UNL     1      27.129   9.667  48.232  1.00  0.00    -0.268 OA
BRANCH  18  20
HETATM   20  C15 UNL     1      28.630   9.329  49.513  1.00  0.00     0.072 C 
BRANCH  20  21
HETATM   21  C16 UNL     1      29.934   8.987  49.303  1.00  0.00    -0.002 C 
BRANCH  21  22
HETATM   22  C17 UNL     1      31.208   8.204  49.314  1.00  0.00     0.143 C 
BRANCH  22  23
HETATM   23  N4  UNL     1      31.050   6.830  48.930  1.00  0.00    -0.418 N 
HETATM   24  C18 UNL     1      30.491   6.608  47.645  1.00  0.00     0.142 C 
HETATM   25  C19 UNL     1      32.070   5.937  49.353  1.00  0.00     0.142 C 
ENDBRANCH  22  23
ENDBRANCH  21  22
ENDBRANCH  20  21
ENDBRANCH  18  20
ENDBRANCH   7  16
BRANCH   1  26
HETATM   26  N1  UNL     1      25.801   2.474  53.267  1.00  0.00    -0.339 N 
HETATM   27  H8  UNL     1      25.656   3.156  54.042  1.00  0.00     0.167 HD
BRANCH  26  28
HETATM   28  C7  UNL     1      26.514   1.217  53.245  1.00  0.00     0.039 A 
HETATM   29  C2  UNL     1      27.893   1.250  53.387  1.00  0.00    -0.035 A 
HETATM   30  C1  UNL     1      28.606   2.523  53.577  1.00  0.00     0.050 C 
HETATM   31  C3  UNL     1      28.593   0.048  53.354  1.00  0.00     0.009 A 
HETATM   32  C4  UNL     1      27.816  -1.079  53.178  1.00  0.00     0.001 A 
HETATM   33  C5  UNL     1      26.447  -1.174  53.031  1.00  0.00     0.002 A 
HETATM   34  C6  UNL     1      25.783   0.061  53.071  1.00  0.00     0.030 A 
ENDBRANCH  26  28
ENDBRANCH   1  26
TORSDOF 7
ENDMDL
MODEL 2
REMARK VINA RESULT:      -8.5      1.839      2.635
REMARK  7 active torsions:
REMARK  status: ('A' for Active; 'I' for Inactive)
REMARK    1  A    between atoms: C7_7  and  N1_8 
REMARK    2  A    between atoms: N1_8  and  C8_9 
REMARK    3  A    between atoms: C12_15  and  N3_16 
REMARK       I    between atoms: N3_16  and  C14_18 
REMARK    4  A    between atoms: C14_18  and  C15_20 
REMARK    5  A    between atoms: C15_20  and  C16_21 
REMARK    6  A    between atoms: C16_21  and  C17_22 
REMARK    7  A    between atoms: C17_22  and  N4_23 
ROOT
HETATM    1  C8  UNL     1      22.620   2.914  51.347  1.00  0.00     0.151 C 
HETATM    2  N2  UNL     1      22.934   2.261  50.177  1.00  0.00    -0.255 NA
HETATM    3  C9  UNL     1      24.312   2.853  49.789  1.00  0.00     0.112 C 
HETATM    4  C10 UNL     1      25.355   3.792  49.525  1.00  0.00     0.098 C 
HETATM    5  C11 UNL     1      26.215   4.857  49.333  1.00  0.00     0.124 C 
HETATM    6  F1  UNL     1      26.900   3.783  48.942  1.00  0.00    -0.208 F 
HETATM    7  C12 UNL     1      25.745   6.095  49.665  1.00  0.00     0.051 C 
HETATM    8  C20 UNL     1      24.528   6.359  50.431  1.00  0.00     0.083 C 
HETATM    9  C21 UNL     1      23.321   6.834  49.797  1.00  0.00     0.235 C 
HETATM   10  N5  UNL     1      22.052   6.580  50.151  1.00  0.00    -0.311 NA
HETATM   11  C22 UNL     1      21.962   5.708  51.320  1.00  0.00     0.082 C 
HETATM   12  C23 UNL     1      22.293   4.386  51.250  1.00  0.00     0.084 C 
HETATM   13  N6  UNL     1      22.481   4.247  49.865  1.00  0.00    -0.384 N 
HETATM   14  C24 UNL     1      23.345   3.716  48.919  1.00  0.00     0.156 C 
HETATM   15  H27 UNL     1      21.765   4.636  49.155  1.00  0.00     0.159 HD
ENDROOT
BRANCH   7  16
HETATM   16  N3  UNL     1      26.694   7.159  49.402  1.00  0.00    -0.320 N 
HETATM   17  C13 UNL     1      26.379   8.410  50.115  1.00  0.00     0.159 C 
HETATM   18  C14 UNL     1      27.817   7.029  48.570  1.00  0.00     0.247 C 
HETATM   19  O1  UNL     1      28.285   8.199  48.782  1.00  0.00    -0.268 OA
BRANCH  18  20
HETATM   20  C15 UNL     1      28.885   6.652  47.660  1.00  0.00     0.072 C 
BRANCH  20  21
HETATM   21  C16 UNL     1      29.879   5.738  47.850  1.00  0.00    -0.002 C 
BRANCH  21  22
HETATM   22  C17 UNL     1      31.161   4.988  47.671  1.00  0.00     0.143 C 
BRANCH  22  23
HETATM   23  N4  UNL     1      32.236   5.468  48.491  1.00  0.00    -0.418 N 
HETATM   24  C18 UNL     1      33.296   6.114  47.805  1.00  0.00     0.142 C 
HETATM   25  C19 UNL     1      31.873   5.994  49.760  1.00  0.00     0.142 C 
ENDBRANCH  22  23
ENDBRANCH  21  22
ENDBRANCH  20  21
ENDBRANCH  18  20
ENDBRANCH   7  16
BRANCH   1  26
HETATM   26  N1  UNL     1      22.545   2.359  52.650  1.00  0.00    -0.339 N 
HETATM   27  H8  UNL     1      21.629   2.423  53.143  1.00  0.00     0.167 HD
BRANCH  26  28
HETATM   28  C7  UNL     1      23.802   1.789  53.078  1.00  0.00     0.039 A 
HETATM   29  C2  UNL     1      23.873   0.411  53.228  1.00  0.00    -0.035 A 
HETATM   30  C1  UNL     1      22.711  -0.444  52.941  1.00  0.00     0.050 C 
HETATM   31  C3  UNL     1      25.073  -0.149  53.652  1.00  0.00     0.009 A 
HETATM   32  C4  UNL     1      26.093   0.752  53.884  1.00  0.00     0.001 A 
HETATM   33  C5  UNL     1      26.082   2.125  53.752  1.00  0.00     0.002 A 
HETATM   34  C6  UNL     1      24.852   2.647  53.323  1.00  0.00     0.030 A 
ENDBRANCH  26  28
ENDBRANCH   1  26
TORSDOF 7
ENDMDL
MODEL 3
REMARK VINA RESULT:      -8.5      0.506      1.285
REMARK  7 active torsions:
REMARK  status: ('A' for Active; 'I' for Inactive)
REMARK    1  A    between atoms: C7_7  and  N1_8 
REMARK    2  A    between atoms: N1_8  and  C8_9 
REMARK    3  A    between atoms: C12_15  and  N3_16 
REMARK       I    between atoms: N3_16  and  C14_18 
REMARK    4  A    between atoms: C14_18  and  C15_20 
REMARK    5  A    between atoms: C15_20  and  C16_21 
REMARK    6  A    between atoms: C16_21  and  C17_22 
REMARK    7  A    between atoms: C17_22  and  N4_23 
ROOT
HETATM    1  C8  UNL     1      24.984   2.848  52.230  1.00  0.00     0.151 C 
HETATM    2  N2  UNL     1      25.220   2.072  51.119  1.00  0.00    -0.255 NA
HETATM    3  C9  UNL     1      26.093   2.980  50.218  1.00  0.00     0.112 C 
HETATM    4  C10 UNL     1      26.563   4.121  49.500  1.00  0.00     0.098 C 
HETATM    5  C11 UNL     1      26.842   5.332  48.892  1.00  0.00     0.124 C 
HETATM    6  F1  UNL     1      27.774   4.494  48.440  1.00  0.00    -0.208 F 
HETATM    7  C12 UNL     1      26.018   6.377  49.197  1.00  0.00     0.051 C 
HETATM    8  C20 UNL     1      25.040   6.392  50.284  1.00  0.00     0.083 C 
HETATM    9  C21 UNL     1      23.625   6.253  50.034  1.00  0.00     0.235 C 
HETATM   10  N5  UNL     1      22.704   5.678  50.821  1.00  0.00    -0.311 NA
HETATM   11  C22 UNL     1      23.276   5.149  52.057  1.00  0.00     0.082 C 
HETATM   12  C23 UNL     1      24.080   4.047  52.055  1.00  0.00     0.084 C 
HETATM   13  N6  UNL     1      23.943   3.638  50.718  1.00  0.00    -0.384 N 
HETATM   14  C24 UNL     1      24.671   3.215  49.616  1.00  0.00     0.156 C 
HETATM   15  H27 UNL     1      22.975   3.570  50.243  1.00  0.00     0.159 HD
ENDROOT
BRANCH   7  16
HETATM   16  N3  UNL     1      26.356   7.598  48.494  1.00  0.00    -0.320 N 
HETATM   17  C13 UNL     1      25.457   7.887  47.362  1.00  0.00     0.159 C 
HETATM   18  C14 UNL     1      27.417   8.447  48.847  1.00  0.00     0.247 C 
HETATM   19  O1  UNL     1      27.179   9.342  47.968  1.00  0.00    -0.268 OA
BRANCH  18  20
HETATM   20  C15 UNL     1      28.569   9.141  49.395  1.00  0.00     0.072 C 
BRANCH  20  21
HETATM   21  C16 UNL     1      29.893   8.870  49.207  1.00  0.00    -0.002 C 
BRANCH  21  22
HETATM   22  C17 UNL     1      31.209   8.162  49.247  1.00  0.00     0.143 C 
BRANCH  22  23
HETATM   23  N4  UNL     1      31.121   6.755  48.979  1.00  0.00    -0.418 N 
HETATM   24  C18 UNL     1      30.521   6.398  47.743  1.00  0.00     0.142 C 
HETATM   25  C19 UNL     1      32.212   5.960  49.420  1.00  0.00     0.142 C 
ENDBRANCH  22  23
ENDBRANCH  21  22
ENDBRANCH  20  21
ENDBRANCH  18  20
ENDBRANCH   7  16
BRANCH   1  26
HETATM   26  N1  UNL     1      25.477   2.645  53.544  1.00  0.00    -0.339 N 
HETATM   27  H8  UNL     1      24.993   3.149  54.318  1.00  0.00     0.167 HD
BRANCH  26  28
HETATM   28  C7  UNL     1      26.609   1.747  53.573  1.00  0.00     0.039 A 
HETATM   29  C2  UNL     1      26.361   0.397  53.776  1.00  0.00    -0.035 A 
HETATM   30  C1  UNL     1      24.989  -0.108  53.936  1.00  0.00     0.050 C 
HETATM   31  C3  UNL     1      27.443  -0.477  53.820  1.00  0.00     0.009 A 
HETATM   32  C4  UNL     1      28.680   0.112  53.652  1.00  0.00     0.001 A 
HETATM   33  C5  UNL     1      28.987   1.441  53.447  1.00  0.00     0.002 A 
HETATM   34  C6  UNL     1      27.867   2.285  53.410  1.00  0.00     0.030 A 
ENDBRANCH  26  28
ENDBRANCH   1  26
TORSDOF 7
ENDMDL
MODEL 4
REMARK VINA RESULT:      -8.4      3.653      7.491
REMARK  7 active torsions:
REMARK  status: ('A' for Active; 'I' for Inactive)
REMARK    1  A    between atoms: C7_7  and  N1_8 
REMARK    2  A    between atoms: N1_8  and  C8_9 
REMARK    3  A    between atoms: C12_15  and  N3_16 
REMARK       I    between atoms: N3_16  and  C14_18 
REMARK    4  A    between atoms: C14_18  and  C15_20 
REMARK    5  A    between atoms: C15_20  and  C16_21 
REMARK    6  A    between atoms: C16_21  and  C17_22 
REMARK    7  A    between atoms: C17_22  and  N4_23 
ROOT
HETATM    1  C8  UNL     1      22.871   5.704  49.737  1.00  0.00     0.151 C 
HETATM    2  N2  UNL     1      23.046   6.343  50.942  1.00  0.00    -0.255 NA
HETATM    3  C9  UNL     1      23.563   5.223  51.878  1.00  0.00     0.112 C 
HETATM    4  C10 UNL     1      23.681   3.966  52.546  1.00  0.00     0.098 C 
HETATM    5  C11 UNL     1      23.620   2.687  53.068  1.00  0.00     0.124 C 
HETATM    6  F1  UNL     1      24.596   3.292  53.745  1.00  0.00    -0.208 F 
HETATM    7  C12 UNL     1      22.685   1.849  52.533  1.00  0.00     0.051 C 
HETATM    8  C20 UNL     1      21.929   2.099  51.307  1.00  0.00     0.083 C 
HETATM    9  C21 UNL     1      20.542   2.500  51.339  1.00  0.00     0.235 C 
HETATM   10  N5  UNL     1      19.897   3.296  50.474  1.00  0.00    -0.311 NA
HETATM   11  C22 UNL     1      20.766   3.781  49.404  1.00  0.00     0.082 C 
HETATM   12  C23 UNL     1      21.746   4.699  49.644  1.00  0.00     0.084 C 
HETATM   13  N6  UNL     1      21.452   5.038  50.976  1.00  0.00    -0.384 N 
HETATM   14  C24 UNL     1      22.039   5.235  52.217  1.00  0.00     0.156 C 
HETATM   15  H27 UNL     1      20.445   5.266  51.293  1.00  0.00     0.159 HD
ENDROOT
BRANCH   7  16
HETATM   16  N3  UNL     1      22.663   0.541  53.158  1.00  0.00    -0.320 N 
HETATM   17  C13 UNL     1      21.306  -0.024  53.278  1.00  0.00     0.159 C 
HETATM   18  C14 UNL     1      23.806  -0.147  53.596  1.00  0.00     0.247 C 
HETATM   19  O1  UNL     1      23.199  -1.210  53.960  1.00  0.00    -0.268 OA
BRANCH  18  20
HETATM   20  C15 UNL     1      25.117  -0.638  53.977  1.00  0.00     0.072 C 
BRANCH  20  21
HETATM   21  C16 UNL     1      26.213  -0.834  53.189  1.00  0.00    -0.002 C 
BRANCH  21  22
HETATM   22  C17 UNL     1      27.627  -0.798  52.701  1.00  0.00     0.143 C 
BRANCH  22  23
HETATM   23  N4  UNL     1      28.556  -0.254  53.649  1.00  0.00    -0.418 N 
HETATM   24  C18 UNL     1      29.795  -0.937  53.762  1.00  0.00     0.142 C 
HETATM   25  C19 UNL     1      28.586   1.161  53.761  1.00  0.00     0.142 C 
ENDBRANCH  22  23
ENDBRANCH  21  22
ENDBRANCH  20  21
ENDBRANCH  18  20
ENDBRANCH   7  16
BRANCH   1  26
HETATM   26  N1  UNL     1      23.618   5.891  48.546  1.00  0.00    -0.339 N 
HETATM   27  H8  UNL     1      23.108   6.263  47.717  1.00  0.00     0.167 HD
BRANCH  26  28
HETATM   28  C7  UNL     1      25.004   5.512  48.701  1.00  0.00     0.039 A 
HETATM   29  C2  UNL     1      25.975   6.432  48.332  1.00  0.00    -0.035 A 
HETATM   30  C1  UNL     1      25.605   7.760  47.818  1.00  0.00     0.050 C 
HETATM   31  C3  UNL     1      27.313   6.074  48.463  1.00  0.00     0.009 A 
HETATM   32  C4  UNL     1      27.535   4.806  48.962  1.00  0.00     0.001 A 
HETATM   33  C5  UNL     1      26.616   3.852  49.345  1.00  0.00     0.002 A 
HETATM   34  C6  UNL     1      25.280   4.255  49.195  1.00  0.00     0.030 A 
ENDBRANCH  26  28
ENDBRANCH   1  26
TORSDOF 7
ENDMDL
MODEL 5
REMARK VINA RESULT:      -8.2      1.555      2.141
REMARK  7 active torsions:
REMARK  status: ('A' for Active; 'I' for Inactive)
REMARK    1  A    between atoms: C7_7  and  N1_8 
REMARK    2  A    between atoms: N1_8  and  C8_9 
REMARK    3  A    between atoms: C12_15  and  N3_16 
REMARK       I    between atoms: N3_16  and  C14_18 
REMARK    4  A    between atoms: C14_18  and  C15_20 
REMARK    5  A    between atoms: C15_20  and  C16_21 
REMARK    6  A    between atoms: C16_21  and  C17_22 
REMARK    7  A    between atoms: C17_22  and  N4_23 
ROOT
HETATM    1  C8  UNL     1      24.384   3.959  51.478  1.00  0.00     0.151 C 
HETATM    2  N2  UNL     1      24.512   3.143  50.378  1.00  0.00    -0.255 NA
HETATM    3  C9  UNL     1      25.776   3.687  49.667  1.00  0.00     0.112 C 
HETATM    4  C10 UNL     1      26.718   4.590  49.087  1.00  0.00     0.098 C 
HETATM    5  C11 UNL     1      27.489   5.625  48.591  1.00  0.00     0.124 C 
HETATM    6  F1  UNL     1      28.136   4.513  48.242  1.00  0.00    -0.208 F 
HETATM    7  C12 UNL     1      27.038   6.893  48.821  1.00  0.00     0.051 C 
HETATM    8  C20 UNL     1      25.965   7.252  49.747  1.00  0.00     0.083 C 
HETATM    9  C21 UNL     1      24.648   7.613  49.279  1.00  0.00     0.235 C 
HETATM   10  N5  UNL     1      23.472   7.398  49.888  1.00  0.00    -0.311 NA
HETATM   11  C22 UNL     1      23.623   6.709  51.168  1.00  0.00     0.082 C 
HETATM   12  C23 UNL     1      23.988   5.396  51.231  1.00  0.00     0.084 C 
HETATM   13  N6  UNL     1      23.934   5.054  49.869  1.00  0.00    -0.384 N 
HETATM   14  C24 UNL     1      24.637   4.399  48.870  1.00  0.00     0.156 C 
HETATM   15  H27 UNL     1      23.090   5.325  49.251  1.00  0.00     0.159 HD
ENDROOT
BRANCH   7  16
HETATM   16  N3  UNL     1      27.884   7.917  48.240  1.00  0.00    -0.320 N 
HETATM   17  C13 UNL     1      27.212   8.697  47.185  1.00  0.00     0.159 C 
HETATM   18  C14 UNL     1      29.205   8.171  48.638  1.00  0.00     0.247 C 
HETATM   19  O1  UNL     1      29.392   9.176  47.871  1.00  0.00    -0.268 OA
BRANCH  18  20
HETATM   20  C15 UNL     1      30.539   8.225  49.208  1.00  0.00     0.072 C 
BRANCH  20  21
HETATM   21  C16 UNL     1      31.569   7.345  49.047  1.00  0.00    -0.002 C 
BRANCH  21  22
HETATM   22  C17 UNL     1      32.367   6.081  49.095  1.00  0.00     0.143 C 
BRANCH  22  23
HETATM   23  N4  UNL     1      32.593   5.487  47.809  1.00  0.00    -0.418 N 
HETATM   24  C18 UNL     1      31.687   4.461  47.434  1.00  0.00     0.142 C 
HETATM   25  C19 UNL     1      33.040   6.359  46.782  1.00  0.00     0.142 C 
ENDBRANCH  22  23
ENDBRANCH  21  22
ENDBRANCH  20  21
ENDBRANCH  18  20
ENDBRANCH   7  16
BRANCH   1  26
HETATM   26  N1  UNL     1      24.561   3.603  52.840  1.00  0.00    -0.339 N 
HETATM   27  H8  UNL     1      24.811   4.368  53.504  1.00  0.00     0.167 HD
BRANCH  26  28
HETATM   28  C7  UNL     1      24.362   2.190  53.069  1.00  0.00     0.039 A 
HETATM   29  C2  UNL     1      25.467   1.426  53.416  1.00  0.00    -0.035 A 
HETATM   30  C1  UNL     1      26.796   2.038  53.565  1.00  0.00     0.050 C 
HETATM   31  C3  UNL     1      25.291   0.062  53.626  1.00  0.00     0.009 A 
HETATM   32  C4  UNL     1      23.998  -0.395  53.463  1.00  0.00     0.001 A 
HETATM   33  C5  UNL     1      22.865   0.313  53.122  1.00  0.00     0.002 A 
HETATM   34  C6  UNL     1      23.089   1.683  52.919  1.00  0.00     0.030 A 
ENDBRANCH  26  28
ENDBRANCH   1  26
TORSDOF 7
ENDMDL
MODEL 6
REMARK VINA RESULT:      -7.9      4.848      9.266
REMARK  7 active torsions:
REMARK  status: ('A' for Active; 'I' for Inactive)
REMARK    1  A    between atoms: C7_7  and  N1_8 
REMARK    2  A    between atoms: N1_8  and  C8_9 
REMARK    3  A    between atoms: C12_15  and  N3_16 
REMARK       I    between atoms: N3_16  and  C14_18 
REMARK    4  A    between atoms: C14_18  and  C15_20 
REMARK    5  A    between atoms: C15_20  and  C16_21 
REMARK    6  A    between atoms: C16_21  and  C17_22 
REMARK    7  A    between atoms: C17_22  and  N4_23 
ROOT
HETATM    1  C8  UNL     1      23.155   5.175  50.321  1.00  0.00     0.151 C 
HETATM    2  N2  UNL     1      23.887   5.476  51.446  1.00  0.00    -0.255 NA
HETATM    3  C9  UNL     1      24.117   4.096  52.110  1.00  0.00     0.112 C 
HETATM    4  C10 UNL     1      23.874   2.791  52.637  1.00  0.00     0.098 C 
HETATM    5  C11 UNL     1      23.427   1.559  53.079  1.00  0.00     0.124 C 
HETATM    6  F1  UNL     1      24.704   1.619  53.453  1.00  0.00    -0.208 F 
HETATM    7  C12 UNL     1      22.124   1.247  52.814  1.00  0.00     0.051 C 
HETATM    8  C20 UNL     1      21.249   1.979  51.900  1.00  0.00     0.083 C 
HETATM    9  C21 UNL     1      20.214   2.862  52.383  1.00  0.00     0.235 C 
HETATM   10  N5  UNL     1      19.756   3.983  51.808  1.00  0.00    -0.311 NA
HETATM   11  C22 UNL     1      20.436   4.285  50.550  1.00  0.00     0.082 C 
HETATM   12  C23 UNL     1      21.734   4.706  50.525  1.00  0.00     0.084 C 
HETATM   13  N6  UNL     1      21.965   4.887  51.899  1.00  0.00    -0.384 N 
HETATM   14  C24 UNL     1      22.882   4.623  52.906  1.00  0.00     0.156 C 
HETATM   15  H27 UNL     1      21.264   5.419  52.526  1.00  0.00     0.159 HD
ENDROOT
BRANCH   7  16
HETATM   16  N3  UNL     1      21.725  -0.044  53.340  1.00  0.00    -0.320 N 
HETATM   17  C13 UNL     1      22.863  -0.863  53.795  1.00  0.00     0.159 C 
HETATM   18  C14 UNL     1      20.396  -0.484  53.434  1.00  0.00     0.247 C 
HETATM   19  O1  UNL     1      20.655  -1.591  54.015  1.00  0.00    -0.268 OA
BRANCH  18  20
HETATM   20  C15 UNL     1      18.962  -0.711  53.409  1.00  0.00     0.072 C 
BRANCH  20  21
HETATM   21  C16 UNL     1      18.140  -0.832  52.327  1.00  0.00    -0.002 C 
BRANCH  21  22
HETATM   22  C17 UNL     1      17.073  -0.530  51.323  1.00  0.00     0.143 C 
BRANCH  22  23
HETATM   23  N4  UNL     1      17.193   0.766  50.719  1.00  0.00    -0.418 N 
HETATM   24  C18 UNL     1      16.733   1.857  51.501  1.00  0.00     0.142 C 
HETATM   25  C19 UNL     1      18.348   0.985  49.922  1.00  0.00     0.142 C 
ENDBRANCH  22  23
ENDBRANCH  21  22
ENDBRANCH  20  21
ENDBRANCH  18  20
ENDBRANCH   7  16
BRANCH   1  26
HETATM   26  N1  UNL     1      23.574   5.274  48.969  1.00  0.00    -0.339 N 
HETATM   27  H8  UNL     1      22.830   5.263  48.238  1.00  0.00     0.167 HD
BRANCH  26  28
HETATM   28  C7  UNL     1      25.010   5.372  48.844  1.00  0.00     0.039 A 
HETATM   29  C2  UNL     1      25.545   6.580  48.421  1.00  0.00    -0.035 A 
HETATM   30  C1  UNL     1      24.679   7.733  48.129  1.00  0.00     0.050 C 
HETATM   31  C3  UNL     1      26.926   6.682  48.284  1.00  0.00     0.009 A 
HETATM   32  C4  UNL     1      27.633   5.538  48.593  1.00  0.00     0.001 A 
HETATM   33  C5  UNL     1      27.159   4.314  49.016  1.00  0.00     0.002 A 
HETATM   34  C6  UNL     1      25.763   4.256  49.140  1.00  0.00     0.030 A 
ENDBRANCH  26  28
ENDBRANCH   1  26
TORSDOF 7
ENDMDL
MODEL 7
REMARK VINA RESULT:      -7.8      1.585      4.055
REMARK  7 active torsions:
REMARK  status: ('A' for Active; 'I' for Inactive)
REMARK    1  A    between atoms: C7_7  and  N1_8 
REMARK    2  A    between atoms: N1_8  and  C8_9 
REMARK    3  A    between atoms: C12_15  and  N3_16 
REMARK       I    between atoms: N3_16  and  C14_18 
REMARK    4  A    between atoms: C14_18  and  C15_20 
REMARK    5  A    between atoms: C15_20  and  C16_21 
REMARK    6  A    between atoms: C16_21  and  C17_22 
REMARK    7  A    between atoms: C17_22  and  N4_23 
ROOT
HETATM    1  C8  UNL     1      25.107   2.804  51.957  1.00  0.00     0.151 C 
HETATM    2  N2  UNL     1      25.282   2.163  50.752  1.00  0.00    -0.255 NA
HETATM    3  C9  UNL     1      26.130   3.163  49.928  1.00  0.00     0.112 C 
HETATM    4  C10 UNL     1      26.587   4.377  49.329  1.00  0.00     0.098 C 
HETATM    5  C11 UNL     1      26.858   5.648  48.858  1.00  0.00     0.124 C 
HETATM    6  F1  UNL     1      27.756   4.861  48.268  1.00  0.00    -0.208 F 
HETATM    7  C12 UNL     1      26.064   6.658  49.321  1.00  0.00     0.051 C 
HETATM    8  C20 UNL     1      25.135   6.554  50.445  1.00  0.00     0.083 C 
HETATM    9  C21 UNL     1      23.708   6.460  50.244  1.00  0.00     0.235 C 
HETATM   10  N5  UNL     1      22.813   5.806  50.998  1.00  0.00    -0.311 NA
HETATM   11  C22 UNL     1      23.430   5.127  52.136  1.00  0.00     0.082 C 
HETATM   12  C23 UNL     1      24.215   4.024  51.967  1.00  0.00     0.084 C 
HETATM   13  N6  UNL     1      24.014   3.780  50.598  1.00  0.00    -0.384 N 
HETATM   14  C24 UNL     1      24.688   3.484  49.422  1.00  0.00     0.156 C 
HETATM   15  H27 UNL     1      23.026   3.779  50.162  1.00  0.00     0.159 HD
ENDROOT
BRANCH   7  16
HETATM   16  N3  UNL     1      26.391   7.951  48.754  1.00  0.00    -0.320 N 
HETATM   17  C13 UNL     1      27.838   8.235  48.747  1.00  0.00     0.159 C 
HETATM   18  C14 UNL     1      25.446   8.851  48.238  1.00  0.00     0.247 C 
HETATM   19  O1  UNL     1      26.287   9.722  47.832  1.00  0.00    -0.268 OA
BRANCH  18  20
HETATM   20  C15 UNL     1      24.289   9.606  47.790  1.00  0.00     0.072 C 
BRANCH  20  21
HETATM   21  C16 UNL     1      23.006   9.547  48.250  1.00  0.00    -0.002 C 
BRANCH  21  22
HETATM   22  C17 UNL     1      21.556   9.865  48.436  1.00  0.00     0.143 C 
BRANCH  22  23
HETATM   23  N4  UNL     1      20.725   8.709  48.610  1.00  0.00    -0.418 N 
HETATM   24  C18 UNL     1      20.978   7.627  47.728  1.00  0.00     0.142 C 
HETATM   25  C19 UNL     1      20.370   8.383  49.946  1.00  0.00     0.142 C 
ENDBRANCH  22  23
ENDBRANCH  21  22
ENDBRANCH  20  21
ENDBRANCH  18  20
ENDBRANCH   7  16
BRANCH   1  26
HETATM   26  N1  UNL     1      25.653   2.441  53.214  1.00  0.00    -0.339 N 
HETATM   27  H8  UNL     1      25.498   3.097  54.009  1.00  0.00     0.167 HD
BRANCH  26  28
HETATM   28  C7  UNL     1      26.359   1.180  53.163  1.00  0.00     0.039 A 
HETATM   29  C2  UNL     1      27.739   1.202  53.305  1.00  0.00    -0.035 A 
HETATM   30  C1  UNL     1      28.459   2.466  53.521  1.00  0.00     0.050 C 
HETATM   31  C3  UNL     1      28.431  -0.003  53.244  1.00  0.00     0.009 A 
HETATM   32  C4  UNL     1      27.647  -1.121  53.045  1.00  0.00     0.001 A 
HETATM   33  C5  UNL     1      26.278  -1.205  52.898  1.00  0.00     0.002 A 
HETATM   34  C6  UNL     1      25.621   0.033  52.965  1.00  0.00     0.030 A 
ENDBRANCH  26  28
ENDBRANCH   1  26
TORSDOF 7
ENDMDL
MODEL 8
REMARK VINA RESULT:      -7.8      2.171      3.712
REMARK  7 active torsions:
REMARK  status: ('A' for Active; 'I' for Inactive)
REMARK    1  A    between atoms: C7_7  and  N1_8 
REMARK    2  A    between atoms: N1_8  and  C8_9 
REMARK    3  A    between atoms: C12_15  and  N3_16 
REMARK       I    between atoms: N3_16  and  C14_18 
REMARK    4  A    between atoms: C14_18  and  C15_20 
REMARK    5  A    between atoms: C15_20  and  C16_21 
REMARK    6  A    between atoms: C16_21  and  C17_22 
REMARK    7  A    between atoms: C17_22  and  N4_23 
ROOT
HETATM    1  C8  UNL     1      24.320   4.068  51.465  1.00  0.00     0.151 C 
HETATM    2  N2  UNL     1      24.420   3.336  50.304  1.00  0.00    -0.255 NA
HETATM    3  C9  UNL     1      25.675   3.922  49.611  1.00  0.00     0.112 C 
HETATM    4  C10 UNL     1      26.615   4.858  49.082  1.00  0.00     0.098 C 
HETATM    5  C11 UNL     1      27.386   5.921  48.650  1.00  0.00     0.124 C 
HETATM    6  F1  UNL     1      28.015   4.834  48.207  1.00  0.00    -0.208 F 
HETATM    7  C12 UNL     1      26.952   7.172  48.983  1.00  0.00     0.051 C 
HETATM    8  C20 UNL     1      25.900   7.470  49.955  1.00  0.00     0.083 C 
HETATM    9  C21 UNL     1      24.577   7.875  49.541  1.00  0.00     0.235 C 
HETATM   10  N5  UNL     1      23.412   7.625  50.155  1.00  0.00    -0.311 NA
HETATM   11  C22 UNL     1      23.580   6.840  51.377  1.00  0.00     0.082 C 
HETATM   12  C23 UNL     1      23.933   5.523  51.334  1.00  0.00     0.084 C 
HETATM   13  N6  UNL     1      23.850   5.285  49.952  1.00  0.00    -0.384 N 
HETATM   14  C24 UNL     1      24.529   4.701  48.892  1.00  0.00     0.156 C 
HETATM   15  H27 UNL     1      22.998   5.608  49.372  1.00  0.00     0.159 HD
ENDROOT
BRANCH   7  16
HETATM   16  N3  UNL     1      27.796   8.230  48.465  1.00  0.00    -0.320 N 
HETATM   17  C13 UNL     1      28.242   9.179  49.500  1.00  0.00     0.159 C 
HETATM   18  C14 UNL     1      28.179   8.349  47.119  1.00  0.00     0.247 C 
HETATM   19  O1  UNL     1      28.939   9.363  47.279  1.00  0.00    -0.268 OA
BRANCH  18  20
HETATM   20  C15 UNL     1      28.416   8.264  45.690  1.00  0.00     0.072 C 
BRANCH  20  21
HETATM   21  C16 UNL     1      27.516   8.377  44.671  1.00  0.00    -0.002 C 
BRANCH  21  22
HETATM   22  C17 UNL     1      26.377   8.879  43.842  1.00  0.00     0.143 C 
BRANCH  22  23
HETATM   23  N4  UNL     1      25.136   8.201  44.088  1.00  0.00    -0.418 N 
HETATM   24  C18 UNL     1      24.682   8.210  45.432  1.00  0.00     0.142 C 
HETATM   25  C19 UNL     1      24.149   8.307  43.072  1.00  0.00     0.142 C 
ENDBRANCH  22  23
ENDBRANCH  21  22
ENDBRANCH  20  21
ENDBRANCH  18  20
ENDBRANCH   7  16
BRANCH   1  26
HETATM   26  N1  UNL     1      24.520   3.609  52.792  1.00  0.00    -0.339 N 
HETATM   27  H8  UNL     1      24.856   4.305  53.491  1.00  0.00     0.167 HD
BRANCH  26  28
HETATM   28  C7  UNL     1      24.215   2.204  52.940  1.00  0.00     0.039 A 
HETATM   29  C2  UNL     1      25.268   1.332  53.177  1.00  0.00    -0.035 A 
HETATM   30  C1  UNL     1      26.649   1.825  53.296  1.00  0.00     0.050 C 
HETATM   31  C3  UNL     1      24.989  -0.024  53.308  1.00  0.00     0.009 A 
HETATM   32  C4  UNL     1      23.657  -0.365  53.184  1.00  0.00     0.001 A 
HETATM   33  C5  UNL     1      22.572   0.453  52.949  1.00  0.00     0.002 A 
HETATM   34  C6  UNL     1      22.899   1.812  52.824  1.00  0.00     0.030 A 
ENDBRANCH  26  28
ENDBRANCH   1  26
TORSDOF 7
ENDMDL
MODEL 9
REMARK VINA RESULT:      -7.7      2.811      4.263
REMARK  7 active torsions:
REMARK  status: ('A' for Active; 'I' for Inactive)
REMARK    1  A    between atoms: C7_7  and  N1_8 
REMARK    2  A    between atoms: N1_8  and  C8_9 
REMARK    3  A    between atoms: C12_15  and  N3_16 
REMARK       I    between atoms: N3_16  and  C14_18 
REMARK    4  A    between atoms: C14_18  and  C15_20 
REMARK    5  A    between atoms: C15_20  and  C16_21 
REMARK    6  A    between atoms: C16_21  and  C17_22 
REMARK    7  A    between atoms: C17_22  and  N4_23 
ROOT
HETATM    1  C8  UNL     1      23.405   2.303  51.791  1.00  0.00     0.151 C 
HETATM    2  N2  UNL     1      22.914   3.240  52.671  1.00  0.00    -0.255 NA
HETATM    3  C9  UNL     1      22.352   4.348  51.746  1.00  0.00     0.112 C 
HETATM    4  C10 UNL     1      22.248   5.306  50.692  1.00  0.00     0.098 C 
HETATM    5  C11 UNL     1      22.351   6.162  49.611  1.00  0.00     0.124 C 
HETATM    6  F1  UNL     1      21.194   6.475  50.192  1.00  0.00    -0.208 F 
HETATM    7  C12 UNL     1      23.468   6.040  48.834  1.00  0.00     0.051 C 
HETATM    8  C20 UNL     1      24.424   4.936  48.897  1.00  0.00     0.083 C 
HETATM    9  C21 UNL     1      25.718   5.086  49.519  1.00  0.00     0.235 C 
HETATM   10  N5  UNL     1      26.428   4.155  50.173  1.00  0.00    -0.311 NA
HETATM   11  C22 UNL     1      25.745   2.865  50.226  1.00  0.00     0.082 C 
HETATM   12  C23 UNL     1      24.636   2.677  50.998  1.00  0.00     0.084 C 
HETATM   13  N6  UNL     1      24.609   3.894  51.699  1.00  0.00    -0.384 N 
HETATM   14  C24 UNL     1      23.762   4.918  52.096  1.00  0.00     0.156 C 
HETATM   15  H27 UNL     1      25.497   4.299  52.163  1.00  0.00     0.159 HD
ENDROOT
BRANCH   7  16
HETATM   16  N3  UNL     1      23.515   6.995  47.744  1.00  0.00    -0.320 N 
HETATM   17  C13 UNL     1      22.189   7.291  47.172  1.00  0.00     0.159 C 
HETATM   18  C14 UNL     1      24.690   7.603  47.275  1.00  0.00     0.247 C 
HETATM   19  O1  UNL     1      24.123   8.358  46.415  1.00  0.00    -0.268 OA
BRANCH  18  20
HETATM   20  C15 UNL     1      26.028   8.075  46.965  1.00  0.00     0.072 C 
BRANCH  20  21
HETATM   21  C16 UNL     1      27.199   7.790  47.605  1.00  0.00    -0.002 C 
BRANCH  21  22
HETATM   22  C17 UNL     1      28.351   7.891  48.552  1.00  0.00     0.143 C 
BRANCH  22  23
HETATM   23  N4  UNL     1      28.315   9.056  49.390  1.00  0.00    -0.418 N 
HETATM   24  C18 UNL     1      28.786  10.257  48.799  1.00  0.00     0.142 C 
HETATM   25  C19 UNL     1      27.208   9.162  50.273  1.00  0.00     0.142 C 
ENDBRANCH  22  23
ENDBRANCH  21  22
ENDBRANCH  20  21
ENDBRANCH  18  20
ENDBRANCH   7  16
BRANCH   1  26
HETATM   26  N1  UNL     1      22.901   0.999  51.550  1.00  0.00    -0.339 N 
HETATM   27  H8  UNL     1      22.677   0.750  50.563  1.00  0.00     0.167 HD
BRANCH  26  28
HETATM   28  C7  UNL     1      22.778   0.224  52.764  1.00  0.00     0.039 A 
HETATM   29  C2  UNL     1      21.503  -0.122  53.188  1.00  0.00    -0.035 A 
HETATM   30  C1  UNL     1      20.314   0.270  52.415  1.00  0.00     0.050 C 
HETATM   31  C3  UNL     1      21.371  -0.856  54.362  1.00  0.00     0.009 A 
HETATM   32  C4  UNL     1      22.557  -1.170  54.996  1.00  0.00     0.001 A 
HETATM   33  C5  UNL     1      23.847  -0.855  54.624  1.00  0.00     0.002 A 
HETATM   34  C6  UNL     1      23.933  -0.115  53.435  1.00  0.00     0.030 A 
ENDBRANCH  26  28
ENDBRANCH   1  26
TORSDOF 7
ENDMDL
