MODEL 1
REMARK VINA RESULT:      -7.9      0.000      0.000
REMARK  5 active torsions:
REMARK  status: ('A' for Active; 'I' for Inactive)
REMARK    1  A    between atoms: N1_2  and  N2_3 
REMARK    2  A    between atoms: N2_3  and  C2_4 
REMARK    3  A    between atoms: C2_4  and  C3_5 
REMARK    4  A    between atoms: C5_10  and  S1_11 
REMARK    5  A    between atoms: S1_11  and  C6_12 
ROOT
HETATM    1  C3  UNL     1      20.717   0.659  52.256  1.00  0.00     0.074 A 
HETATM    2  N3  UNL     1      21.380   1.562  52.896  1.00  0.00    -0.171 NA
HETATM    3  N4  UNL     1      22.363   2.298  52.232  1.00  0.00    -0.217 N 
HETATM    4  C4  UNL     1      22.605   2.034  50.875  1.00  0.00     0.147 A 
HETATM    5  N5  UNL     1      23.507   2.913  50.812  1.00  0.00    -0.233 NA
HETATM    6  C5  UNL     1      23.374   3.298  52.181  1.00  0.00     0.303 A 
HETATM    7  C15 UNL     1      21.859   1.018  50.153  1.00  0.00     0.054 A 
HETATM    8  C16 UNL     1      20.928   0.341  50.840  1.00  0.00     0.034 A 
ENDROOT
BRANCH   6   9
HETATM    9  S1  UNL     1      24.749   3.074  53.272  1.00  0.00    -0.080 SA
BRANCH   9  10
HETATM   10  C6  UNL     1      25.462   1.476  53.172  1.00  0.00     0.005 A 
HETATM   11  C7  UNL     1      25.088   0.184  52.959  1.00  0.00     0.021 A 
HETATM   12  C8  UNL     1      25.875  -0.921  52.941  1.00  0.00     0.034 A 
HETATM   13  C9  UNL     1      27.218  -0.769  53.158  1.00  0.00     0.066 A 
HETATM   14  N6  UNL     1      27.972  -1.881  53.133  1.00  0.00    -0.260 NA
HETATM   15  C13 UNL     1      27.719   0.508  53.387  1.00  0.00    -0.006 A 
HETATM   16  C10 UNL     1      29.315  -1.828  53.338  1.00  0.00     0.117 A 
HETATM   17  C11 UNL     1      29.858  -0.584  53.569  1.00  0.00     0.020 A 
HETATM   18  C12 UNL     1      29.079   0.552  53.592  1.00  0.00     0.015 A 
HETATM   19  C14 UNL     1      26.843   1.594  53.389  1.00  0.00     0.032 A 
ENDBRANCH   9  10
ENDBRANCH   6   9
BRANCH   1  20
HETATM   20  C2  UNL     1      19.653  -0.174  52.881  1.00  0.00     0.202 C 
BRANCH  20  21
HETATM   21  N2  UNL     1      20.000  -0.594  54.210  1.00  0.00    -0.309 N 
HETATM   22  H3  UNL     1      19.533  -0.104  55.021  1.00  0.00     0.182 HD
BRANCH  21  23
HETATM   23  N1  UNL     1      20.940  -1.632  54.434  1.00  0.00    -0.203 NA
HETATM   24  C1  UNL     1      22.085  -1.385  54.976  1.00  0.00     0.172 C 
ENDBRANCH  21  23
ENDBRANCH  20  21
ENDBRANCH   1  20
TORSDOF 5
ENDMDL
MODEL 2
REMARK VINA RESULT:      -7.8      3.928      6.110
REMARK  5 active torsions:
REMARK  status: ('A' for Active; 'I' for Inactive)
REMARK    1  A    between atoms: N1_2  and  N2_3 
REMARK    2  A    between atoms: N2_3  and  C2_4 
REMARK    3  A    between atoms: C2_4  and  C3_5 
REMARK    4  A    between atoms: C5_10  and  S1_11 
REMARK    5  A    between atoms: S1_11  and  C6_12 
ROOT
HETATM    1  C3  UNL     1      25.075   1.596  53.375  1.00  0.00     0.074 A 
HETATM    2  N3  UNL     1      24.660   2.739  52.947  1.00  0.00    -0.171 NA
HETATM    3  N4  UNL     1      23.395   2.840  52.364  1.00  0.00    -0.217 N 
HETATM    4  C4  UNL     1      22.602   1.687  52.261  1.00  0.00     0.147 A 
HETATM    5  N5  UNL     1      21.662   2.319  51.708  1.00  0.00    -0.233 NA
HETATM    6  C5  UNL     1      22.343   3.574  51.746  1.00  0.00     0.303 A 
HETATM    7  C15 UNL     1      23.069   0.399  52.744  1.00  0.00     0.054 A 
HETATM    8  C16 UNL     1      24.291   0.359  53.293  1.00  0.00     0.034 A 
ENDROOT
BRANCH   6   9
HETATM    9  S1  UNL     1      22.745   4.378  50.221  1.00  0.00    -0.080 SA
BRANCH   9  10
HETATM   10  C6  UNL     1      24.437   4.238  49.787  1.00  0.00     0.005 A 
HETATM   11  C7  UNL     1      25.434   3.310  49.784  1.00  0.00     0.021 A 
HETATM   12  C8  UNL     1      26.721   3.469  49.385  1.00  0.00     0.034 A 
HETATM   13  C9  UNL     1      27.113   4.695  48.919  1.00  0.00     0.066 A 
HETATM   14  N6  UNL     1      28.393   4.823  48.531  1.00  0.00    -0.260 NA
HETATM   15  C13 UNL     1      26.178   5.725  48.874  1.00  0.00    -0.006 A 
HETATM   16  C10 UNL     1      28.873   6.003  48.054  1.00  0.00     0.117 A 
HETATM   17  C11 UNL     1      27.983   7.052  47.991  1.00  0.00     0.020 A 
HETATM   18  C12 UNL     1      26.672   6.914  48.390  1.00  0.00     0.015 A 
HETATM   19  C14 UNL     1      24.874   5.481  49.303  1.00  0.00     0.032 A 
ENDBRANCH   9  10
ENDBRANCH   6   9
BRANCH   1  20
HETATM   20  C2  UNL     1      26.407   1.392  54.008  1.00  0.00     0.202 C 
BRANCH  20  21
HETATM   21  N2  UNL     1      27.206   2.586  53.991  1.00  0.00    -0.309 N 
HETATM   22  H3  UNL     1      26.710   3.512  53.890  1.00  0.00     0.182 HD
BRANCH  21  23
HETATM   23  N1  UNL     1      28.619   2.529  54.107  1.00  0.00    -0.203 NA
HETATM   24  C1  UNL     1      29.222   1.407  54.320  1.00  0.00     0.172 C 
ENDBRANCH  21  23
ENDBRANCH  20  21
ENDBRANCH   1  20
TORSDOF 5
ENDMDL
MODEL 3
REMARK VINA RESULT:      -7.7      3.551      6.111
REMARK  5 active torsions:
REMARK  status: ('A' for Active; 'I' for Inactive)
REMARK    1  A    between atoms: N1_2  and  N2_3 
REMARK    2  A    between atoms: N2_3  and  C2_4 
REMARK    3  A    between atoms: C2_4  and  C3_5 
REMARK    4  A    between atoms: C5_10  and  S1_11 
REMARK    5  A    between atoms: S1_11  and  C6_12 
ROOT
HETATM    1  C3  UNL     1      26.612   4.849  49.277  1.00  0.00     0.074 A 
HETATM    2  N3  UNL     1      26.198   3.828  49.948  1.00  0.00    -0.171 NA
HETATM    3  N4  UNL     1      24.974   3.890  50.615  1.00  0.00    -0.217 N 
HETATM    4  C4  UNL     1      24.219   5.071  50.538  1.00  0.00     0.147 A 
HETATM    5  N5  UNL     1      23.303   4.595  51.261  1.00  0.00    -0.233 NA
HETATM    6  C5  UNL     1      23.949   3.332  51.430  1.00  0.00     0.303 A 
HETATM    7  C15 UNL     1      24.684   6.222  49.783  1.00  0.00     0.054 A 
HETATM    8  C16 UNL     1      25.867   6.107  49.162  1.00  0.00     0.034 A 
ENDROOT
BRANCH   6   9
HETATM    9  S1  UNL     1      24.432   2.826  53.055  1.00  0.00    -0.080 SA
BRANCH   9  10
HETATM   10  C6  UNL     1      25.336   1.324  53.075  1.00  0.00     0.005 A 
HETATM   11  C7  UNL     1      25.124  -0.017  52.965  1.00  0.00     0.021 A 
HETATM   12  C8  UNL     1      26.040  -1.015  53.028  1.00  0.00     0.034 A 
HETATM   13  C9  UNL     1      27.354  -0.683  53.225  1.00  0.00     0.066 A 
HETATM   14  N6  UNL     1      28.239  -1.693  53.283  1.00  0.00    -0.260 NA
HETATM   15  C13 UNL     1      27.694   0.660  53.351  1.00  0.00    -0.006 A 
HETATM   16  C10 UNL     1      29.565  -1.461  53.475  1.00  0.00     0.117 A 
HETATM   17  C11 UNL     1      29.950  -0.145  53.605  1.00  0.00     0.020 A 
HETATM   18  C12 UNL     1      29.038   0.885  53.544  1.00  0.00     0.015 A 
HETATM   19  C14 UNL     1      26.692   1.627  53.275  1.00  0.00     0.032 A 
ENDBRANCH   9  10
ENDBRANCH   6   9
BRANCH   1  20
HETATM   20  C2  UNL     1      27.903   4.875  48.536  1.00  0.00     0.202 C 
BRANCH  20  21
HETATM   21  N2  UNL     1      28.715   6.004  48.894  1.00  0.00    -0.309 N 
HETATM   22  H3  UNL     1      28.680   6.341  49.894  1.00  0.00     0.182 HD
BRANCH  21  23
HETATM   23  N1  UNL     1      29.540   6.651  47.939  1.00  0.00    -0.203 NA
HETATM   24  C1  UNL     1      30.717   7.076  48.259  1.00  0.00     0.172 C 
ENDBRANCH  21  23
ENDBRANCH  20  21
ENDBRANCH   1  20
TORSDOF 5
ENDMDL
MODEL 4
REMARK VINA RESULT:      -7.6      3.420      5.948
REMARK  5 active torsions:
REMARK  status: ('A' for Active; 'I' for Inactive)
REMARK    1  A    between atoms: N1_2  and  N2_3 
REMARK    2  A    between atoms: N2_3  and  C2_4 
REMARK    3  A    between atoms: C2_4  and  C3_5 
REMARK    4  A    between atoms: C5_10  and  S1_11 
REMARK    5  A    between atoms: S1_11  and  C6_12 
ROOT
HETATM    1  C3  UNL     1      24.622   6.851  50.294  1.00  0.00     0.074 A 
HETATM    2  N3  UNL     1      25.017   5.679  50.661  1.00  0.00    -0.171 NA
HETATM    3  N4  UNL     1      24.098   4.776  51.196  1.00  0.00    -0.217 N 
HETATM    4  C4  UNL     1      22.756   5.168  51.319  1.00  0.00     0.147 A 
HETATM    5  N5  UNL     1      22.422   4.057  51.814  1.00  0.00    -0.233 NA
HETATM    6  C5  UNL     1      23.741   3.513  51.747  1.00  0.00     0.303 A 
HETATM    7  C15 UNL     1      22.309   6.487  50.905  1.00  0.00     0.054 A 
HETATM    8  C16 UNL     1      23.234   7.314  50.400  1.00  0.00     0.034 A 
ENDROOT
BRANCH   6   9
HETATM    9  S1  UNL     1      24.558   3.059  53.250  1.00  0.00    -0.080 SA
BRANCH   9  10
HETATM   10  C6  UNL     1      25.354   1.500  53.165  1.00  0.00     0.005 A 
HETATM   11  C7  UNL     1      25.051   0.190  52.954  1.00  0.00     0.021 A 
HETATM   12  C8  UNL     1      25.894  -0.873  52.949  1.00  0.00     0.034 A 
HETATM   13  C9  UNL     1      27.225  -0.650  53.180  1.00  0.00     0.066 A 
HETATM   14  N6  UNL     1      28.036  -1.721  53.169  1.00  0.00    -0.260 NA
HETATM   15  C13 UNL     1      27.657   0.653  53.409  1.00  0.00    -0.006 A 
HETATM   16  C10 UNL     1      29.373  -1.598  53.388  1.00  0.00     0.117 A 
HETATM   17  C11 UNL     1      29.847  -0.326  53.620  1.00  0.00     0.020 A 
HETATM   18  C12 UNL     1      29.010   0.768  53.629  1.00  0.00     0.015 A 
HETATM   19  C14 UNL     1      26.725   1.691  53.397  1.00  0.00     0.032 A 
ENDBRANCH   9  10
ENDBRANCH   6   9
BRANCH   1  20
HETATM   20  C2  UNL     1      25.529   7.879  49.716  1.00  0.00     0.202 C 
BRANCH  20  21
HETATM   21  N2  UNL     1      26.635   8.179  50.582  1.00  0.00    -0.309 N 
HETATM   22  H3  UNL     1      26.945   7.435  51.264  1.00  0.00     0.182 HD
BRANCH  21  23
HETATM   23  N1  UNL     1      27.295   9.433  50.528  1.00  0.00    -0.203 NA
HETATM   24  C1  UNL     1      27.769   9.886  49.415  1.00  0.00     0.172 C 
ENDBRANCH  21  23
ENDBRANCH  20  21
ENDBRANCH   1  20
TORSDOF 5
ENDMDL
MODEL 5
REMARK VINA RESULT:      -7.5      3.757      6.148
REMARK  5 active torsions:
REMARK  status: ('A' for Active; 'I' for Inactive)
REMARK    1  A    between atoms: N1_2  and  N2_3 
REMARK    2  A    between atoms: N2_3  and  C2_4 
REMARK    3  A    between atoms: C2_4  and  C3_5 
REMARK    4  A    between atoms: C5_10  and  S1_11 
REMARK    5  A    between atoms: S1_11  and  C6_12 
ROOT
HETATM    1  C3  UNL     1      24.720   0.037  53.394  1.00  0.00     0.074 A 
HETATM    2  N3  UNL     1      24.798   1.153  52.753  1.00  0.00    -0.171 NA
HETATM    3  N4  UNL     1      23.635   1.869  52.466  1.00  0.00    -0.217 N 
HETATM    4  C4  UNL     1      22.400   1.351  52.887  1.00  0.00     0.147 A 
HETATM    5  N5  UNL     1      21.766   2.324  52.398  1.00  0.00    -0.233 NA
HETATM    6  C5  UNL     1      22.938   2.979  51.911  1.00  0.00     0.303 A 
HETATM    7  C15 UNL     1      22.310   0.094  53.610  1.00  0.00     0.054 A 
HETATM    8  C16 UNL     1      23.459  -0.551  53.858  1.00  0.00     0.034 A 
ENDROOT
BRANCH   6   9
HETATM    9  S1  UNL     1      23.122   3.225  50.168  1.00  0.00    -0.080 SA
BRANCH   9  10
HETATM   10  C6  UNL     1      24.089   4.629  49.763  1.00  0.00     0.005 A 
HETATM   11  C7  UNL     1      23.967   5.982  49.671  1.00  0.00     0.021 A 
HETATM   12  C8  UNL     1      24.913   6.884  49.308  1.00  0.00     0.034 A 
HETATM   13  C9  UNL     1      26.161   6.424  48.984  1.00  0.00     0.066 A 
HETATM   14  N6  UNL     1      27.078   7.340  48.628  1.00  0.00    -0.260 NA
HETATM   15  C13 UNL     1      26.407   5.056  49.042  1.00  0.00    -0.006 A 
HETATM   16  C10 UNL     1      28.345   6.978  48.291  1.00  0.00     0.117 A 
HETATM   17  C11 UNL     1      28.635   5.633  48.333  1.00  0.00     0.020 A 
HETATM   18  C12 UNL     1      27.691   4.699  48.699  1.00  0.00     0.015 A 
HETATM   19  C14 UNL     1      25.380   4.194  49.425  1.00  0.00     0.032 A 
ENDBRANCH   9  10
ENDBRANCH   6   9
BRANCH   1  20
HETATM   20  C2  UNL     1      25.905  -0.793  53.743  1.00  0.00     0.202 C 
BRANCH  20  21
HETATM   21  N2  UNL     1      26.603  -0.290  54.893  1.00  0.00    -0.309 N 
HETATM   22  H3  UNL     1      26.029   0.039  55.715  1.00  0.00     0.182 HD
BRANCH  21  23
HETATM   23  N1  UNL     1      28.020  -0.233  54.929  1.00  0.00    -0.203 NA
HETATM   24  C1  UNL     1      28.684   0.362  53.995  1.00  0.00     0.172 C 
ENDBRANCH  21  23
ENDBRANCH  20  21
ENDBRANCH   1  20
TORSDOF 5
ENDMDL
MODEL 6
REMARK VINA RESULT:      -7.3      4.558      6.345
REMARK  5 active torsions:
REMARK  status: ('A' for Active; 'I' for Inactive)
REMARK    1  A    between atoms: N1_2  and  N2_3 
REMARK    2  A    between atoms: N2_3  and  C2_4 
REMARK    3  A    between atoms: C2_4  and  C3_5 
REMARK    4  A    between atoms: C5_10  and  S1_11 
REMARK    5  A    between atoms: S1_11  and  C6_12 
ROOT
HETATM    1  C3  UNL     1      24.519   0.290  53.408  1.00  0.00     0.074 A 
HETATM    2  N3  UNL     1      25.113   1.224  52.746  1.00  0.00    -0.171 NA
HETATM    3  N4  UNL     1      24.359   2.230  52.141  1.00  0.00    -0.217 N 
HETATM    4  C4  UNL     1      22.962   2.201  52.272  1.00  0.00     0.147 A 
HETATM    5  N5  UNL     1      22.823   3.251  51.588  1.00  0.00    -0.233 NA
HETATM    6  C5  UNL     1      24.225   3.420  51.371  1.00  0.00     0.303 A 
HETATM    7  C15 UNL     1      22.290   1.151  53.018  1.00  0.00     0.054 A 
HETATM    8  C16 UNL     1      23.064   0.210  53.577  1.00  0.00     0.034 A 
ENDROOT
BRANCH   6   9
HETATM    9  S1  UNL     1      24.850   3.353  49.716  1.00  0.00    -0.080 SA
BRANCH   9  10
HETATM   10  C6  UNL     1      25.632   4.838  49.210  1.00  0.00     0.005 A 
HETATM   11  C7  UNL     1      25.332   6.149  48.996  1.00  0.00     0.021 A 
HETATM   12  C8  UNL     1      26.159   7.137  48.575  1.00  0.00     0.034 A 
HETATM   13  C9  UNL     1      27.468   6.828  48.320  1.00  0.00     0.066 A 
HETATM   14  N6  UNL     1      28.265   7.827  47.904  1.00  0.00    -0.260 NA
HETATM   15  C13 UNL     1      27.894   5.516  48.503  1.00  0.00    -0.006 A 
HETATM   16  C10 UNL     1      29.579   7.615  47.627  1.00  0.00     0.117 A 
HETATM   17  C11 UNL     1      30.047   6.331  47.794  1.00  0.00     0.020 A 
HETATM   18  C12 UNL     1      29.225   5.311  48.221  1.00  0.00     0.015 A 
HETATM   19  C14 UNL     1      26.980   4.557  48.939  1.00  0.00     0.032 A 
ENDBRANCH   9  10
ENDBRANCH   6   9
BRANCH   1  20
HETATM   20  C2  UNL     1      25.240  -0.822  54.085  1.00  0.00     0.202 C 
BRANCH  20  21
HETATM   21  N2  UNL     1      26.234  -0.346  55.006  1.00  0.00    -0.309 N 
HETATM   22  H3  UNL     1      25.918  -0.074  55.976  1.00  0.00     0.182 HD
BRANCH  21  23
HETATM   23  N1  UNL     1      27.598  -0.243  54.631  1.00  0.00    -0.203 NA
HETATM   24  C1  UNL     1      28.011  -0.705  53.498  1.00  0.00     0.172 C 
ENDBRANCH  21  23
ENDBRANCH  20  21
ENDBRANCH   1  20
TORSDOF 5
ENDMDL
MODEL 7
REMARK VINA RESULT:      -7.1      2.357      5.312
REMARK  5 active torsions:
REMARK  status: ('A' for Active; 'I' for Inactive)
REMARK    1  A    between atoms: N1_2  and  N2_3 
REMARK    2  A    between atoms: N2_3  and  C2_4 
REMARK    3  A    between atoms: C2_4  and  C3_5 
REMARK    4  A    between atoms: C5_10  and  S1_11 
REMARK    5  A    between atoms: S1_11  and  C6_12 
ROOT
HETATM    1  C3  UNL     1      21.843  -0.410  53.615  1.00  0.00     0.074 A 
HETATM    2  N3  UNL     1      22.903  -0.008  52.999  1.00  0.00    -0.171 NA
HETATM    3  N4  UNL     1      24.160  -0.270  53.545  1.00  0.00    -0.217 N 
HETATM    4  C4  UNL     1      24.239  -0.971  54.758  1.00  0.00     0.147 A 
HETATM    5  N5  UNL     1      25.499  -0.920  54.766  1.00  0.00    -0.233 NA
HETATM    6  C5  UNL     1      25.582  -0.205  53.532  1.00  0.00     0.303 A 
HETATM    7  C15 UNL     1      23.047  -1.426  55.452  1.00  0.00     0.054 A 
HETATM    8  C16 UNL     1      21.866  -1.146  54.883  1.00  0.00     0.034 A 
ENDROOT
BRANCH   6   9
HETATM    9  S1  UNL     1      26.290   1.417  53.526  1.00  0.00    -0.080 SA
BRANCH   9  10
HETATM   10  C6  UNL     1      25.980   2.304  52.047  1.00  0.00     0.005 A 
HETATM   11  C7  UNL     1      26.554   2.530  50.833  1.00  0.00     0.021 A 
HETATM   12  C8  UNL     1      26.089   3.304  49.820  1.00  0.00     0.034 A 
HETATM   13  C9  UNL     1      24.900   3.960  49.994  1.00  0.00     0.066 A 
HETATM   14  N6  UNL     1      24.465   4.719  48.974  1.00  0.00    -0.260 NA
HETATM   15  C13 UNL     1      24.219   3.805  51.197  1.00  0.00    -0.006 A 
HETATM   16  C10 UNL     1      23.294   5.407  49.055  1.00  0.00     0.117 A 
HETATM   17  C11 UNL     1      22.584   5.285  50.228  1.00  0.00     0.020 A 
HETATM   18  C12 UNL     1      23.036   4.505  51.269  1.00  0.00     0.015 A 
HETATM   19  C14 UNL     1      24.765   2.991  52.189  1.00  0.00     0.032 A 
ENDBRANCH   9  10
ENDBRANCH   6   9
BRANCH   1  20
HETATM   20  C2  UNL     1      20.463  -0.177  53.110  1.00  0.00     0.202 C 
BRANCH  20  21
HETATM   21  N2  UNL     1      19.483  -0.943  53.827  1.00  0.00    -0.309 N 
HETATM   22  H3  UNL     1      19.746  -1.314  54.780  1.00  0.00     0.182 HD
BRANCH  21  23
HETATM   23  N1  UNL     1      18.199  -1.197  53.279  1.00  0.00    -0.203 NA
HETATM   24  C1  UNL     1      17.836  -0.658  52.163  1.00  0.00     0.172 C 
ENDBRANCH  21  23
ENDBRANCH  20  21
ENDBRANCH   1  20
TORSDOF 5
ENDMDL
MODEL 8
REMARK VINA RESULT:      -6.8      2.043      4.183
REMARK  5 active torsions:
REMARK  status: ('A' for Active; 'I' for Inactive)
REMARK    1  A    between atoms: N1_2  and  N2_3 
REMARK    2  A    between atoms: N2_3  and  C2_4 
REMARK    3  A    between atoms: C2_4  and  C3_5 
REMARK    4  A    between atoms: C5_10  and  S1_11 
REMARK    5  A    between atoms: S1_11  and  C6_12 
ROOT
HETATM    1  C3  UNL     1      21.577   3.947  51.780  1.00  0.00     0.074 A 
HETATM    2  N3  UNL     1      22.468   3.016  51.832  1.00  0.00    -0.171 NA
HETATM    3  N4  UNL     1      22.068   1.681  51.921  1.00  0.00    -0.217 N 
HETATM    4  C4  UNL     1      20.696   1.386  51.950  1.00  0.00     0.147 A 
HETATM    5  N5  UNL     1      20.911   0.147  52.029  1.00  0.00    -0.233 NA
HETATM    6  C5  UNL     1      22.333   0.285  52.003  1.00  0.00     0.303 A 
HETATM    7  C15 UNL     1      19.692   2.434  51.892  1.00  0.00     0.054 A 
HETATM    8  C16 UNL     1      20.133   3.697  51.808  1.00  0.00     0.034 A 
ENDROOT
BRANCH   6   9
HETATM    9  S1  UNL     1      23.272  -0.249  53.405  1.00  0.00    -0.080 SA
BRANCH   9  10
HETATM   10  C6  UNL     1      24.890   0.422  53.454  1.00  0.00     0.005 A 
HETATM   11  C7  UNL     1      25.510   1.633  53.522  1.00  0.00     0.021 A 
HETATM   12  C8  UNL     1      26.842   1.890  53.536  1.00  0.00     0.034 A 
HETATM   13  C9  UNL     1      27.710   0.833  53.475  1.00  0.00     0.066 A 
HETATM   14  N6  UNL     1      29.024   1.118  53.491  1.00  0.00    -0.260 NA
HETATM   15  C13 UNL     1      27.192  -0.456  53.403  1.00  0.00    -0.006 A 
HETATM   16  C10 UNL     1      29.960   0.134  53.434  1.00  0.00     0.117 A 
HETATM   17  C11 UNL     1      29.495  -1.160  53.361  1.00  0.00     0.020 A 
HETATM   18  C12 UNL     1      28.148  -1.445  53.346  1.00  0.00     0.015 A 
HETATM   19  C14 UNL     1      25.809  -0.636  53.393  1.00  0.00     0.032 A 
ENDBRANCH   9  10
ENDBRANCH   6   9
BRANCH   1  20
HETATM   20  C2  UNL     1      21.910   5.395  51.685  1.00  0.00     0.202 C 
BRANCH  20  21
HETATM   21  N2  UNL     1      22.925   5.658  50.703  1.00  0.00    -0.309 N 
HETATM   22  H3  UNL     1      22.802   5.239  49.741  1.00  0.00     0.182 HD
BRANCH  21  23
HETATM   23  N1  UNL     1      24.058   6.453  51.009  1.00  0.00    -0.203 NA
HETATM   24  C1  UNL     1      25.146   6.350  50.321  1.00  0.00     0.172 C 
ENDBRANCH  21  23
ENDBRANCH  20  21
ENDBRANCH   1  20
TORSDOF 5
ENDMDL
MODEL 9
REMARK VINA RESULT:      -6.6      3.084      3.858
REMARK  5 active torsions:
REMARK  status: ('A' for Active; 'I' for Inactive)
REMARK    1  A    between atoms: N1_2  and  N2_3 
REMARK    2  A    between atoms: N2_3  and  C2_4 
REMARK    3  A    between atoms: C2_4  and  C3_5 
REMARK    4  A    between atoms: C5_10  and  S1_11 
REMARK    5  A    between atoms: S1_11  and  C6_12 
ROOT
HETATM    1  C3  UNL     1      19.122   4.194  50.480  1.00  0.00     0.074 A 
HETATM    2  N3  UNL     1      19.729   3.259  51.128  1.00  0.00    -0.171 NA
HETATM    3  N4  UNL     1      21.058   3.438  51.518  1.00  0.00    -0.217 N 
HETATM    4  C4  UNL     1      21.703   4.641  51.193  1.00  0.00     0.147 A 
HETATM    5  N5  UNL     1      22.777   4.274  51.742  1.00  0.00    -0.233 NA
HETATM    6  C5  UNL     1      22.259   3.007  52.149  1.00  0.00     0.303 A 
HETATM    7  C15 UNL     1      21.020   5.696  50.463  1.00  0.00     0.054 A 
HETATM    8  C16 UNL     1      19.746   5.470  50.114  1.00  0.00     0.034 A 
ENDROOT
BRANCH   6   9
HETATM    9  S1  UNL     1      22.995   1.533  51.502  1.00  0.00    -0.080 SA
BRANCH   9  10
HETATM   10  C6  UNL     1      24.187   0.824  52.573  1.00  0.00     0.005 A 
HETATM   11  C7  UNL     1      24.303  -0.196  53.468  1.00  0.00     0.021 A 
HETATM   12  C8  UNL     1      25.387  -0.540  54.206  1.00  0.00     0.034 A 
HETATM   13  C9  UNL     1      26.531   0.201  54.070  1.00  0.00     0.066 A 
HETATM   14  N6  UNL     1      27.589  -0.164  54.815  1.00  0.00    -0.260 NA
HETATM   15  C13 UNL     1      26.534   1.272  53.182  1.00  0.00    -0.006 A 
HETATM   16  C10 UNL     1      28.767   0.512  54.747  1.00  0.00     0.117 A 
HETATM   17  C11 UNL     1      28.818   1.581  53.881  1.00  0.00     0.020 A 
HETATM   18  C12 UNL     1      27.730   1.949  53.120  1.00  0.00     0.015 A 
HETATM   19  C14 UNL     1      25.377   1.561  52.459  1.00  0.00     0.032 A 
ENDBRANCH   9  10
ENDBRANCH   6   9
BRANCH   1  20
HETATM   20  C2  UNL     1      17.709   4.092  50.025  1.00  0.00     0.202 C 
BRANCH  20  21
HETATM   21  N2  UNL     1      16.850   3.541  51.035  1.00  0.00    -0.309 N 
HETATM   22  H3  UNL     1      16.428   2.588  50.859  1.00  0.00     0.182 HD
BRANCH  21  23
HETATM   23  N1  UNL     1      16.571   4.248  52.232  1.00  0.00    -0.203 NA
HETATM   24  C1  UNL     1      15.457   4.073  52.862  1.00  0.00     0.172 C 
ENDBRANCH  21  23
ENDBRANCH  20  21
ENDBRANCH   1  20
TORSDOF 5
ENDMDL
