MODEL 1
REMARK VINA RESULT:      -7.4      0.000      0.000
REMARK  4 active torsions:
REMARK  status: ('A' for Active; 'I' for Inactive)
REMARK    1  A    between atoms: O1_2  and  C2_3 
REMARK    2  A    between atoms: C5_6  and  N1_7 
REMARK    3  A    between atoms: C8_12  and  C9_13 
REMARK    4  A    between atoms: C10_14  and  C12_16 
ROOT
HETATM    1  N1  UNL     1      25.074   2.171  51.869  1.00  0.00    -0.317 N 
HETATM    2  C6  UNL     1      25.597   3.046  50.841  1.00  0.00     0.281 A 
HETATM    3  N2  UNL     1      24.545   3.901  50.353  1.00  0.00    -0.263 NA
HETATM    4  C7  UNL     1      23.357   3.829  50.816  1.00  0.00     0.230 A 
HETATM    5  N3  UNL     1      22.915   2.937  51.832  1.00  0.00    -0.225 NA
HETATM    6  C8  UNL     1      23.744   2.110  52.366  1.00  0.00     0.133 A 
ENDROOT
BRANCH   1   7
HETATM    7  C5  UNL     1      26.022   1.254  52.452  1.00  0.00     0.015 A 
HETATM    8  C4  UNL     1      25.982   0.046  51.931  1.00  0.00     0.027 A 
HETATM    9  C3  UNL     1      26.950  -0.851  52.542  1.00  0.00     0.034 A 
HETATM   10  C2  UNL     1      27.644  -0.239  53.479  1.00  0.00     0.046 A 
HETATM   11  C14 UNL     1      27.764   1.085  54.124  1.00  0.00     0.070 A 
HETATM   12  C13 UNL     1      26.757   2.007  53.487  1.00  0.00     0.064 A 
BRANCH  10  13
HETATM   13  O1  UNL     1      28.598  -1.061  54.106  1.00  0.00    -0.360 OA
HETATM   14  C1  UNL     1      29.954  -1.055  53.707  1.00  0.00     0.209 C 
ENDBRANCH  10  13
ENDBRANCH   1   7
BRANCH   6  15
HETATM   15  C9  UNL     1      23.371   1.167  53.410  1.00  0.00     0.062 C 
HETATM   16  C10 UNL     1      22.508   0.199  53.164  1.00  0.00     0.025 C 
HETATM   17  C11 UNL     1      21.887   0.024  51.849  1.00  0.00     0.053 C 
BRANCH  16  18
HETATM   18  C12 UNL     1      22.163  -0.745  54.288  1.00  0.00     0.413 C 
HETATM   19  F1  UNL     1      23.363  -1.004  54.930  1.00  0.00    -0.166 F 
HETATM   20  F2  UNL     1      21.336  -0.127  55.201  1.00  0.00    -0.166 F 
HETATM   21  F3  UNL     1      21.561  -1.888  53.822  1.00  0.00    -0.166 F 
ENDBRANCH  16  18
ENDBRANCH   6  15
TORSDOF 4
ENDMDL
MODEL 2
REMARK VINA RESULT:      -7.4      3.105      4.212
REMARK  4 active torsions:
REMARK  status: ('A' for Active; 'I' for Inactive)
REMARK    1  A    between atoms: O1_2  and  C2_3 
REMARK    2  A    between atoms: C5_6  and  N1_7 
REMARK    3  A    between atoms: C8_12  and  C9_13 
REMARK    4  A    between atoms: C10_14  and  C12_16 
ROOT
HETATM    1  N1  UNL     1      24.222  -0.447  54.062  1.00  0.00    -0.317 N 
HETATM    2  C6  UNL     1      23.752  -1.171  55.225  1.00  0.00     0.281 A 
HETATM    3  N2  UNL     1      22.317  -1.074  55.306  1.00  0.00    -0.263 NA
HETATM    4  C7  UNL     1      21.641  -0.426  54.438  1.00  0.00     0.230 A 
HETATM    5  N3  UNL     1      22.176   0.265  53.316  1.00  0.00    -0.225 NA
HETATM    6  C8  UNL     1      23.446   0.268  53.110  1.00  0.00     0.133 A 
ENDROOT
BRANCH   1   7
HETATM    7  C5  UNL     1      25.649  -0.458  53.852  1.00  0.00     0.015 A 
HETATM    8  C4  UNL     1      26.033  -1.211  52.845  1.00  0.00     0.027 A 
HETATM    9  C3  UNL     1      27.475  -1.198  52.663  1.00  0.00     0.034 A 
HETATM   10  C2  UNL     1      28.062  -0.429  53.557  1.00  0.00     0.046 A 
HETATM   11  C14 UNL     1      27.729   0.440  54.704  1.00  0.00     0.070 A 
HETATM   12  C13 UNL     1      26.233   0.419  54.886  1.00  0.00     0.064 A 
BRANCH  10  13
HETATM   13  O1  UNL     1      29.462  -0.379  53.429  1.00  0.00    -0.360 OA
HETATM   14  C1  UNL     1      30.279  -1.466  53.816  1.00  0.00     0.209 C 
ENDBRANCH  10  13
ENDBRANCH   1   7
BRANCH   6  15
HETATM   15  C9  UNL     1      24.071   0.951  51.987  1.00  0.00     0.062 C 
HETATM   16  C10 UNL     1      24.408   2.224  52.077  1.00  0.00     0.025 C 
HETATM   17  C11 UNL     1      24.174   3.008  53.291  1.00  0.00     0.053 C 
BRANCH  16  18
HETATM   18  C12 UNL     1      25.051   2.873  50.878  1.00  0.00     0.413 C 
HETATM   19  F1  UNL     1      26.258   2.213  50.708  1.00  0.00    -0.166 F 
HETATM   20  F2  UNL     1      24.300   2.648  49.745  1.00  0.00    -0.166 F 
HETATM   21  F3  UNL     1      25.215   4.224  51.061  1.00  0.00    -0.166 F 
ENDBRANCH  16  18
ENDBRANCH   6  15
TORSDOF 4
ENDMDL
MODEL 3
REMARK VINA RESULT:      -7.1      2.707      4.788
REMARK  4 active torsions:
REMARK  status: ('A' for Active; 'I' for Inactive)
REMARK    1  A    between atoms: O1_2  and  C2_3 
REMARK    2  A    between atoms: C5_6  and  N1_7 
REMARK    3  A    between atoms: C8_12  and  C9_13 
REMARK    4  A    between atoms: C10_14  and  C12_16 
ROOT
HETATM    1  N1  UNL     1      26.770   1.178  53.037  1.00  0.00    -0.317 N 
HETATM    2  C6  UNL     1      28.143   1.632  53.108  1.00  0.00     0.281 A 
HETATM    3  N2  UNL     1      28.980   0.567  53.598  1.00  0.00    -0.263 NA
HETATM    4  C7  UNL     1      28.497  -0.576  53.901  1.00  0.00     0.230 A 
HETATM    5  N3  UNL     1      27.129  -0.951  53.805  1.00  0.00    -0.225 NA
HETATM    6  C8  UNL     1      26.259  -0.103  53.383  1.00  0.00     0.133 A 
ENDROOT
BRANCH   1   7
HETATM    7  C5  UNL     1      25.814   2.146  52.561  1.00  0.00     0.015 A 
HETATM    8  C4  UNL     1      25.047   2.646  53.506  1.00  0.00     0.027 A 
HETATM    9  C3  UNL     1      24.096   3.617  52.990  1.00  0.00     0.034 A 
HETATM   10  C2  UNL     1      24.227   3.769  51.688  1.00  0.00     0.046 A 
HETATM   11  C14 UNL     1      25.039   3.268  50.560  1.00  0.00     0.070 A 
HETATM   12  C13 UNL     1      26.020   2.261  51.103  1.00  0.00     0.064 A 
BRANCH  10  13
HETATM   13  O1  UNL     1      23.330   4.701  51.134  1.00  0.00    -0.360 OA
HETATM   14  C1  UNL     1      23.578   6.091  51.194  1.00  0.00     0.209 C 
ENDBRANCH  10  13
ENDBRANCH   1   7
BRANCH   6  15
HETATM   15  C9  UNL     1      24.841  -0.408  53.256  1.00  0.00     0.062 C 
HETATM   16  C10 UNL     1      24.137  -0.778  54.310  1.00  0.00     0.025 C 
HETATM   17  C11 UNL     1      24.732  -0.900  55.642  1.00  0.00     0.053 C 
BRANCH  16  18
HETATM   18  C12 UNL     1      22.673  -1.080  54.112  1.00  0.00     0.413 C 
HETATM   19  F1  UNL     1      22.567  -1.548  52.812  1.00  0.00    -0.166 F 
HETATM   20  F2  UNL     1      22.274  -2.101  54.948  1.00  0.00    -0.166 F 
HETATM   21  F3  UNL     1      21.893   0.028  54.335  1.00  0.00    -0.166 F 
ENDBRANCH  16  18
ENDBRANCH   6  15
TORSDOF 4
ENDMDL
MODEL 4
REMARK VINA RESULT:      -7.0      3.157      4.378
REMARK  4 active torsions:
REMARK  status: ('A' for Active; 'I' for Inactive)
REMARK    1  A    between atoms: O1_2  and  C2_3 
REMARK    2  A    between atoms: C5_6  and  N1_7 
REMARK    3  A    between atoms: C8_12  and  C9_13 
REMARK    4  A    between atoms: C10_14  and  C12_16 
ROOT
HETATM    1  N1  UNL     1      24.010  -0.174  53.798  1.00  0.00    -0.317 N 
HETATM    2  C6  UNL     1      23.331  -0.891  54.857  1.00  0.00     0.281 A 
HETATM    3  N2  UNL     1      21.917  -0.625  54.791  1.00  0.00    -0.263 NA
HETATM    4  C7  UNL     1      21.423   0.142  53.897  1.00  0.00     0.230 A 
HETATM    5  N3  UNL     1      22.158   0.817  52.884  1.00  0.00    -0.225 NA
HETATM    6  C8  UNL     1      23.435   0.677  52.815  1.00  0.00     0.133 A 
ENDROOT
BRANCH   1   7
HETATM    7  C5  UNL     1      25.441  -0.347  53.742  1.00  0.00     0.015 A 
HETATM    8  C4  UNL     1      26.104   0.442  54.559  1.00  0.00     0.027 A 
HETATM    9  C3  UNL     1      27.542   0.241  54.476  1.00  0.00     0.034 A 
HETATM   10  C2  UNL     1      27.843  -0.692  53.596  1.00  0.00     0.046 A 
HETATM   11  C14 UNL     1      27.188  -1.617  52.649  1.00  0.00     0.070 A 
HETATM   12  C13 UNL     1      25.699  -1.400  52.740  1.00  0.00     0.064 A 
BRANCH  10  13
HETATM   13  O1  UNL     1      29.225  -0.930  53.474  1.00  0.00    -0.360 OA
HETATM   14  C1  UNL     1      30.167   0.118  53.588  1.00  0.00     0.209 C 
ENDBRANCH  10  13
ENDBRANCH   1   7
BRANCH   6  15
HETATM   15  C9  UNL     1      24.258   1.332  51.810  1.00  0.00     0.062 C 
HETATM   16  C10 UNL     1      24.593   2.602  51.939  1.00  0.00     0.025 C 
HETATM   17  C11 UNL     1      24.163   3.409  53.083  1.00  0.00     0.053 C 
BRANCH  16  18
HETATM   18  C12 UNL     1      25.448   3.222  50.863  1.00  0.00     0.413 C 
HETATM   19  F1  UNL     1      24.893   2.800  49.666  1.00  0.00    -0.166 F 
HETATM   20  F2  UNL     1      25.347   4.596  50.899  1.00  0.00    -0.166 F 
HETATM   21  F3  UNL     1      26.765   2.854  50.988  1.00  0.00    -0.166 F 
ENDBRANCH  16  18
ENDBRANCH   6  15
TORSDOF 4
ENDMDL
MODEL 5
REMARK VINA RESULT:      -6.9      3.414      5.385
REMARK  4 active torsions:
REMARK  status: ('A' for Active; 'I' for Inactive)
REMARK    1  A    between atoms: O1_2  and  C2_3 
REMARK    2  A    between atoms: C5_6  and  N1_7 
REMARK    3  A    between atoms: C8_12  and  C9_13 
REMARK    4  A    between atoms: C10_14  and  C12_16 
ROOT
HETATM    1  N1  UNL     1      22.529   0.779  53.117  1.00  0.00    -0.317 N 
HETATM    2  C6  UNL     1      21.238   1.134  53.670  1.00  0.00     0.281 A 
HETATM    3  N2  UNL     1      20.802   0.104  54.577  1.00  0.00    -0.263 NA
HETATM    4  C7  UNL     1      21.512  -0.934  54.800  1.00  0.00     0.230 A 
HETATM    5  N3  UNL     1      22.777  -1.216  54.215  1.00  0.00    -0.225 NA
HETATM    6  C8  UNL     1      23.299  -0.386  53.382  1.00  0.00     0.133 A 
ENDROOT
BRANCH   1   7
HETATM    7  C5  UNL     1      23.092   1.726  52.186  1.00  0.00     0.015 A 
HETATM    8  C4  UNL     1      23.908   2.596  52.741  1.00  0.00     0.027 A 
HETATM    9  C3  UNL     1      24.456   3.534  51.774  1.00  0.00     0.034 A 
HETATM   10  C2  UNL     1      24.005   3.288  50.562  1.00  0.00     0.046 A 
HETATM   11  C14 UNL     1      23.107   2.356  49.849  1.00  0.00     0.070 A 
HETATM   12  C13 UNL     1      22.542   1.390  50.858  1.00  0.00     0.064 A 
BRANCH  10  13
HETATM   13  O1  UNL     1      24.504   4.167  49.583  1.00  0.00    -0.360 OA
HETATM   14  C1  UNL     1      25.888   4.430  49.463  1.00  0.00     0.209 C 
ENDBRANCH  10  13
ENDBRANCH   1   7
BRANCH   6  15
HETATM   15  C9  UNL     1      24.588  -0.600  52.741  1.00  0.00     0.062 C 
HETATM   16  C10 UNL     1      25.706  -0.524  53.439  1.00  0.00     0.025 C 
HETATM   17  C11 UNL     1      25.712  -0.225  54.873  1.00  0.00     0.053 C 
BRANCH  16  18
HETATM   18  C12 UNL     1      27.008  -0.756  52.717  1.00  0.00     0.413 C 
HETATM   19  F1  UNL     1      26.847  -0.168  51.472  1.00  0.00    -0.166 F 
HETATM   20  F2  UNL     1      28.037  -0.094  53.351  1.00  0.00    -0.166 F 
HETATM   21  F3  UNL     1      27.307  -2.094  52.629  1.00  0.00    -0.166 F 
ENDBRANCH  16  18
ENDBRANCH   6  15
TORSDOF 4
ENDMDL
MODEL 6
REMARK VINA RESULT:      -6.9      1.449      1.911
REMARK  4 active torsions:
REMARK  status: ('A' for Active; 'I' for Inactive)
REMARK    1  A    between atoms: O1_2  and  C2_3 
REMARK    2  A    between atoms: C5_6  and  N1_7 
REMARK    3  A    between atoms: C8_12  and  C9_13 
REMARK    4  A    between atoms: C10_14  and  C12_16 
ROOT
HETATM    1  N1  UNL     1      24.138   2.086  51.058  1.00  0.00    -0.317 N 
HETATM    2  C6  UNL     1      24.535   3.075  50.077  1.00  0.00     0.281 A 
HETATM    3  N2  UNL     1      23.486   3.240  49.105  1.00  0.00    -0.263 NA
HETATM    4  C7  UNL     1      22.399   2.572  49.176  1.00  0.00     0.230 A 
HETATM    5  N3  UNL     1      22.079   1.612  50.174  1.00  0.00    -0.225 NA
HETATM    6  C8  UNL     1      22.921   1.355  51.113  1.00  0.00     0.133 A 
ENDROOT
BRANCH   1   7
HETATM    7  C5  UNL     1      25.099   1.816  52.100  1.00  0.00     0.015 A 
HETATM    8  C4  UNL     1      24.928   2.544  53.182  1.00  0.00     0.027 A 
HETATM    9  C3  UNL     1      25.913   2.246  54.210  1.00  0.00     0.034 A 
HETATM   10  C2  UNL     1      26.750   1.311  53.811  1.00  0.00     0.046 A 
HETATM   11  C14 UNL     1      27.022   0.449  52.642  1.00  0.00     0.070 A 
HETATM   12  C13 UNL     1      25.998   0.766  51.582  1.00  0.00     0.064 A 
BRANCH  10  13
HETATM   13  O1  UNL     1      27.727   0.981  54.768  1.00  0.00    -0.360 OA
HETATM   14  C1  UNL     1      29.037   0.607  54.388  1.00  0.00     0.209 C 
ENDBRANCH  10  13
ENDBRANCH   1   7
BRANCH   6  15
HETATM   15  C9  UNL     1      22.668   0.388  52.171  1.00  0.00     0.062 C 
HETATM   16  C10 UNL     1      21.728   0.606  53.071  1.00  0.00     0.025 C 
HETATM   17  C11 UNL     1      20.900   1.814  53.055  1.00  0.00     0.053 C 
BRANCH  16  18
HETATM   18  C12 UNL     1      21.516  -0.434  54.140  1.00  0.00     0.413 C 
HETATM   19  F1  UNL     1      22.754  -1.031  54.322  1.00  0.00    -0.166 F 
HETATM   20  F2  UNL     1      21.171   0.163  55.334  1.00  0.00    -0.166 F 
HETATM   21  F3  UNL     1      20.547  -1.339  53.782  1.00  0.00    -0.166 F 
ENDBRANCH  16  18
ENDBRANCH   6  15
TORSDOF 4
ENDMDL
MODEL 7
REMARK VINA RESULT:      -6.8      2.770      5.046
REMARK  4 active torsions:
REMARK  status: ('A' for Active; 'I' for Inactive)
REMARK    1  A    between atoms: O1_2  and  C2_3 
REMARK    2  A    between atoms: C5_6  and  N1_7 
REMARK    3  A    between atoms: C8_12  and  C9_13 
REMARK    4  A    between atoms: C10_14  and  C12_16 
ROOT
HETATM    1  N1  UNL     1      24.622   2.892  50.943  1.00  0.00    -0.317 N 
HETATM    2  C6  UNL     1      24.109   4.152  50.445  1.00  0.00     0.281 A 
HETATM    3  N2  UNL     1      25.184   4.916  49.866  1.00  0.00    -0.263 NA
HETATM    4  C7  UNL     1      26.381   4.470  49.839  1.00  0.00     0.230 A 
HETATM    5  N3  UNL     1      26.811   3.215  50.351  1.00  0.00    -0.225 NA
HETATM    6  C8  UNL     1      25.962   2.421  50.900  1.00  0.00     0.133 A 
ENDROOT
BRANCH   1   7
HETATM    7  C5  UNL     1      23.650   2.019  51.554  1.00  0.00     0.015 A 
HETATM    8  C4  UNL     1      23.798   1.886  52.854  1.00  0.00     0.027 A 
HETATM    9  C3  UNL     1      22.804   0.999  53.436  1.00  0.00     0.034 A 
HETATM   10  C2  UNL     1      21.982   0.535  52.517  1.00  0.00     0.046 A 
HETATM   11  C14 UNL     1      21.735   0.622  51.063  1.00  0.00     0.070 A 
HETATM   12  C13 UNL     1      22.772   1.540  50.468  1.00  0.00     0.064 A 
BRANCH  10  13
HETATM   13  O1  UNL     1      20.996  -0.330  53.024  1.00  0.00    -0.360 OA
HETATM   14  C1  UNL     1      21.279  -1.243  54.066  1.00  0.00     0.209 C 
ENDBRANCH  10  13
ENDBRANCH   1   7
BRANCH   6  15
HETATM   15  C9  UNL     1      26.322   1.121  51.448  1.00  0.00     0.062 C 
HETATM   16  C10 UNL     1      27.095   1.032  52.514  1.00  0.00     0.025 C 
HETATM   17  C11 UNL     1      27.625   2.216  53.194  1.00  0.00     0.053 C 
BRANCH  16  18
HETATM   18  C12 UNL     1      27.431  -0.343  53.032  1.00  0.00     0.413 C 
HETATM   19  F1  UNL     1      26.899  -1.225  52.105  1.00  0.00    -0.166 F 
HETATM   20  F2  UNL     1      28.796  -0.535  53.043  1.00  0.00    -0.166 F 
HETATM   21  F3  UNL     1      26.928  -0.545  54.295  1.00  0.00    -0.166 F 
ENDBRANCH  16  18
ENDBRANCH   6  15
TORSDOF 4
ENDMDL
MODEL 8
REMARK VINA RESULT:      -6.6      3.808      5.796
REMARK  4 active torsions:
REMARK  status: ('A' for Active; 'I' for Inactive)
REMARK    1  A    between atoms: O1_2  and  C2_3 
REMARK    2  A    between atoms: C5_6  and  N1_7 
REMARK    3  A    between atoms: C8_12  and  C9_13 
REMARK    4  A    between atoms: C10_14  and  C12_16 
ROOT
HETATM    1  N1  UNL     1      24.415   0.552  53.468  1.00  0.00    -0.317 N 
HETATM    2  C6  UNL     1      23.104  -0.050  53.348  1.00  0.00     0.281 A 
HETATM    3  N2  UNL     1      22.981  -1.133  54.289  1.00  0.00    -0.263 NA
HETATM    4  C7  UNL     1      23.938  -1.446  55.076  1.00  0.00     0.230 A 
HETATM    5  N3  UNL     1      25.206  -0.805  55.136  1.00  0.00    -0.225 NA
HETATM    6  C8  UNL     1      25.464   0.182  54.353  1.00  0.00     0.133 A 
ENDROOT
BRANCH   1   7
HETATM    7  C5  UNL     1      24.681   1.656  52.580  1.00  0.00     0.015 A 
HETATM    8  C4  UNL     1      25.499   1.360  51.593  1.00  0.00     0.027 A 
HETATM    9  C3  UNL     1      25.744   2.496  50.719  1.00  0.00     0.034 A 
HETATM   10  C2  UNL     1      25.084   3.561  51.123  1.00  0.00     0.046 A 
HETATM   11  C14 UNL     1      24.159   3.988  52.193  1.00  0.00     0.070 A 
HETATM   12  C13 UNL     1      23.913   2.807  53.095  1.00  0.00     0.064 A 
BRANCH  10  13
HETATM   13  O1  UNL     1      25.284   4.693  50.312  1.00  0.00    -0.360 OA
HETATM   14  C1  UNL     1      24.595   4.856  49.088  1.00  0.00     0.209 C 
ENDBRANCH  10  13
ENDBRANCH   1   7
BRANCH   6  15
HETATM   15  C9  UNL     1      26.736   0.891  54.353  1.00  0.00     0.062 C 
HETATM   16  C10 UNL     1      27.811   0.342  53.819  1.00  0.00     0.025 C 
HETATM   17  C11 UNL     1      27.784  -0.988  53.206  1.00  0.00     0.053 C 
BRANCH  16  18
HETATM   18  C12 UNL     1      29.097   1.127  53.850  1.00  0.00     0.413 C 
HETATM   19  F1  UNL     1      30.028   0.333  53.199  1.00  0.00    -0.166 F 
HETATM   20  F2  UNL     1      28.971   2.290  53.123  1.00  0.00    -0.166 F 
HETATM   21  F3  UNL     1      29.475   1.428  55.136  1.00  0.00    -0.166 F 
ENDBRANCH  16  18
ENDBRANCH   6  15
TORSDOF 4
ENDMDL
MODEL 9
REMARK VINA RESULT:      -6.6      3.314      4.597
REMARK  4 active torsions:
REMARK  status: ('A' for Active; 'I' for Inactive)
REMARK    1  A    between atoms: O1_2  and  C2_3 
REMARK    2  A    between atoms: C5_6  and  N1_7 
REMARK    3  A    between atoms: C8_12  and  C9_13 
REMARK    4  A    between atoms: C10_14  and  C12_16 
ROOT
HETATM    1  N1  UNL     1      23.577  -0.337  53.705  1.00  0.00    -0.317 N 
HETATM    2  C6  UNL     1      23.983  -0.832  55.005  1.00  0.00     0.281 A 
HETATM    3  N2  UNL     1      22.917  -1.612  55.579  1.00  0.00    -0.263 NA
HETATM    4  C7  UNL     1      21.812  -1.790  54.963  1.00  0.00     0.230 A 
HETATM    5  N3  UNL     1      21.484  -1.268  53.681  1.00  0.00    -0.225 NA
HETATM    6  C8  UNL     1      22.338  -0.549  53.042  1.00  0.00     0.133 A 
ENDROOT
BRANCH   1   7
HETATM    7  C5  UNL     1      24.551   0.467  53.009  1.00  0.00     0.015 A 
HETATM    8  C4  UNL     1      25.532  -0.229  52.477  1.00  0.00     0.027 A 
HETATM    9  C3  UNL     1      26.494   0.612  51.784  1.00  0.00     0.034 A 
HETATM   10  C2  UNL     1      26.154   1.883  51.852  1.00  0.00     0.046 A 
HETATM   11  C14 UNL     1      25.096   2.749  52.412  1.00  0.00     0.070 A 
HETATM   12  C13 UNL     1      24.105   1.869  53.130  1.00  0.00     0.064 A 
BRANCH  10  13
HETATM   13  O1  UNL     1      27.051   2.745  51.197  1.00  0.00    -0.360 OA
HETATM   14  C1  UNL     1      26.662   3.493  50.062  1.00  0.00     0.209 C 
ENDBRANCH  10  13
ENDBRANCH   1   7
BRANCH   6  15
HETATM   15  C9  UNL     1      22.078   0.020  51.728  1.00  0.00     0.062 C 
HETATM   16  C10 UNL     1      21.216   1.010  51.582  1.00  0.00     0.025 C 
HETATM   17  C11 UNL     1      20.485   1.579  52.716  1.00  0.00     0.053 C 
BRANCH  16  18
HETATM   18  C12 UNL     1      20.992   1.555  50.196  1.00  0.00     0.413 C 
HETATM   19  F1  UNL     1      22.215   1.442  49.554  1.00  0.00    -0.166 F 
HETATM   20  F2  UNL     1      20.094   0.769  49.506  1.00  0.00    -0.166 F 
HETATM   21  F3  UNL     1      20.537   2.851  50.229  1.00  0.00    -0.166 F 
ENDBRANCH  16  18
ENDBRANCH   6  15
TORSDOF 4
ENDMDL
