MODEL 1
REMARK VINA RESULT:      -8.8      0.000      0.000
REMARK  3 active torsions:
REMARK  status: ('A' for Active; 'I' for Inactive)
REMARK    1  A    between atoms: C7_7  and  N1_8 
REMARK    2  A    between atoms: N1_8  and  C8_9 
REMARK    3  A    between atoms: C13_16  and  N4_17 
REMARK       I    between atoms: N4_17  and  C14_18 
REMARK       I    between atoms: C14_18  and  N5_19 
ROOT
HETATM    1  C1  UNL     1      30.217   5.576  47.859  1.00  0.00     0.018 C 
HETATM    2  C2  UNL     1      29.074   5.487  48.214  1.00  0.00    -0.078 C 
HETATM    3  C3  UNL     1      27.708   5.387  48.664  1.00  0.00     0.019 A 
HETATM    4  C4  UNL     1      26.938   6.509  48.725  1.00  0.00     0.021 A 
HETATM    5  C5  UNL     1      25.636   6.392  49.157  1.00  0.00     0.004 A 
HETATM    6  C6  UNL     1      25.177   5.148  49.505  1.00  0.00     0.029 A 
HETATM    7  C7  UNL     1      25.899   3.974  49.468  1.00  0.00     0.035 A 
HETATM    8  C16 UNL     1      27.190   4.169  49.026  1.00  0.00     0.050 A 
ENDROOT
BRANCH   7   9
HETATM    9  N1  UNL     1      25.434   2.685  49.824  1.00  0.00    -0.340 N 
HETATM   10  H5  UNL     1      25.714   1.927  49.160  1.00  0.00     0.167 HD
BRANCH   9  11
HETATM   11  C8  UNL     1      24.652   2.349  50.959  1.00  0.00     0.142 A 
HETATM   12  N2  UNL     1      23.466   2.829  51.280  1.00  0.00    -0.224 NA
HETATM   13  C9  UNL     1      22.824   2.431  52.385  1.00  0.00     0.236 A 
HETATM   14  N3  UNL     1      23.350   1.520  53.228  1.00  0.00    -0.240 NA
HETATM   15  C10 UNL     1      24.562   0.972  52.982  1.00  0.00     0.085 A 
HETATM   16  C11 UNL     1      25.188   1.408  51.838  1.00  0.00     0.042 A 
HETATM   17  C15 UNL     1      25.311   0.094  53.592  1.00  0.00     0.035 A 
HETATM   18  C12 UNL     1      26.346   0.720  51.834  1.00  0.00     0.048 A 
HETATM   19  C13 UNL     1      26.444  -0.160  52.996  1.00  0.00     0.051 A 
BRANCH  19  20
HETATM   20  N4  UNL     1      27.502  -1.043  53.352  1.00  0.00    -0.308 N 
HETATM   21  C14 UNL     1      27.518  -2.340  52.768  1.00  0.00     0.318 C 
HETATM   22  N5  UNL     1      28.562  -3.238  53.110  1.00  0.00    -0.352 N 
HETATM   23  O1  UNL     1      26.693  -2.792  51.965  1.00  0.00    -0.247 OA
HETATM   24  H9  UNL     1      28.472  -4.298  53.125  1.00  0.00     0.160 HD
HETATM   25  H10 UNL     1      29.580  -3.220  53.408  1.00  0.00     0.160 HD
HETATM   26  H8  UNL     1      28.209  -0.683  54.028  1.00  0.00     0.170 HD
ENDBRANCH  19  20
ENDBRANCH   9  11
ENDBRANCH   7   9
TORSDOF 3
ENDMDL
MODEL 2
REMARK VINA RESULT:      -8.3      2.305      3.400
REMARK  3 active torsions:
REMARK  status: ('A' for Active; 'I' for Inactive)
REMARK    1  A    between atoms: C7_7  and  N1_8 
REMARK    2  A    between atoms: N1_8  and  C8_9 
REMARK    3  A    between atoms: C13_16  and  N4_17 
REMARK       I    between atoms: N4_17  and  C14_18 
REMARK       I    between atoms: C14_18  and  N5_19 
ROOT
HETATM    1  C1  UNL     1      29.464   5.938  47.962  1.00  0.00     0.018 C 
HETATM    2  C2  UNL     1      28.384   5.579  48.345  1.00  0.00    -0.078 C 
HETATM    3  C3  UNL     1      27.091   5.162  48.825  1.00  0.00     0.019 A 
HETATM    4  C4  UNL     1      26.004   5.951  48.596  1.00  0.00     0.021 A 
HETATM    5  C5  UNL     1      24.778   5.534  49.062  1.00  0.00     0.004 A 
HETATM    6  C6  UNL     1      24.710   4.342  49.735  1.00  0.00     0.029 A 
HETATM    7  C7  UNL     1      25.766   3.496  50.002  1.00  0.00     0.035 A 
HETATM    8  C16 UNL     1      26.958   3.978  49.505  1.00  0.00     0.050 A 
ENDROOT
BRANCH   7   9
HETATM    9  N1  UNL     1      25.706   2.264  50.695  1.00  0.00    -0.340 N 
HETATM   10  H5  UNL     1      25.097   1.543  50.241  1.00  0.00     0.167 HD
BRANCH   9  11
HETATM   11  C8  UNL     1      26.373   1.936  51.903  1.00  0.00     0.142 A 
HETATM   12  N2  UNL     1      27.546   2.381  52.311  1.00  0.00    -0.224 NA
HETATM   13  C9  UNL     1      28.075   1.995  53.479  1.00  0.00     0.236 A 
HETATM   14  N3  UNL     1      27.441   1.135  54.301  1.00  0.00    -0.240 NA
HETATM   15  C10 UNL     1      26.234   0.625  53.967  1.00  0.00     0.085 A 
HETATM   16  C11 UNL     1      25.726   1.046  52.760  1.00  0.00     0.042 A 
HETATM   17  C15 UNL     1      25.400  -0.203  54.536  1.00  0.00     0.035 A 
HETATM   18  C12 UNL     1      24.545   0.403  52.677  1.00  0.00     0.048 A 
HETATM   19  C13 UNL     1      24.312  -0.433  53.851  1.00  0.00     0.051 A 
BRANCH  19  20
HETATM   20  N4  UNL     1      23.192  -1.263  54.142  1.00  0.00    -0.308 N 
HETATM   21  C14 UNL     1      21.917  -0.646  54.271  1.00  0.00     0.318 C 
HETATM   22  N5  UNL     1      20.787  -1.453  54.561  1.00  0.00    -0.352 N 
HETATM   23  O1  UNL     1      21.672   0.561  54.154  1.00  0.00    -0.247 OA
HETATM   24  H9  UNL     1      19.929  -1.126  55.099  1.00  0.00     0.160 HD
HETATM   25  H10 UNL     1      20.435  -2.441  54.401  1.00  0.00     0.160 HD
HETATM   26  H8  UNL     1      23.376  -2.283  54.244  1.00  0.00     0.170 HD
ENDBRANCH  19  20
ENDBRANCH   9  11
ENDBRANCH   7   9
TORSDOF 3
ENDMDL
MODEL 3
REMARK VINA RESULT:      -8.3      1.857      2.361
REMARK  3 active torsions:
REMARK  status: ('A' for Active; 'I' for Inactive)
REMARK    1  A    between atoms: C7_7  and  N1_8 
REMARK    2  A    between atoms: N1_8  and  C8_9 
REMARK    3  A    between atoms: C13_16  and  N4_17 
REMARK       I    between atoms: N4_17  and  C14_18 
REMARK       I    between atoms: C14_18  and  N5_19 
ROOT
HETATM    1  C1  UNL     1      28.076   5.388  48.322  1.00  0.00     0.018 C 
HETATM    2  C2  UNL     1      27.029   5.246  48.891  1.00  0.00    -0.078 C 
HETATM    3  C3  UNL     1      25.783   5.074  49.596  1.00  0.00     0.019 A 
HETATM    4  C4  UNL     1      25.178   6.157  50.161  1.00  0.00     0.021 A 
HETATM    5  C5  UNL     1      23.989   5.971  50.830  1.00  0.00     0.004 A 
HETATM    6  C6  UNL     1      23.472   4.704  50.894  1.00  0.00     0.029 A 
HETATM    7  C7  UNL     1      24.029   3.568  50.348  1.00  0.00     0.035 A 
HETATM    8  C16 UNL     1      25.214   3.830  49.695  1.00  0.00     0.050 A 
ENDROOT
BRANCH   7   9
HETATM    9  N1  UNL     1      23.501   2.255  50.408  1.00  0.00    -0.340 N 
HETATM   10  H5  UNL     1      23.306   1.826  49.474  1.00  0.00     0.167 HD
BRANCH   9  11
HETATM   11  C8  UNL     1      23.227   1.504  51.580  1.00  0.00     0.142 A 
HETATM   12  N2  UNL     1      22.050   1.297  52.137  1.00  0.00    -0.224 NA
HETATM   13  C9  UNL     1      21.919   0.565  53.250  1.00  0.00     0.236 A 
HETATM   14  N3  UNL     1      22.978   0.001  53.863  1.00  0.00    -0.240 NA
HETATM   15  C10 UNL     1      24.226   0.157  53.365  1.00  0.00     0.085 A 
HETATM   16  C11 UNL     1      24.318   0.916  52.222  1.00  0.00     0.042 A 
HETATM   17  C15 UNL     1      25.413  -0.252  53.723  1.00  0.00     0.035 A 
HETATM   18  C12 UNL     1      25.636   0.911  51.949  1.00  0.00     0.048 A 
HETATM   19  C13 UNL     1      26.381   0.138  52.938  1.00  0.00     0.051 A 
BRANCH  19  20
HETATM   20  N4  UNL     1      27.782  -0.106  53.003  1.00  0.00    -0.308 N 
HETATM   21  C14 UNL     1      28.606   0.877  53.617  1.00  0.00     0.318 C 
HETATM   22  N5  UNL     1      30.005   0.656  53.692  1.00  0.00    -0.352 N 
HETATM   23  O1  UNL     1      28.226   1.945  54.113  1.00  0.00    -0.247 OA
HETATM   24  H9  UNL     1      30.743   1.423  53.697  1.00  0.00     0.160 HD
HETATM   25  H10 UNL     1      30.696  -0.147  53.757  1.00  0.00     0.160 HD
HETATM   26  H8  UNL     1      28.124  -1.000  52.592  1.00  0.00     0.170 HD
ENDBRANCH  19  20
ENDBRANCH   9  11
ENDBRANCH   7   9
TORSDOF 3
ENDMDL
MODEL 4
REMARK VINA RESULT:      -8.3      4.431      6.727
REMARK  3 active torsions:
REMARK  status: ('A' for Active; 'I' for Inactive)
REMARK    1  A    between atoms: C7_7  and  N1_8 
REMARK    2  A    between atoms: N1_8  and  C8_9 
REMARK    3  A    between atoms: C13_16  and  N4_17 
REMARK       I    between atoms: N4_17  and  C14_18 
REMARK       I    between atoms: C14_18  and  N5_19 
ROOT
HETATM    1  C1  UNL     1      30.167  -1.926  53.764  1.00  0.00     0.018 C 
HETATM    2  C2  UNL     1      29.388  -1.024  53.615  1.00  0.00    -0.078 C 
HETATM    3  C3  UNL     1      28.450   0.060  53.462  1.00  0.00     0.019 A 
HETATM    4  C4  UNL     1      28.888   1.346  53.574  1.00  0.00     0.021 A 
HETATM    5  C5  UNL     1      27.976   2.366  53.423  1.00  0.00     0.004 A 
HETATM    6  C6  UNL     1      26.671   2.038  53.168  1.00  0.00     0.029 A 
HETATM    7  C7  UNL     1      26.161   0.763  53.042  1.00  0.00     0.035 A 
HETATM    8  C16 UNL     1      27.129  -0.204  53.204  1.00  0.00     0.050 A 
ENDROOT
BRANCH   7   9
HETATM    9  N1  UNL     1      24.815   0.415  52.777  1.00  0.00    -0.340 N 
HETATM   10  H5  UNL     1      24.488   0.657  51.813  1.00  0.00     0.167 HD
BRANCH   9  11
HETATM   11  C8  UNL     1      23.908  -0.210  53.672  1.00  0.00     0.142 A 
HETATM   12  N2  UNL     1      24.206  -0.958  54.716  1.00  0.00    -0.224 NA
HETATM   13  C9  UNL     1      23.255  -1.496  55.490  1.00  0.00     0.236 A 
HETATM   14  N3  UNL     1      21.944  -1.305  55.246  1.00  0.00    -0.240 NA
HETATM   15  C10 UNL     1      21.540  -0.552  54.197  1.00  0.00     0.085 A 
HETATM   16  C11 UNL     1      22.548  -0.019  53.428  1.00  0.00     0.042 A 
HETATM   17  C15 UNL     1      20.379  -0.196  53.718  1.00  0.00     0.035 A 
HETATM   18  C12 UNL     1      21.885   0.668  52.477  1.00  0.00     0.048 A 
HETATM   19  C13 UNL     1      20.440   0.560  52.655  1.00  0.00     0.051 A 
BRANCH  19  20
HETATM   20  N4  UNL     1      19.403   1.135  51.866  1.00  0.00    -0.308 N 
HETATM   21  C14 UNL     1      19.243   2.548  51.897  1.00  0.00     0.318 C 
HETATM   22  N5  UNL     1      18.216   3.144  51.121  1.00  0.00    -0.352 N 
HETATM   23  O1  UNL     1      19.924   3.348  52.550  1.00  0.00    -0.247 OA
HETATM   24  H9  UNL     1      17.712   4.047  51.370  1.00  0.00     0.160 HD
HETATM   25  H10 UNL     1      17.681   2.975  50.220  1.00  0.00     0.160 HD
HETATM   26  H8  UNL     1      18.817   0.479  51.308  1.00  0.00     0.170 HD
ENDBRANCH  19  20
ENDBRANCH   9  11
ENDBRANCH   7   9
TORSDOF 3
ENDMDL
MODEL 5
REMARK VINA RESULT:      -8.2      3.986      7.236
REMARK  3 active torsions:
REMARK  status: ('A' for Active; 'I' for Inactive)
REMARK    1  A    between atoms: C7_7  and  N1_8 
REMARK    2  A    between atoms: N1_8  and  C8_9 
REMARK    3  A    between atoms: C13_16  and  N4_17 
REMARK       I    between atoms: N4_17  and  C14_18 
REMARK       I    between atoms: C14_18  and  N5_19 
ROOT
HETATM    1  C1  UNL     1      27.802   0.147  54.816  1.00  0.00     0.018 C 
HETATM    2  C2  UNL     1      26.628  -0.078  54.704  1.00  0.00    -0.078 C 
HETATM    3  C3  UNL     1      25.223  -0.370  54.559  1.00  0.00     0.019 A 
HETATM    4  C4  UNL     1      24.597  -1.132  55.500  1.00  0.00     0.021 A 
HETATM    5  C5  UNL     1      23.255  -1.398  55.343  1.00  0.00     0.004 A 
HETATM    6  C6  UNL     1      22.615  -0.883  54.247  1.00  0.00     0.029 A 
HETATM    7  C7  UNL     1      23.185  -0.108  53.260  1.00  0.00     0.035 A 
HETATM    8  C16 UNL     1      24.526   0.117  53.483  1.00  0.00     0.050 A 
ENDROOT
BRANCH   7   9
HETATM    9  N1  UNL     1      22.532   0.429  52.124  1.00  0.00    -0.340 N 
HETATM   10  H5  UNL     1      22.869   0.045  51.211  1.00  0.00     0.167 HD
BRANCH   9  11
HETATM   11  C8  UNL     1      21.500   1.403  52.120  1.00  0.00     0.142 A 
HETATM   12  N2  UNL     1      20.200   1.187  52.106  1.00  0.00    -0.224 NA
HETATM   13  C9  UNL     1      19.320   2.196  52.103  1.00  0.00     0.236 A 
HETATM   14  N3  UNL     1      19.713   3.486  52.115  1.00  0.00    -0.240 NA
HETATM   15  C10 UNL     1      21.027   3.806  52.130  1.00  0.00     0.085 A 
HETATM   16  C11 UNL     1      21.897   2.741  52.131  1.00  0.00     0.042 A 
HETATM   17  C15 UNL     1      21.696   4.927  52.142  1.00  0.00     0.035 A 
HETATM   18  C12 UNL     1      23.109   3.328  52.147  1.00  0.00     0.048 A 
HETATM   19  C13 UNL     1      22.994   4.783  52.154  1.00  0.00     0.051 A 
BRANCH  19  20
HETATM   20  N4  UNL     1      24.034   5.756  52.170  1.00  0.00    -0.308 N 
HETATM   21  C14 UNL     1      24.566   6.188  50.925  1.00  0.00     0.318 C 
HETATM   22  N5  UNL     1      25.604   7.156  50.916  1.00  0.00    -0.352 N 
HETATM   23  O1  UNL     1      24.213   5.802  49.804  1.00  0.00    -0.247 OA
HETATM   24  H9  UNL     1      26.358   7.232  50.169  1.00  0.00     0.160 HD
HETATM   25  H10 UNL     1      25.952   7.974  51.494  1.00  0.00     0.160 HD
HETATM   26  H8  UNL     1      24.346   6.096  53.104  1.00  0.00     0.170 HD
ENDBRANCH  19  20
ENDBRANCH   9  11
ENDBRANCH   7   9
TORSDOF 3
ENDMDL
MODEL 6
REMARK VINA RESULT:      -8.2      2.982      7.114
REMARK  3 active torsions:
REMARK  status: ('A' for Active; 'I' for Inactive)
REMARK    1  A    between atoms: C7_7  and  N1_8 
REMARK    2  A    between atoms: N1_8  and  C8_9 
REMARK    3  A    between atoms: C13_16  and  N4_17 
REMARK       I    between atoms: N4_17  and  C14_18 
REMARK       I    between atoms: C14_18  and  N5_19 
ROOT
HETATM    1  C1  UNL     1      19.494   1.022  50.517  1.00  0.00     0.018 C 
HETATM    2  C2  UNL     1      20.159   0.613  51.429  1.00  0.00    -0.078 C 
HETATM    3  C3  UNL     1      20.961   0.145  52.532  1.00  0.00     0.019 A 
HETATM    4  C4  UNL     1      20.395   0.014  53.764  1.00  0.00     0.021 A 
HETATM    5  C5  UNL     1      21.178  -0.435  54.803  1.00  0.00     0.004 A 
HETATM    6  C6  UNL     1      22.492  -0.728  54.546  1.00  0.00     0.029 A 
HETATM    7  C7  UNL     1      23.128  -0.619  53.328  1.00  0.00     0.035 A 
HETATM    8  C16 UNL     1      22.283  -0.165  52.338  1.00  0.00     0.050 A 
ENDROOT
BRANCH   7   9
HETATM    9  N1  UNL     1      24.483  -0.920  53.053  1.00  0.00    -0.340 N 
HETATM   10  H5  UNL     1      24.622  -1.695  52.364  1.00  0.00     0.167 HD
BRANCH   9  11
HETATM   11  C8  UNL     1      25.624  -0.286  53.611  1.00  0.00     0.142 A 
HETATM   12  N2  UNL     1      26.245  -0.604  54.729  1.00  0.00    -0.224 NA
HETATM   13  C9  UNL     1      27.318   0.074  55.154  1.00  0.00     0.236 A 
HETATM   14  N3  UNL     1      27.822   1.117  54.465  1.00  0.00    -0.240 NA
HETATM   15  C10 UNL     1      27.252   1.518  53.305  1.00  0.00     0.085 A 
HETATM   16  C11 UNL     1      26.152   0.795  52.905  1.00  0.00     0.042 A 
HETATM   17  C15 UNL     1      27.502   2.463  52.441  1.00  0.00     0.035 A 
HETATM   18  C12 UNL     1      25.791   1.390  51.752  1.00  0.00     0.048 A 
HETATM   19  C13 UNL     1      26.679   2.503  51.428  1.00  0.00     0.051 A 
BRANCH  19  20
HETATM   20  N4  UNL     1      26.633   3.376  50.304  1.00  0.00    -0.308 N 
HETATM   21  C14 UNL     1      25.558   4.302  50.218  1.00  0.00     0.318 C 
HETATM   22  N5  UNL     1      25.491   5.181  49.107  1.00  0.00    -0.352 N 
HETATM   23  O1  UNL     1      24.637   4.434  51.034  1.00  0.00    -0.247 OA
HETATM   24  H9  UNL     1      24.592   5.572  48.693  1.00  0.00     0.160 HD
HETATM   25  H10 UNL     1      26.137   5.673  48.423  1.00  0.00     0.160 HD
HETATM   26  H8  UNL     1      27.399   3.282  49.604  1.00  0.00     0.170 HD
ENDBRANCH  19  20
ENDBRANCH   9  11
ENDBRANCH   7   9
TORSDOF 3
ENDMDL
MODEL 7
REMARK VINA RESULT:      -8.0      3.181      5.754
REMARK  3 active torsions:
REMARK  status: ('A' for Active; 'I' for Inactive)
REMARK    1  A    between atoms: C7_7  and  N1_8 
REMARK    2  A    between atoms: N1_8  and  C8_9 
REMARK    3  A    between atoms: C13_16  and  N4_17 
REMARK       I    between atoms: N4_17  and  C14_18 
REMARK       I    between atoms: C14_18  and  N5_19 
ROOT
HETATM    1  C1  UNL     1      27.926  -2.762  52.806  1.00  0.00     0.018 C 
HETATM    2  C2  UNL     1      28.024  -1.583  53.015  1.00  0.00    -0.078 C 
HETATM    3  C3  UNL     1      28.136  -0.173  53.291  1.00  0.00     0.019 A 
HETATM    4  C4  UNL     1      29.300   0.321  53.800  1.00  0.00     0.021 A 
HETATM    5  C5  UNL     1      29.386   1.671  54.055  1.00  0.00     0.004 A 
HETATM    6  C6  UNL     1      28.294   2.453  53.784  1.00  0.00     0.029 A 
HETATM    7  C7  UNL     1      27.090   2.022  53.271  1.00  0.00     0.035 A 
HETATM    8  C16 UNL     1      27.078   0.663  53.040  1.00  0.00     0.050 A 
ENDROOT
BRANCH   7   9
HETATM    9  N1  UNL     1      25.957   2.823  52.987  1.00  0.00    -0.340 N 
HETATM   10  H5  UNL     1      25.670   3.456  53.769  1.00  0.00     0.167 HD
BRANCH   9  11
HETATM   11  C8  UNL     1      25.210   2.840  51.781  1.00  0.00     0.142 A 
HETATM   12  N2  UNL     1      25.570   3.368  50.628  1.00  0.00    -0.224 NA
HETATM   13  C9  UNL     1      24.772   3.320  49.554  1.00  0.00     0.236 A 
HETATM   14  N3  UNL     1      23.560   2.730  49.591  1.00  0.00    -0.240 NA
HETATM   15  C10 UNL     1      23.105   2.161  50.730  1.00  0.00     0.085 A 
HETATM   16  C11 UNL     1      23.954   2.233  51.809  1.00  0.00     0.042 A 
HETATM   17  C15 UNL     1      22.010   1.536  51.067  1.00  0.00     0.035 A 
HETATM   18  C12 UNL     1      23.272   1.605  52.786  1.00  0.00     0.048 A 
HETATM   19  C13 UNL     1      21.974   1.134  52.309  1.00  0.00     0.051 A 
BRANCH  19  20
HETATM   20  N4  UNL     1      20.966   0.431  53.027  1.00  0.00    -0.308 N 
HETATM   21  C14 UNL     1      21.304  -0.826  53.600  1.00  0.00     0.318 C 
HETATM   22  N5  UNL     1      20.316  -1.545  54.320  1.00  0.00    -0.352 N 
HETATM   23  O1  UNL     1      22.406  -1.386  53.539  1.00  0.00    -0.247 OA
HETATM   24  H9  UNL     1      20.273  -2.605  54.400  1.00  0.00     0.160 HD
HETATM   25  H10 UNL     1      19.453  -1.365  54.910  1.00  0.00     0.160 HD
HETATM   26  H8  UNL     1      20.031   0.885  53.092  1.00  0.00     0.170 HD
ENDBRANCH  19  20
ENDBRANCH   9  11
ENDBRANCH   7   9
TORSDOF 3
ENDMDL
MODEL 8
REMARK VINA RESULT:      -7.8      3.832      7.543
REMARK  3 active torsions:
REMARK  status: ('A' for Active; 'I' for Inactive)
REMARK    1  A    between atoms: C7_7  and  N1_8 
REMARK    2  A    between atoms: N1_8  and  C8_9 
REMARK    3  A    between atoms: C13_16  and  N4_17 
REMARK       I    between atoms: N4_17  and  C14_18 
REMARK       I    between atoms: C14_18  and  N5_19 
ROOT
HETATM    1  C1  UNL     1      21.473  -1.055  54.581  1.00  0.00     0.018 C 
HETATM    2  C2  UNL     1      22.314  -0.497  53.931  1.00  0.00    -0.078 C 
HETATM    3  C3  UNL     1      23.326   0.191  53.168  1.00  0.00     0.019 A 
HETATM    4  C4  UNL     1      24.641  -0.023  53.452  1.00  0.00     0.021 A 
HETATM    5  C5  UNL     1      25.591   0.643  52.712  1.00  0.00     0.004 A 
HETATM    6  C6  UNL     1      25.166   1.492  51.723  1.00  0.00     0.029 A 
HETATM    7  C7  UNL     1      23.856   1.755  51.384  1.00  0.00     0.035 A 
HETATM    8  C16 UNL     1      22.964   1.054  52.165  1.00  0.00     0.050 A 
ENDROOT
BRANCH   7   9
HETATM    9  N1  UNL     1      23.408   2.629  50.364  1.00  0.00    -0.340 N 
HETATM   10  H5  UNL     1      23.695   2.348  49.398  1.00  0.00     0.167 HD
BRANCH   9  11
HETATM   11  C8  UNL     1      22.633   3.805  50.535  1.00  0.00     0.142 A 
HETATM   12  N2  UNL     1      21.319   3.890  50.613  1.00  0.00    -0.224 NA
HETATM   13  C9  UNL     1      20.699   5.065  50.775  1.00  0.00     0.236 A 
HETATM   14  N3  UNL     1      21.381   6.225  50.868  1.00  0.00    -0.240 NA
HETATM   15  C10 UNL     1      22.731   6.238  50.799  1.00  0.00     0.085 A 
HETATM   16  C11 UNL     1      23.328   5.011  50.632  1.00  0.00     0.042 A 
HETATM   17  C15 UNL     1      23.642   7.172  50.854  1.00  0.00     0.035 A 
HETATM   18  C12 UNL     1      24.642   5.305  50.597  1.00  0.00     0.048 A 
HETATM   19  C13 UNL     1      24.869   6.740  50.743  1.00  0.00     0.051 A 
BRANCH  19  20
HETATM   20  N4  UNL     1      26.105   7.446  50.757  1.00  0.00    -0.308 N 
HETATM   21  C14 UNL     1      26.707   7.769  49.509  1.00  0.00     0.318 C 
HETATM   22  N5  UNL     1      27.939   8.472  49.499  1.00  0.00    -0.352 N 
HETATM   23  O1  UNL     1      26.260   7.497  48.389  1.00  0.00    -0.247 OA
HETATM   24  H9  UNL     1      28.681   8.387  48.741  1.00  0.00     0.160 HD
HETATM   25  H10 UNL     1      28.474   9.177  50.084  1.00  0.00     0.160 HD
HETATM   26  H8  UNL     1      26.500   7.687  51.691  1.00  0.00     0.170 HD
ENDBRANCH  19  20
ENDBRANCH   9  11
ENDBRANCH   7   9
TORSDOF 3
ENDMDL
MODEL 9
REMARK VINA RESULT:      -7.8      3.236      7.059
REMARK  3 active torsions:
REMARK  status: ('A' for Active; 'I' for Inactive)
REMARK    1  A    between atoms: C7_7  and  N1_8 
REMARK    2  A    between atoms: N1_8  and  C8_9 
REMARK    3  A    between atoms: C13_16  and  N4_17 
REMARK       I    between atoms: N4_17  and  C14_18 
REMARK       I    between atoms: C14_18  and  N5_19 
ROOT
HETATM    1  C1  UNL     1      17.317  -0.835  52.272  1.00  0.00     0.018 C 
HETATM    2  C2  UNL     1      18.438  -0.734  52.692  1.00  0.00    -0.078 C 
HETATM    3  C3  UNL     1      19.773  -0.608  53.219  1.00  0.00     0.019 A 
HETATM    4  C4  UNL     1      20.329  -1.653  53.895  1.00  0.00     0.021 A 
HETATM    5  C5  UNL     1      21.606  -1.511  54.389  1.00  0.00     0.004 A 
HETATM    6  C6  UNL     1      22.257  -0.324  54.177  1.00  0.00     0.029 A 
HETATM    7  C7  UNL     1      21.756   0.771  53.505  1.00  0.00     0.035 A 
HETATM    8  C16 UNL     1      20.477   0.556  53.039  1.00  0.00     0.050 A 
ENDROOT
BRANCH   7   9
HETATM    9  N1  UNL     1      22.420   2.001  53.281  1.00  0.00    -0.340 N 
HETATM   10  H5  UNL     1      22.435   2.640  54.109  1.00  0.00     0.167 HD
BRANCH   9  11
HETATM   11  C8  UNL     1      23.042   2.422  52.077  1.00  0.00     0.142 A 
HETATM   12  N2  UNL     1      22.477   3.054  51.068  1.00  0.00    -0.224 NA
HETATM   13  C9  UNL     1      23.173   3.401  49.978  1.00  0.00     0.236 A 
HETATM   14  N3  UNL     1      24.487   3.125  49.853  1.00  0.00    -0.240 NA
HETATM   15  C10 UNL     1      25.153   2.480  50.837  1.00  0.00     0.085 A 
HETATM   16  C11 UNL     1      24.401   2.141  51.938  1.00  0.00     0.042 A 
HETATM   17  C15 UNL     1      26.386   2.084  51.002  1.00  0.00     0.035 A 
HETATM   18  C12 UNL     1      25.288   1.526  52.744  1.00  0.00     0.048 A 
HETATM   19  C13 UNL     1      26.615   1.479  52.136  1.00  0.00     0.051 A 
BRANCH  19  20
HETATM   20  N4  UNL     1      27.813   0.919  52.662  1.00  0.00    -0.308 N 
HETATM   21  C14 UNL     1      28.534   1.669  53.631  1.00  0.00     0.318 C 
HETATM   22  N5  UNL     1      29.732   1.131  54.169  1.00  0.00    -0.352 N 
HETATM   23  O1  UNL     1      28.224   2.781  54.076  1.00  0.00    -0.247 OA
HETATM   24  H9  UNL     1      30.555   1.708  54.518  1.00  0.00     0.160 HD
HETATM   25  H10 UNL     1      30.171   0.189  54.384  1.00  0.00     0.160 HD
HETATM   26  H8  UNL     1      28.092  -0.018  52.302  1.00  0.00     0.170 HD
ENDBRANCH  19  20
ENDBRANCH   9  11
ENDBRANCH   7   9
TORSDOF 3
ENDMDL
