MODEL 1
REMARK VINA RESULT:      -7.7      0.000      0.000
REMARK  9 active torsions:
REMARK  status: ('A' for Active; 'I' for Inactive)
REMARK    1  A    between atoms: C2_2  and  C3_3 
REMARK       I    between atoms: C3_3  and  N1_5 
REMARK    2  A    between atoms: N1_5  and  C4_6 
REMARK    3  A    between atoms: C8_10  and  C9_11 
REMARK    4  A    between atoms: C9_11  and  N2_12 
REMARK    5  A    between atoms: N2_12  and  C10_13 
REMARK    6  A    between atoms: C11_14  and  N3_15 
REMARK    7  A    between atoms: N3_15  and  C12_16 
REMARK    8  A    between atoms: C12_16  and  C13_17 
REMARK    9  A    between atoms: C16_23  and  O2_24 
ROOT
HETATM    1  N2  UNL     1      24.366   4.501  51.968  1.00  0.00    -0.379 N 
HETATM    2  H10 UNL     1      24.914   4.797  52.794  1.00  0.00     0.160 HD
ENDROOT
BRANCH   1   3
HETATM    3  C9  UNL     1      24.190   3.302  51.170  1.00  0.00     0.158 C 
BRANCH   3   4
HETATM    4  C8  UNL     1      24.469   2.054  51.872  1.00  0.00    -0.038 A 
HETATM    5  C7  UNL     1      23.428   1.337  52.429  1.00  0.00     0.009 A 
HETATM    6  C6  UNL     1      23.555   0.146  53.110  1.00  0.00     0.003 A 
HETATM    7  C5  UNL     1      24.793  -0.390  53.261  1.00  0.00     0.029 A 
HETATM    8  C4  UNL     1      25.900   0.267  52.730  1.00  0.00     0.035 A 
HETATM    9  C17 UNL     1      25.692   1.455  52.063  1.00  0.00     0.038 A 
BRANCH   8  10
HETATM   10  N1  UNL     1      27.193  -0.305  52.891  1.00  0.00    -0.324 N 
HETATM   11  C3  UNL     1      28.021   0.128  53.943  1.00  0.00     0.244 C 
HETATM   12  O1  UNL     1      27.897   0.964  54.853  1.00  0.00    -0.268 OA
HETATM   13  H4  UNL     1      27.516  -1.040  52.228  1.00  0.00     0.169 HD
BRANCH  11  14
HETATM   14  C2  UNL     1      29.341  -0.504  54.048  1.00  0.00     0.064 C 
HETATM   15  C1  UNL     1      29.656  -1.631  53.398  1.00  0.00     0.017 C 
ENDBRANCH  11  14
ENDBRANCH   8  10
ENDBRANCH   3   4
ENDBRANCH   1   3
BRANCH   1  16
HETATM   16  C10 UNL     1      23.567   5.566  51.487  1.00  0.00     0.129 A 
HETATM   17  C11 UNL     1      24.114   6.736  50.961  1.00  0.00     0.155 A 
HETATM   18  N4  UNL     1      23.325   7.715  50.520  1.00  0.00    -0.222 NA
HETATM   19  C15 UNL     1      21.984   7.646  50.550  1.00  0.00     0.238 A 
HETATM   20  N5  UNL     1      21.426   6.508  51.061  1.00  0.00    -0.215 NA
HETATM   21  C16 UNL     1      22.205   5.485  51.521  1.00  0.00     0.208 A 
BRANCH  17  22
HETATM   22  N3  UNL     1      25.550   6.853  50.917  1.00  0.00    -0.372 N 
HETATM   23  H11 UNL     1      26.140   6.319  51.568  1.00  0.00     0.161 HD
BRANCH  22  24
HETATM   24  C12 UNL     1      26.123   7.749  49.921  1.00  0.00     0.128 C 
BRANCH  24  25
HETATM   25  C13 UNL     1      26.880   6.923  48.953  1.00  0.00     0.073 C 
HETATM   26  C14 UNL     1      27.295   5.739  48.533  1.00  0.00     0.203 C 
HETATM   27 CL1  UNL     1      27.060   4.118  49.108  1.00  0.00    -0.262 Cl
ENDBRANCH  24  25
ENDBRANCH  22  24
ENDBRANCH  17  22
BRANCH  21  28
HETATM   28  O2  UNL     1      21.383   4.479  51.966  1.00  0.00    -0.248 OA
HETATM   29 BR1  UNL     1      20.340   3.398  50.888  1.00  0.00     0.107 Br
ENDBRANCH  21  28
ENDBRANCH   1  16
TORSDOF 9
ENDMDL
MODEL 2
REMARK VINA RESULT:      -7.4      3.930      7.046
REMARK  9 active torsions:
REMARK  status: ('A' for Active; 'I' for Inactive)
REMARK    1  A    between atoms: C2_2  and  C3_3 
REMARK       I    between atoms: C3_3  and  N1_5 
REMARK    2  A    between atoms: N1_5  and  C4_6 
REMARK    3  A    between atoms: C8_10  and  C9_11 
REMARK    4  A    between atoms: C9_11  and  N2_12 
REMARK    5  A    between atoms: N2_12  and  C10_13 
REMARK    6  A    between atoms: C11_14  and  N3_15 
REMARK    7  A    between atoms: N3_15  and  C12_16 
REMARK    8  A    between atoms: C12_16  and  C13_17 
REMARK    9  A    between atoms: C16_23  and  O2_24 
ROOT
HETATM    1  N2  UNL     1      25.544  -0.134  52.915  1.00  0.00    -0.379 N 
HETATM    2  H10 UNL     1      25.498  -0.211  51.884  1.00  0.00     0.160 HD
ENDROOT
BRANCH   1   3
HETATM    3  C9  UNL     1      24.763  -0.567  54.059  1.00  0.00     0.158 C 
BRANCH   3   4
HETATM    4  C8  UNL     1      23.319  -0.561  53.852  1.00  0.00    -0.038 A 
HETATM    5  C7  UNL     1      22.501  -1.249  54.727  1.00  0.00     0.009 A 
HETATM    6  C6  UNL     1      21.128  -1.317  54.647  1.00  0.00     0.003 A 
HETATM    7  C5  UNL     1      20.500  -0.663  53.636  1.00  0.00     0.029 A 
HETATM    8  C4  UNL     1      21.248   0.056  52.708  1.00  0.00     0.035 A 
HETATM    9  C17 UNL     1      22.619   0.076  52.855  1.00  0.00     0.038 A 
BRANCH   8  10
HETATM   10  N1  UNL     1      20.580   0.741  51.655  1.00  0.00    -0.324 N 
HETATM   11  C3  UNL     1      20.085   2.039  51.871  1.00  0.00     0.244 C 
HETATM   12  O1  UNL     1      20.083   2.814  52.842  1.00  0.00    -0.268 OA
HETATM   13  H4  UNL     1      20.463   0.273  50.732  1.00  0.00     0.169 HD
BRANCH  11  14
HETATM   14  C2  UNL     1      19.406   2.684  50.740  1.00  0.00     0.064 C 
HETATM   15  C1  UNL     1      19.523   2.245  49.482  1.00  0.00     0.017 C 
ENDBRANCH  11  14
ENDBRANCH   8  10
ENDBRANCH   3   4
ENDBRANCH   1   3
BRANCH   1  16
HETATM   16  C10 UNL     1      26.689   0.596  53.314  1.00  0.00     0.129 A 
HETATM   17  C11 UNL     1      26.730   1.990  53.305  1.00  0.00     0.155 A 
HETATM   18  N4  UNL     1      27.829   2.639  53.688  1.00  0.00    -0.222 NA
HETATM   19  C15 UNL     1      28.945   2.012  54.099  1.00  0.00     0.238 A 
HETATM   20  N5  UNL     1      28.927   0.646  54.116  1.00  0.00    -0.215 NA
HETATM   21  C16 UNL     1      27.816  -0.050  53.729  1.00  0.00     0.208 A 
BRANCH  17  22
HETATM   22  N3  UNL     1      25.556   2.700  52.865  1.00  0.00    -0.372 N 
HETATM   23  H11 UNL     1      24.808   2.939  53.528  1.00  0.00     0.161 HD
BRANCH  22  24
HETATM   24  C12 UNL     1      25.477   3.065  51.457  1.00  0.00     0.128 C 
BRANCH  24  25
HETATM   25  C13 UNL     1      24.166   2.605  50.944  1.00  0.00     0.073 C 
HETATM   26  C14 UNL     1      23.230   2.621  50.009  1.00  0.00     0.203 C 
HETATM   27 CL1  UNL     1      23.073   3.446  48.491  1.00  0.00    -0.262 Cl
ENDBRANCH  24  25
ENDBRANCH  22  24
ENDBRANCH  17  22
BRANCH  21  28
HETATM   28  O2  UNL     1      28.080  -1.392  53.853  1.00  0.00    -0.248 OA
HETATM   29 BR1  UNL     1      29.672  -2.214  53.398  1.00  0.00     0.107 Br
ENDBRANCH  21  28
ENDBRANCH   1  16
TORSDOF 9
ENDMDL
MODEL 3
REMARK VINA RESULT:      -7.4      2.451      7.392
REMARK  9 active torsions:
REMARK  status: ('A' for Active; 'I' for Inactive)
REMARK    1  A    between atoms: C2_2  and  C3_3 
REMARK       I    between atoms: C3_3  and  N1_5 
REMARK    2  A    between atoms: N1_5  and  C4_6 
REMARK    3  A    between atoms: C8_10  and  C9_11 
REMARK    4  A    between atoms: C9_11  and  N2_12 
REMARK    5  A    between atoms: N2_12  and  C10_13 
REMARK    6  A    between atoms: C11_14  and  N3_15 
REMARK    7  A    between atoms: N3_15  and  C12_16 
REMARK    8  A    between atoms: C12_16  and  C13_17 
REMARK    9  A    between atoms: C16_23  and  O2_24 
ROOT
HETATM    1  N2  UNL     1      26.617   3.089  51.338  1.00  0.00    -0.379 N 
HETATM    2  H10 UNL     1      27.247   3.460  52.070  1.00  0.00     0.160 HD
ENDROOT
BRANCH   1   3
HETATM    3  C9  UNL     1      26.533   3.096  49.889  1.00  0.00     0.158 C 
BRANCH   3   4
HETATM    4  C8  UNL     1      26.474   4.423  49.287  1.00  0.00    -0.038 A 
HETATM    5  C7  UNL     1      27.623   4.988  48.767  1.00  0.00     0.009 A 
HETATM    6  C6  UNL     1      27.701   6.226  48.169  1.00  0.00     0.003 A 
HETATM    7  C5  UNL     1      26.572   6.975  48.067  1.00  0.00     0.029 A 
HETATM    8  C4  UNL     1      25.369   6.482  48.565  1.00  0.00     0.035 A 
HETATM    9  C17 UNL     1      25.372   5.234  49.152  1.00  0.00     0.038 A 
BRANCH   8  10
HETATM   10  N1  UNL     1      24.192   7.272  48.451  1.00  0.00    -0.324 N 
HETATM   11  C3  UNL     1      23.689   7.941  49.582  1.00  0.00     0.244 C 
HETATM   12  O1  UNL     1      24.048   8.024  50.768  1.00  0.00    -0.268 OA
HETATM   13  H4  UNL     1      23.711   7.348  47.530  1.00  0.00     0.169 HD
BRANCH  11  14
HETATM   14  C2  UNL     1      22.471   8.738  49.391  1.00  0.00     0.064 C 
HETATM   15  C1  UNL     1      21.256   8.292  49.733  1.00  0.00     0.017 C 
ENDBRANCH  11  14
ENDBRANCH   8  10
ENDBRANCH   3   4
ENDBRANCH   1   3
BRANCH   1  16
HETATM   16  C10 UNL     1      25.539   2.375  51.917  1.00  0.00     0.129 A 
HETATM   17  C11 UNL     1      25.602   1.008  52.182  1.00  0.00     0.155 A 
HETATM   18  N4  UNL     1      24.564   0.374  52.728  1.00  0.00    -0.222 NA
HETATM   19  C15 UNL     1      23.416   0.993  53.054  1.00  0.00     0.238 A 
HETATM   20  N5  UNL     1      23.334   2.334  52.804  1.00  0.00    -0.215 NA
HETATM   21  C16 UNL     1      24.379   3.013  52.245  1.00  0.00     0.208 A 
BRANCH  17  22
HETATM   22  N3  UNL     1      26.813   0.306  51.841  1.00  0.00    -0.372 N 
HETATM   23  H11 UNL     1      27.343   0.553  50.996  1.00  0.00     0.161 HD
BRANCH  22  24
HETATM   24  C12 UNL     1      27.251  -0.758  52.736  1.00  0.00     0.128 C 
BRANCH  24  25
HETATM   25  C13 UNL     1      28.346  -0.220  53.575  1.00  0.00     0.073 C 
HETATM   26  C14 UNL     1      29.030   0.809  54.047  1.00  0.00     0.203 C 
HETATM   27 CL1  UNL     1      28.910   2.526  53.823  1.00  0.00    -0.262 Cl
ENDBRANCH  24  25
ENDBRANCH  22  24
ENDBRANCH  17  22
BRANCH  21  28
HETATM   28  O2  UNL     1      24.020   4.333  52.117  1.00  0.00    -0.248 OA
HETATM   29 BR1  UNL     1      22.317   4.944  51.736  1.00  0.00     0.107 Br
ENDBRANCH  21  28
ENDBRANCH   1  16
TORSDOF 9
ENDMDL
MODEL 4
REMARK VINA RESULT:      -7.3      3.222      6.806
REMARK  9 active torsions:
REMARK  status: ('A' for Active; 'I' for Inactive)
REMARK    1  A    between atoms: C2_2  and  C3_3 
REMARK       I    between atoms: C3_3  and  N1_5 
REMARK    2  A    between atoms: N1_5  and  C4_6 
REMARK    3  A    between atoms: C8_10  and  C9_11 
REMARK    4  A    between atoms: C9_11  and  N2_12 
REMARK    5  A    between atoms: N2_12  and  C10_13 
REMARK    6  A    between atoms: C11_14  and  N3_15 
REMARK    7  A    between atoms: N3_15  and  C12_16 
REMARK    8  A    between atoms: C12_16  and  C13_17 
REMARK    9  A    between atoms: C16_23  and  O2_24 
ROOT
HETATM    1  N2  UNL     1      26.632   3.347  50.975  1.00  0.00    -0.379 N 
HETATM    2  H10 UNL     1      27.318   3.563  51.718  1.00  0.00     0.160 HD
ENDROOT
BRANCH   1   3
HETATM    3  C9  UNL     1      26.522   3.505  49.536  1.00  0.00     0.158 C 
BRANCH   3   4
HETATM    4  C8  UNL     1      27.103   4.736  49.011  1.00  0.00    -0.038 A 
HETATM    5  C7  UNL     1      26.334   5.882  48.948  1.00  0.00     0.009 A 
HETATM    6  C6  UNL     1      26.764   7.105  48.481  1.00  0.00     0.003 A 
HETATM    7  C5  UNL     1      28.043   7.222  48.040  1.00  0.00     0.029 A 
HETATM    8  C4  UNL     1      28.888   6.116  48.068  1.00  0.00     0.035 A 
HETATM    9  C17 UNL     1      28.384   4.926  48.549  1.00  0.00     0.038 A 
BRANCH   8  10
HETATM   10  N1  UNL     1      30.228   6.251  47.607  1.00  0.00    -0.324 N 
HETATM   11  C3  UNL     1      31.295   5.912  48.458  1.00  0.00     0.244 C 
HETATM   12  O1  UNL     1      31.371   5.482  49.621  1.00  0.00    -0.268 OA
HETATM   13  H4  UNL     1      30.406   6.601  46.643  1.00  0.00     0.169 HD
BRANCH  11  14
HETATM   14  C2  UNL     1      32.649   6.076  47.917  1.00  0.00     0.064 C 
HETATM   15  C1  UNL     1      33.737   5.605  48.539  1.00  0.00     0.017 C 
ENDBRANCH  11  14
ENDBRANCH   8  10
ENDBRANCH   3   4
ENDBRANCH   1   3
BRANCH   1  16
HETATM   16  C10 UNL     1      25.483   2.722  51.518  1.00  0.00     0.129 A 
HETATM   17  C11 UNL     1      25.458   1.372  51.865  1.00  0.00     0.155 A 
HETATM   18  N4  UNL     1      24.355   0.822  52.373  1.00  0.00    -0.222 NA
HETATM   19  C15 UNL     1      23.222   1.513  52.582  1.00  0.00     0.238 A 
HETATM   20  N5  UNL     1      23.224   2.838  52.250  1.00  0.00    -0.215 NA
HETATM   21  C16 UNL     1      24.337   3.432  51.726  1.00  0.00     0.208 A 
BRANCH  17  22
HETATM   22  N3  UNL     1      26.652   0.594  51.650  1.00  0.00    -0.372 N 
HETATM   23  H11 UNL     1      27.293   0.818  50.879  1.00  0.00     0.161 HD
BRANCH  22  24
HETATM   24  C12 UNL     1      26.910  -0.512  52.564  1.00  0.00     0.128 C 
BRANCH  24  25
HETATM   25  C13 UNL     1      27.872  -0.039  53.585  1.00  0.00     0.073 C 
HETATM   26  C14 UNL     1      28.601   0.931  54.112  1.00  0.00     0.203 C 
HETATM   27 CL1  UNL     1      28.824   2.606  53.718  1.00  0.00    -0.262 Cl
ENDBRANCH  24  25
ENDBRANCH  22  24
ENDBRANCH  17  22
BRANCH  21  28
HETATM   28  O2  UNL     1      24.056   4.757  51.497  1.00  0.00    -0.248 OA
HETATM   29 BR1  UNL     1      22.892   5.394  50.209  1.00  0.00     0.107 Br
ENDBRANCH  21  28
ENDBRANCH   1  16
TORSDOF 9
ENDMDL
MODEL 5
REMARK VINA RESULT:      -7.2      1.925      2.459
REMARK  9 active torsions:
REMARK  status: ('A' for Active; 'I' for Inactive)
REMARK    1  A    between atoms: C2_2  and  C3_3 
REMARK       I    between atoms: C3_3  and  N1_5 
REMARK    2  A    between atoms: N1_5  and  C4_6 
REMARK    3  A    between atoms: C8_10  and  C9_11 
REMARK    4  A    between atoms: C9_11  and  N2_12 
REMARK    5  A    between atoms: N2_12  and  C10_13 
REMARK    6  A    between atoms: C11_14  and  N3_15 
REMARK    7  A    between atoms: N3_15  and  C12_16 
REMARK    8  A    between atoms: C12_16  and  C13_17 
REMARK    9  A    between atoms: C16_23  and  O2_24 
ROOT
HETATM    1  N2  UNL     1      22.800   3.380  52.250  1.00  0.00    -0.379 N 
HETATM    2  H10 UNL     1      23.058   3.959  53.068  1.00  0.00     0.160 HD
ENDROOT
BRANCH   1   3
HETATM    3  C9  UNL     1      23.390   2.317  51.457  1.00  0.00     0.158 C 
BRANCH   3   4
HETATM    4  C8  UNL     1      24.081   1.290  52.229  1.00  0.00    -0.038 A 
HETATM    5  C7  UNL     1      23.365   0.497  53.105  1.00  0.00     0.009 A 
HETATM    6  C6  UNL     1      23.894  -0.508  53.884  1.00  0.00     0.003 A 
HETATM    7  C5  UNL     1      25.226  -0.762  53.806  1.00  0.00     0.029 A 
HETATM    8  C4  UNL     1      26.024  -0.009  52.949  1.00  0.00     0.035 A 
HETATM    9  C17 UNL     1      25.421   0.980  52.202  1.00  0.00     0.038 A 
BRANCH   8  10
HETATM   10  N1  UNL     1      27.418  -0.285  52.872  1.00  0.00    -0.324 N 
HETATM   11  C3  UNL     1      28.290   0.259  53.832  1.00  0.00     0.244 C 
HETATM   12  O1  UNL     1      28.136   0.988  54.826  1.00  0.00    -0.268 OA
HETATM   13  H4  UNL     1      27.780  -0.888  52.104  1.00  0.00     0.169 HD
BRANCH  11  14
HETATM   14  C2  UNL     1      29.714  -0.067  53.692  1.00  0.00     0.064 C 
HETATM   15  C1  UNL     1      30.171  -1.325  53.697  1.00  0.00     0.017 C 
ENDBRANCH  11  14
ENDBRANCH   8  10
ENDBRANCH   3   4
ENDBRANCH   1   3
BRANCH   1  16
HETATM   16  C10 UNL     1      21.509   3.723  51.780  1.00  0.00     0.129 A 
HETATM   17  C11 UNL     1      21.292   4.769  50.884  1.00  0.00     0.155 A 
HETATM   18  N4  UNL     1      20.059   5.059  50.467  1.00  0.00    -0.222 NA
HETATM   19  C15 UNL     1      18.971   4.382  50.869  1.00  0.00     0.238 A 
HETATM   20  N5  UNL     1      19.161   3.352  51.747  1.00  0.00    -0.215 NA
HETATM   21  C16 UNL     1      20.410   3.029  52.194  1.00  0.00     0.208 A 
BRANCH  17  22
HETATM   22  N3  UNL     1      22.432   5.524  50.433  1.00  0.00    -0.372 N 
HETATM   23  H11 UNL     1      22.783   6.321  50.979  1.00  0.00     0.161 HD
BRANCH  22  24
HETATM   24  C12 UNL     1      23.063   5.114  49.185  1.00  0.00     0.128 C 
BRANCH  24  25
HETATM   25  C13 UNL     1      24.521   5.327  49.324  1.00  0.00     0.073 C 
HETATM   26  C14 UNL     1      25.747   4.841  49.435  1.00  0.00     0.203 C 
HETATM   27 CL1  UNL     1      26.392   3.230  49.481  1.00  0.00    -0.262 Cl
ENDBRANCH  24  25
ENDBRANCH  22  24
ENDBRANCH  17  22
BRANCH  21  28
HETATM   28  O2  UNL     1      20.302   1.961  53.052  1.00  0.00    -0.248 OA
HETATM   29 BR1  UNL     1      19.670   0.284  52.595  1.00  0.00     0.107 Br
ENDBRANCH  21  28
ENDBRANCH   1  16
TORSDOF 9
ENDMDL
MODEL 6
REMARK VINA RESULT:      -7.1      2.285      2.686
REMARK  9 active torsions:
REMARK  status: ('A' for Active; 'I' for Inactive)
REMARK    1  A    between atoms: C2_2  and  C3_3 
REMARK       I    between atoms: C3_3  and  N1_5 
REMARK    2  A    between atoms: N1_5  and  C4_6 
REMARK    3  A    between atoms: C8_10  and  C9_11 
REMARK    4  A    between atoms: C9_11  and  N2_12 
REMARK    5  A    between atoms: N2_12  and  C10_13 
REMARK    6  A    between atoms: C11_14  and  N3_15 
REMARK    7  A    between atoms: N3_15  and  C12_16 
REMARK    8  A    between atoms: C12_16  and  C13_17 
REMARK    9  A    between atoms: C16_23  and  O2_24 
ROOT
HETATM    1  N2  UNL     1      25.676   5.184  50.307  1.00  0.00    -0.379 N 
HETATM    2  H10 UNL     1      25.611   5.670  51.218  1.00  0.00     0.160 HD
ENDROOT
BRANCH   1   3
HETATM    3  C9  UNL     1      26.066   3.877  49.813  1.00  0.00     0.158 C 
BRANCH   3   4
HETATM    4  C8  UNL     1      25.795   2.772  50.727  1.00  0.00    -0.038 A 
HETATM    5  C7  UNL     1      24.490   2.474  51.069  1.00  0.00     0.009 A 
HETATM    6  C6  UNL     1      24.100   1.458  51.912  1.00  0.00     0.003 A 
HETATM    7  C5  UNL     1      25.055   0.668  52.469  1.00  0.00     0.029 A 
HETATM    8  C4  UNL     1      26.397   0.899  52.178  1.00  0.00     0.035 A 
HETATM    9  C17 UNL     1      26.708   1.936  51.325  1.00  0.00     0.038 A 
BRANCH   8  10
HETATM   10  N1  UNL     1      27.389   0.064  52.763  1.00  0.00    -0.324 N 
HETATM   11  C3  UNL     1      28.136   0.532  53.860  1.00  0.00     0.244 C 
HETATM   12  O1  UNL     1      28.148   1.591  54.509  1.00  0.00    -0.268 OA
HETATM   13  H4  UNL     1      27.555  -0.887  52.374  1.00  0.00     0.169 HD
BRANCH  11  14
HETATM   14  C2  UNL     1      29.143  -0.382  54.412  1.00  0.00     0.064 C 
HETATM   15  C1  UNL     1      29.952  -1.116  53.640  1.00  0.00     0.017 C 
ENDBRANCH  11  14
ENDBRANCH   8  10
ENDBRANCH   3   4
ENDBRANCH   1   3
BRANCH   1  16
HETATM   16  C10 UNL     1      25.267   6.037  49.253  1.00  0.00     0.129 A 
HETATM   17  C11 UNL     1      26.107   7.005  48.703  1.00  0.00     0.155 A 
HETATM   18  N4  UNL     1      25.683   7.788  47.712  1.00  0.00    -0.222 NA
HETATM   19  C15 UNL     1      24.449   7.700  47.186  1.00  0.00     0.238 A 
HETATM   20  N5  UNL     1      23.610   6.758  47.709  1.00  0.00    -0.215 NA
HETATM   21  C16 UNL     1      24.013   5.940  48.725  1.00  0.00     0.208 A 
BRANCH  17  22
HETATM   22  N3  UNL     1      27.436   7.135  49.244  1.00  0.00    -0.372 N 
HETATM   23  H11 UNL     1      27.594   7.121  50.259  1.00  0.00     0.161 HD
BRANCH  22  24
HETATM   24  C12 UNL     1      28.537   7.283  48.300  1.00  0.00     0.128 C 
BRANCH  24  25
HETATM   25  C13 UNL     1      29.194   5.964  48.160  1.00  0.00     0.073 C 
HETATM   26  C14 UNL     1      30.264   5.239  47.881  1.00  0.00     0.203 C 
HETATM   27 CL1  UNL     1      31.886   5.638  47.407  1.00  0.00    -0.262 Cl
ENDBRANCH  24  25
ENDBRANCH  22  24
ENDBRANCH  17  22
BRANCH  21  28
HETATM   28  O2  UNL     1      22.976   5.096  49.042  1.00  0.00    -0.248 OA
HETATM   29 BR1  UNL     1      22.491   3.593  48.080  1.00  0.00     0.107 Br
ENDBRANCH  21  28
ENDBRANCH   1  16
TORSDOF 9
ENDMDL
MODEL 7
REMARK VINA RESULT:      -7.1      2.245      2.364
REMARK  9 active torsions:
REMARK  status: ('A' for Active; 'I' for Inactive)
REMARK    1  A    between atoms: C2_2  and  C3_3 
REMARK       I    between atoms: C3_3  and  N1_5 
REMARK    2  A    between atoms: N1_5  and  C4_6 
REMARK    3  A    between atoms: C8_10  and  C9_11 
REMARK    4  A    between atoms: C9_11  and  N2_12 
REMARK    5  A    between atoms: N2_12  and  C10_13 
REMARK    6  A    between atoms: C11_14  and  N3_15 
REMARK    7  A    between atoms: N3_15  and  C12_16 
REMARK    8  A    between atoms: C12_16  and  C13_17 
REMARK    9  A    between atoms: C16_23  and  O2_24 
ROOT
HETATM    1  N2  UNL     1      24.562   3.097  49.909  1.00  0.00    -0.379 N 
HETATM    2  H10 UNL     1      25.490   2.876  49.506  1.00  0.00     0.160 HD
ENDROOT
BRANCH   1   3
HETATM    3  C9  UNL     1      23.862   2.898  51.164  1.00  0.00     0.158 C 
BRANCH   3   4
HETATM    4  C8  UNL     1      24.271   1.714  51.911  1.00  0.00    -0.038 A 
HETATM    5  C7  UNL     1      23.322   0.974  52.591  1.00  0.00     0.009 A 
HETATM    6  C6  UNL     1      23.575  -0.164  53.325  1.00  0.00     0.003 A 
HETATM    7  C5  UNL     1      24.852  -0.619  53.405  1.00  0.00     0.029 A 
HETATM    8  C4  UNL     1      25.872   0.066  52.749  1.00  0.00     0.035 A 
HETATM    9  C17 UNL     1      25.539   1.198  52.035  1.00  0.00     0.038 A 
BRANCH   8  10
HETATM   10  N1  UNL     1      27.206  -0.421  52.836  1.00  0.00    -0.324 N 
HETATM   11  C3  UNL     1      28.036   0.004  53.889  1.00  0.00     0.244 C 
HETATM   12  O1  UNL     1      27.884   0.770  54.855  1.00  0.00    -0.268 OA
HETATM   13  H4  UNL     1      27.557  -1.088  52.118  1.00  0.00     0.169 HD
BRANCH  11  14
HETATM   14  C2  UNL     1      29.400  -0.538  53.916  1.00  0.00     0.064 C 
HETATM   15  C1  UNL     1      29.700  -1.760  53.459  1.00  0.00     0.017 C 
ENDBRANCH  11  14
ENDBRANCH   8  10
ENDBRANCH   3   4
ENDBRANCH   1   3
BRANCH   1  16
HETATM   16  C10 UNL     1      23.758   3.786  48.969  1.00  0.00     0.129 A 
HETATM   17  C11 UNL     1      23.881   5.156  48.740  1.00  0.00     0.155 A 
HETATM   18  N4  UNL     1      23.103   5.767  47.846  1.00  0.00    -0.222 NA
HETATM   19  C15 UNL     1      22.173   5.122  47.122  1.00  0.00     0.238 A 
HETATM   20  N5  UNL     1      22.036   3.779  47.330  1.00  0.00    -0.215 NA
HETATM   21  C16 UNL     1      22.817   3.122  48.239  1.00  0.00     0.208 A 
BRANCH  17  22
HETATM   22  N3  UNL     1      24.863   5.886  49.501  1.00  0.00    -0.372 N 
HETATM   23  H11 UNL     1      24.787   5.958  50.523  1.00  0.00     0.161 HD
BRANCH  22  24
HETATM   24  C12 UNL     1      25.957   6.510  48.768  1.00  0.00     0.128 C 
BRANCH  24  25
HETATM   25  C13 UNL     1      27.046   5.514  48.648  1.00  0.00     0.073 C 
HETATM   26  C14 UNL     1      28.314   5.224  48.407  1.00  0.00     0.203 C 
HETATM   27 CL1  UNL     1      29.701   6.184  47.999  1.00  0.00    -0.262 Cl
ENDBRANCH  24  25
ENDBRANCH  22  24
ENDBRANCH  17  22
BRANCH  21  28
HETATM   28  O2  UNL     1      22.468   1.794  48.232  1.00  0.00    -0.248 OA
HETATM   29 BR1  UNL     1      21.177   1.023  49.308  1.00  0.00     0.107 Br
ENDBRANCH  21  28
ENDBRANCH   1  16
TORSDOF 9
ENDMDL
MODEL 8
REMARK VINA RESULT:      -7.1      3.110      6.702
REMARK  9 active torsions:
REMARK  status: ('A' for Active; 'I' for Inactive)
REMARK    1  A    between atoms: C2_2  and  C3_3 
REMARK       I    between atoms: C3_3  and  N1_5 
REMARK    2  A    between atoms: N1_5  and  C4_6 
REMARK    3  A    between atoms: C8_10  and  C9_11 
REMARK    4  A    between atoms: C9_11  and  N2_12 
REMARK    5  A    between atoms: N2_12  and  C10_13 
REMARK    6  A    between atoms: C11_14  and  N3_15 
REMARK    7  A    between atoms: N3_15  and  C12_16 
REMARK    8  A    between atoms: C12_16  and  C13_17 
REMARK    9  A    between atoms: C16_23  and  O2_24 
ROOT
HETATM    1  N2  UNL     1      24.740   0.840  52.051  1.00  0.00    -0.379 N 
HETATM    2  H10 UNL     1      24.989   0.149  51.322  1.00  0.00     0.160 HD
ENDROOT
BRANCH   1   3
HETATM    3  C9  UNL     1      25.047   2.221  52.371  1.00  0.00     0.158 C 
BRANCH   3   4
HETATM    4  C8  UNL     1      25.140   3.110  51.218  1.00  0.00    -0.038 A 
HETATM    5  C7  UNL     1      23.997   3.709  50.724  1.00  0.00     0.009 A 
HETATM    6  C6  UNL     1      23.949   4.569  49.649  1.00  0.00     0.003 A 
HETATM    7  C5  UNL     1      25.104   4.871  49.003  1.00  0.00     0.029 A 
HETATM    8  C4  UNL     1      26.304   4.312  49.435  1.00  0.00     0.035 A 
HETATM    9  C17 UNL     1      26.270   3.459  50.517  1.00  0.00     0.038 A 
BRANCH   8  10
HETATM   10  N1  UNL     1      27.510   4.638  48.753  1.00  0.00    -0.324 N 
HETATM   11  C3  UNL     1      27.876   5.986  48.590  1.00  0.00     0.244 C 
HETATM   12  O1  UNL     1      27.363   7.067  48.922  1.00  0.00    -0.268 OA
HETATM   13  H4  UNL     1      28.111   3.874  48.380  1.00  0.00     0.169 HD
BRANCH  11  14
HETATM   14  C2  UNL     1      29.131   6.249  47.876  1.00  0.00     0.064 C 
HETATM   15  C1  UNL     1      30.176   5.414  47.923  1.00  0.00     0.017 C 
ENDBRANCH  11  14
ENDBRANCH   8  10
ENDBRANCH   3   4
ENDBRANCH   1   3
BRANCH   1  16
HETATM   16  C10 UNL     1      23.849   0.274  52.995  1.00  0.00     0.129 A 
HETATM   17  C11 UNL     1      24.284  -0.529  54.049  1.00  0.00     0.155 A 
HETATM   18  N4  UNL     1      23.411  -1.043  54.915  1.00  0.00    -0.222 NA
HETATM   19  C15 UNL     1      22.087  -0.827  54.837  1.00  0.00     0.238 A 
HETATM   20  N5  UNL     1      21.639  -0.043  53.812  1.00  0.00    -0.215 NA
HETATM   21  C16 UNL     1      22.506   0.499  52.907  1.00  0.00     0.208 A 
BRANCH  17  22
HETATM   22  N3  UNL     1      25.696  -0.790  54.165  1.00  0.00    -0.372 N 
HETATM   23  H11 UNL     1      26.157  -1.467  53.545  1.00  0.00     0.161 HD
BRANCH  22  24
HETATM   24  C12 UNL     1      26.436  -0.058  55.185  1.00  0.00     0.128 C 
BRANCH  24  25
HETATM   25  C13 UNL     1      27.807   0.168  54.675  1.00  0.00     0.073 C 
HETATM   26  C14 UNL     1      28.705   0.957  54.109  1.00  0.00     0.203 C 
HETATM   27 CL1  UNL     1      28.662   2.593  53.533  1.00  0.00    -0.262 Cl
ENDBRANCH  24  25
ENDBRANCH  22  24
ENDBRANCH  17  22
BRANCH  21  28
HETATM   28  O2  UNL     1      21.784   1.239  52.002  1.00  0.00    -0.248 OA
HETATM   29 BR1  UNL     1      20.551   2.547  52.435  1.00  0.00     0.107 Br
ENDBRANCH  21  28
ENDBRANCH   1  16
TORSDOF 9
ENDMDL
MODEL 9
REMARK VINA RESULT:      -7.0      3.160      6.392
REMARK  9 active torsions:
REMARK  status: ('A' for Active; 'I' for Inactive)
REMARK    1  A    between atoms: C2_2  and  C3_3 
REMARK       I    between atoms: C3_3  and  N1_5 
REMARK    2  A    between atoms: N1_5  and  C4_6 
REMARK    3  A    between atoms: C8_10  and  C9_11 
REMARK    4  A    between atoms: C9_11  and  N2_12 
REMARK    5  A    between atoms: N2_12  and  C10_13 
REMARK    6  A    between atoms: C11_14  and  N3_15 
REMARK    7  A    between atoms: N3_15  and  C12_16 
REMARK    8  A    between atoms: C12_16  and  C13_17 
REMARK    9  A    between atoms: C16_23  and  O2_24 
ROOT
HETATM    1  N2  UNL     1      24.848   1.698  53.276  1.00  0.00    -0.379 N 
HETATM    2  H10 UNL     1      24.914   2.252  54.147  1.00  0.00     0.160 HD
ENDROOT
BRANCH   1   3
HETATM    3  C9  UNL     1      24.447   0.359  52.883  1.00  0.00     0.158 C 
BRANCH   3   4
HETATM    4  C8  UNL     1      23.036   0.057  53.095  1.00  0.00    -0.038 A 
HETATM    5  C7  UNL     1      22.651  -0.658  54.213  1.00  0.00     0.009 A 
HETATM    6  C6  UNL     1      21.356  -1.002  54.532  1.00  0.00     0.003 A 
HETATM    7  C5  UNL     1      20.355  -0.620  53.698  1.00  0.00     0.029 A 
HETATM    8  C4  UNL     1      20.653   0.106  52.548  1.00  0.00     0.035 A 
HETATM    9  C17 UNL     1      21.974   0.411  52.296  1.00  0.00     0.038 A 
BRANCH   8  10
HETATM   10  N1  UNL     1      19.596   0.505  51.682  1.00  0.00    -0.324 N 
HETATM   11  C3  UNL     1      19.113   1.825  51.735  1.00  0.00     0.244 C 
HETATM   12  O1  UNL     1      19.404   2.826  52.410  1.00  0.00    -0.268 OA
HETATM   13  H4  UNL     1      19.189  -0.185  51.017  1.00  0.00     0.169 HD
BRANCH  11  14
HETATM   14  C2  UNL     1      18.022   2.166  50.814  1.00  0.00     0.064 C 
HETATM   15  C1  UNL     1      18.220   2.850  49.682  1.00  0.00     0.017 C 
ENDBRANCH  11  14
ENDBRANCH   8  10
ENDBRANCH   3   4
ENDBRANCH   1   3
BRANCH   1  16
HETATM   16  C10 UNL     1      25.264   2.464  52.160  1.00  0.00     0.129 A 
HETATM   17  C11 UNL     1      26.562   2.409  51.655  1.00  0.00     0.155 A 
HETATM   18  N4  UNL     1      26.912   3.148  50.602  1.00  0.00    -0.222 NA
HETATM   19  C15 UNL     1      26.061   3.974  49.971  1.00  0.00     0.238 A 
HETATM   20  N5  UNL     1      24.783   4.043  50.449  1.00  0.00    -0.215 NA
HETATM   21  C16 UNL     1      24.391   3.299  51.525  1.00  0.00     0.208 A 
BRANCH  17  22
HETATM   22  N3  UNL     1      27.508   1.541  52.308  1.00  0.00    -0.372 N 
HETATM   23  H11 UNL     1      27.581   0.550  52.043  1.00  0.00     0.161 HD
BRANCH  22  24
HETATM   24  C12 UNL     1      28.350   2.119  53.347  1.00  0.00     0.128 C 
BRANCH  24  25
HETATM   25  C13 UNL     1      28.771   1.024  54.250  1.00  0.00     0.073 C 
HETATM   26  C14 UNL     1      29.154  -0.229  54.432  1.00  0.00     0.203 C 
HETATM   27 CL1  UNL     1      29.416  -1.566  53.356  1.00  0.00    -0.262 Cl
ENDBRANCH  24  25
ENDBRANCH  22  24
ENDBRANCH  17  22
BRANCH  21  28
HETATM   28  O2  UNL     1      23.067   3.562  51.777  1.00  0.00    -0.248 OA
HETATM   29 BR1  UNL     1      21.958   4.581  50.703  1.00  0.00     0.107 Br
ENDBRANCH  21  28
ENDBRANCH   1  16
TORSDOF 9
ENDMDL
