MODEL 1
REMARK VINA RESULT:      -8.9      0.000      0.000
REMARK  2 active torsions:
REMARK  status: ('A' for Active; 'I' for Inactive)
REMARK    1  A    between atoms: C5_5  and  N1_6 
REMARK    2  A    between atoms: N1_6  and  C6_7 
ROOT
HETATM    1  C1  UNL     1      22.903  -1.642  55.597  1.00  0.00     0.024 C 
HETATM    2  C2  UNL     1      22.124  -0.517  54.957  1.00  0.00     0.097 C 
HETATM    3  C3  UNL     1      22.866   0.245  53.953  1.00  0.00     0.003 C 
HETATM    4  C4  UNL     1      22.784   0.777  52.772  1.00  0.00     0.018 A 
HETATM    5  C5  UNL     1      23.980   1.380  52.453  1.00  0.00     0.067 A 
HETATM    6  C12 UNL     1      24.292   2.022  51.285  1.00  0.00     0.089 A 
HETATM    7  C13 UNL     1      25.537   2.646  50.971  1.00  0.00     0.103 C 
HETATM    8  N2  UNL     1      26.564   3.144  50.728  1.00  0.00    -0.191 NA
HETATM    9  C14 UNL     1      23.372   2.113  50.294  1.00  0.00     0.142 A 
HETATM   10  N3  UNL     1      22.200   1.533  50.585  1.00  0.00    -0.259 NA
HETATM   11  C15 UNL     1      21.899   0.905  51.735  1.00  0.00     0.065 A 
HETATM   12  C16 UNL     1      20.667   0.535  51.733  1.00  0.00     0.044 C 
HETATM   13  C17 UNL     1      19.310   0.171  51.614  1.00  0.00     0.039 C 
HETATM   14  C18 UNL     1      18.877  -0.348  52.801  1.00  0.00     0.068 C 
HETATM   15  N4  UNL     1      20.054  -0.247  53.584  1.00  0.00    -0.340 N 
HETATM   16  C19 UNL     1      20.983  -1.108  54.194  1.00  0.00     0.228 C 
HETATM   17  O1  UNL     1      20.235  -1.936  53.690  1.00  0.00    -0.273 OA
HETATM   18  H15 UNL     1      20.252   0.786  53.766  1.00  0.00     0.167 HD
ENDROOT
BRANCH   5  19
HETATM   19  N1  UNL     1      25.127   1.429  53.339  1.00  0.00    -0.354 N 
HETATM   20  H6  UNL     1      25.306   2.160  54.045  1.00  0.00     0.166 HD
BRANCH  19  21
HETATM   21  C6  UNL     1      26.045   0.369  53.183  1.00  0.00     0.033 A 
HETATM   22  C7  UNL     1      25.679  -0.891  52.708  1.00  0.00     0.029 A 
HETATM   23  C8  UNL     1      26.611  -1.905  52.570  1.00  0.00     0.004 A 
HETATM   24  C9  UNL     1      27.939  -1.722  52.893  1.00  0.00     0.019 A 
HETATM   25  C10 UNL     1      28.357  -0.476  53.373  1.00  0.00     0.013 A 
HETATM   26 BR1  UNL     1      30.180  -0.171  53.832  1.00  0.00    -0.051 Br
HETATM   27  C11 UNL     1      27.400   0.506  53.495  1.00  0.00     0.048 A 
ENDBRANCH  19  21
ENDBRANCH   5  19
TORSDOF 2
ENDMDL
MODEL 2
REMARK VINA RESULT:      -8.8      2.814      4.796
REMARK  2 active torsions:
REMARK  status: ('A' for Active; 'I' for Inactive)
REMARK    1  A    between atoms: C5_5  and  N1_6 
REMARK    2  A    between atoms: N1_6  and  C6_7 
ROOT
HETATM    1  C1  UNL     1      20.504   2.315  49.968  1.00  0.00     0.024 C 
HETATM    2  C2  UNL     1      20.347   0.900  50.475  1.00  0.00     0.097 C 
HETATM    3  C3  UNL     1      21.350   0.489  51.457  1.00  0.00     0.003 C 
HETATM    4  C4  UNL     1      21.516  -0.128  52.587  1.00  0.00     0.018 A 
HETATM    5  C5  UNL     1      22.851  -0.119  52.926  1.00  0.00     0.067 A 
HETATM    6  C12 UNL     1      23.416  -0.645  54.057  1.00  0.00     0.089 A 
HETATM    7  C13 UNL     1      24.804  -0.632  54.391  1.00  0.00     0.103 C 
HETATM    8  N2  UNL     1      25.941  -0.605  54.653  1.00  0.00    -0.191 NA
HETATM    9  C14 UNL     1      22.638  -1.253  54.984  1.00  0.00     0.142 A 
HETATM   10  N3  UNL     1      21.335  -1.273  54.673  1.00  0.00    -0.259 NA
HETATM   11  C15 UNL     1      20.786  -0.756  53.560  1.00  0.00     0.065 A 
HETATM   12  C16 UNL     1      19.526  -1.015  53.521  1.00  0.00     0.044 C 
HETATM   13  C17 UNL     1      18.159  -1.350  53.591  1.00  0.00     0.039 C 
HETATM   14  C18 UNL     1      17.546  -0.988  52.426  1.00  0.00     0.068 C 
HETATM   15  N4  UNL     1      18.639  -0.445  51.704  1.00  0.00    -0.340 N 
HETATM   16  C19 UNL     1      19.053   0.805  51.216  1.00  0.00     0.228 C 
HETATM   17  O1  UNL     1      17.994   1.130  51.739  1.00  0.00    -0.273 OA
HETATM   18  H15 UNL     1      19.307  -1.239  51.455  1.00  0.00     0.167 HD
ENDROOT
BRANCH   5  19
HETATM   19  N1  UNL     1      23.894   0.464  52.105  1.00  0.00    -0.354 N 
HETATM   20  H6  UNL     1      24.632  -0.062  51.613  1.00  0.00     0.166 HD
BRANCH  19  21
HETATM   21  C6  UNL     1      23.854   1.871  52.002  1.00  0.00     0.033 A 
HETATM   22  C7  UNL     1      23.731   2.711  53.110  1.00  0.00     0.029 A 
HETATM   23  C8  UNL     1      23.694   4.087  52.966  1.00  0.00     0.004 A 
HETATM   24  C9  UNL     1      23.776   4.693  51.729  1.00  0.00     0.019 A 
HETATM   25  C10 UNL     1      23.900   3.894  50.588  1.00  0.00     0.013 A 
HETATM   26 BR1  UNL     1      24.017   4.680  48.856  1.00  0.00    -0.051 Br
HETATM   27  C11 UNL     1      23.934   2.530  50.773  1.00  0.00     0.048 A 
ENDBRANCH  19  21
ENDBRANCH   5  19
TORSDOF 2
ENDMDL
MODEL 3
REMARK VINA RESULT:      -8.5      3.487      6.853
REMARK  2 active torsions:
REMARK  status: ('A' for Active; 'I' for Inactive)
REMARK    1  A    between atoms: C5_5  and  N1_6 
REMARK    2  A    between atoms: N1_6  and  C6_7 
ROOT
HETATM    1  C1  UNL     1      24.378   4.108  50.103  1.00  0.00     0.024 C 
HETATM    2  C2  UNL     1      24.689   3.636  51.504  1.00  0.00     0.097 C 
HETATM    3  C3  UNL     1      23.772   2.621  52.023  1.00  0.00     0.003 C 
HETATM    4  C4  UNL     1      23.712   1.497  52.670  1.00  0.00     0.018 A 
HETATM    5  C5  UNL     1      22.399   1.104  52.792  1.00  0.00     0.067 A 
HETATM    6  C12 UNL     1      21.934  -0.039  53.386  1.00  0.00     0.089 A 
HETATM    7  C13 UNL     1      20.566  -0.431  53.509  1.00  0.00     0.103 C 
HETATM    8  N2  UNL     1      19.444  -0.740  53.593  1.00  0.00    -0.191 NA
HETATM    9  C14 UNL     1      22.805  -0.922  53.933  1.00  0.00     0.142 A 
HETATM   10  N3  UNL     1      24.090  -0.557  53.825  1.00  0.00    -0.259 NA
HETATM   11  C15 UNL     1      24.539   0.568  53.242  1.00  0.00     0.065 A 
HETATM   12  C16 UNL     1      25.815   0.663  53.381  1.00  0.00     0.044 C 
HETATM   13  C17 UNL     1      27.209   0.656  53.586  1.00  0.00     0.039 C 
HETATM   14  C18 UNL     1      27.735   1.839  53.150  1.00  0.00     0.068 C 
HETATM   15  N4  UNL     1      26.566   2.504  52.702  1.00  0.00    -0.340 N 
HETATM   16  C19 UNL     1      26.017   2.950  51.488  1.00  0.00     0.228 C 
HETATM   17  O1  UNL     1      27.062   2.466  51.074  1.00  0.00    -0.273 OA
HETATM   18  H15 UNL     1      25.965   2.741  53.551  1.00  0.00     0.167 HD
ENDROOT
BRANCH   5  19
HETATM   19  N1  UNL     1      21.271   1.869  52.297  1.00  0.00    -0.354 N 
HETATM   20  H6  UNL     1      20.555   2.326  52.883  1.00  0.00     0.166 HD
BRANCH  19  21
HETATM   21  C6  UNL     1      21.191   1.969  50.892  1.00  0.00     0.033 A 
HETATM   22  C7  UNL     1      21.497   0.911  50.035  1.00  0.00     0.029 A 
HETATM   23  C8  UNL     1      21.406   1.051  48.662  1.00  0.00     0.004 A 
HETATM   24  C9  UNL     1      21.011   2.234  48.074  1.00  0.00     0.019 A 
HETATM   25  C10 UNL     1      20.694   3.325  48.890  1.00  0.00     0.013 A 
HETATM   26 BR1  UNL     1      20.144   4.983  48.129  1.00  0.00    -0.051 Br
HETATM   27  C11 UNL     1      20.796   3.146  50.251  1.00  0.00     0.048 A 
ENDBRANCH  19  21
ENDBRANCH   5  19
TORSDOF 2
ENDMDL
MODEL 4
REMARK VINA RESULT:      -8.5      3.309      5.947
REMARK  2 active torsions:
REMARK  status: ('A' for Active; 'I' for Inactive)
REMARK    1  A    between atoms: C5_5  and  N1_6 
REMARK    2  A    between atoms: N1_6  and  C6_7 
ROOT
HETATM    1  C1  UNL     1      22.349  -0.751  55.185  1.00  0.00     0.024 C 
HETATM    2  C2  UNL     1      23.009  -0.624  53.832  1.00  0.00     0.097 C 
HETATM    3  C3  UNL     1      22.901   0.702  53.223  1.00  0.00     0.003 C 
HETATM    4  C4  UNL     1      23.564   1.617  52.584  1.00  0.00     0.018 A 
HETATM    5  C5  UNL     1      22.737   2.685  52.319  1.00  0.00     0.067 A 
HETATM    6  C12 UNL     1      23.077   3.851  51.687  1.00  0.00     0.089 A 
HETATM    7  C13 UNL     1      22.206   4.950  51.415  1.00  0.00     0.103 C 
HETATM    8  N2  UNL     1      21.481   5.841  51.208  1.00  0.00    -0.191 NA
HETATM    9  C14 UNL     1      24.345   4.042  51.250  1.00  0.00     0.142 A 
HETATM   10  N3  UNL     1      25.167   3.012  51.498  1.00  0.00    -0.259 NA
HETATM   11  C15 UNL     1      24.826   1.869  52.117  1.00  0.00     0.065 A 
HETATM   12  C16 UNL     1      25.819   1.051  52.122  1.00  0.00     0.044 C 
HETATM   13  C17 UNL     1      26.975   0.245  52.074  1.00  0.00     0.039 C 
HETATM   14  C18 UNL     1      26.677  -0.998  52.556  1.00  0.00     0.068 C 
HETATM   15  N4  UNL     1      25.301  -0.845  52.863  1.00  0.00    -0.340 N 
HETATM   16  C19 UNL     1      24.481  -0.825  54.004  1.00  0.00     0.228 C 
HETATM   17  O1  UNL     1      25.568  -1.005  54.537  1.00  0.00    -0.273 OA
HETATM   18  H15 UNL     1      24.760  -0.742  51.950  1.00  0.00     0.167 HD
ENDROOT
BRANCH   5  19
HETATM   19  N1  UNL     1      21.333   2.736  52.676  1.00  0.00    -0.354 N 
HETATM   20  H6  UNL     1      20.933   3.287  53.451  1.00  0.00     0.166 HD
BRANCH  19  21
HETATM   21  C6  UNL     1      20.485   1.949  51.869  1.00  0.00     0.033 A 
HETATM   22  C7  UNL     1      20.485   2.015  50.475  1.00  0.00     0.029 A 
HETATM   23  C8  UNL     1      19.637   1.226  49.719  1.00  0.00     0.004 A 
HETATM   24  C9  UNL     1      18.755   0.339  50.301  1.00  0.00     0.019 A 
HETATM   25  C10 UNL     1      18.716   0.236  51.695  1.00  0.00     0.013 A 
HETATM   26 BR1  UNL     1      17.516  -0.973  52.549  1.00  0.00    -0.051 Br
HETATM   27  C11 UNL     1      19.576   1.037  52.411  1.00  0.00     0.048 A 
ENDBRANCH  19  21
ENDBRANCH   5  19
TORSDOF 2
ENDMDL
MODEL 5
REMARK VINA RESULT:      -8.5      3.536      6.513
REMARK  2 active torsions:
REMARK  status: ('A' for Active; 'I' for Inactive)
REMARK    1  A    between atoms: C5_5  and  N1_6 
REMARK    2  A    between atoms: N1_6  and  C6_7 
ROOT
HETATM    1  C1  UNL     1      26.400   2.860  50.047  1.00  0.00     0.024 C 
HETATM    2  C2  UNL     1      25.997   2.598  51.479  1.00  0.00     0.097 C 
HETATM    3  C3  UNL     1      24.553   2.564  51.710  1.00  0.00     0.003 C 
HETATM    4  C4  UNL     1      23.605   1.915  52.315  1.00  0.00     0.018 A 
HETATM    5  C5  UNL     1      22.394   2.511  52.048  1.00  0.00     0.067 A 
HETATM    6  C12 UNL     1      21.162   2.103  52.484  1.00  0.00     0.089 A 
HETATM    7  C13 UNL     1      19.913   2.736  52.201  1.00  0.00     0.103 C 
HETATM    8  N2  UNL     1      18.901   3.261  51.953  1.00  0.00    -0.191 NA
HETATM    9  C14 UNL     1      21.049   1.002  53.266  1.00  0.00     0.142 A 
HETATM   10  N3  UNL     1      22.218   0.406  53.538  1.00  0.00    -0.259 NA
HETATM   11  C15 UNL     1      23.425   0.814  53.109  1.00  0.00     0.065 A 
HETATM   12  C16 UNL     1      24.351   0.078  53.616  1.00  0.00     0.044 C 
HETATM   13  C17 UNL     1      25.276  -0.796  54.222  1.00  0.00     0.039 C 
HETATM   14  C18 UNL     1      26.544  -0.366  53.955  1.00  0.00     0.068 C 
HETATM   15  N4  UNL     1      26.279   0.791  53.180  1.00  0.00    -0.340 N 
HETATM   16  C19 UNL     1      26.458   1.228  51.857  1.00  0.00     0.228 C 
HETATM   17  O1  UNL     1      26.942   0.107  51.770  1.00  0.00    -0.273 OA
HETATM   18  H15 UNL     1      25.842   1.529  53.814  1.00  0.00     0.167 HD
ENDROOT
BRANCH   5  19
HETATM   19  N1  UNL     1      22.235   3.705  51.240  1.00  0.00    -0.354 N 
HETATM   20  H6  UNL     1      22.154   4.667  51.604  1.00  0.00     0.166 HD
BRANCH  19  21
HETATM   21  C6  UNL     1      22.196   3.480  49.848  1.00  0.00     0.033 A 
HETATM   22  C7  UNL     1      22.144   2.205  49.284  1.00  0.00     0.029 A 
HETATM   23  C8  UNL     1      22.107   2.027  47.912  1.00  0.00     0.004 A 
HETATM   24  C9  UNL     1      22.120   3.095  47.039  1.00  0.00     0.019 A 
HETATM   25  C10 UNL     1      22.171   4.394  47.555  1.00  0.00     0.013 A 
HETATM   26 BR1  UNL     1      22.191   5.903  46.392  1.00  0.00    -0.051 Br
HETATM   27  C11 UNL     1      22.206   4.529  48.924  1.00  0.00     0.048 A 
ENDBRANCH  19  21
ENDBRANCH   5  19
TORSDOF 2
ENDMDL
MODEL 6
REMARK VINA RESULT:      -8.4      2.446      4.583
REMARK  2 active torsions:
REMARK  status: ('A' for Active; 'I' for Inactive)
REMARK    1  A    between atoms: C5_5  and  N1_6 
REMARK    2  A    between atoms: N1_6  and  C6_7 
ROOT
HETATM    1  C1  UNL     1      22.551   2.022  48.780  1.00  0.00     0.024 C 
HETATM    2  C2  UNL     1      21.423   1.092  49.159  1.00  0.00     0.097 C 
HETATM    3  C3  UNL     1      21.513   0.542  50.511  1.00  0.00     0.003 C 
HETATM    4  C4  UNL     1      20.829   0.284  51.584  1.00  0.00     0.018 A 
HETATM    5  C5  UNL     1      21.654  -0.276  52.534  1.00  0.00     0.067 A 
HETATM    6  C12 UNL     1      21.307  -0.658  53.802  1.00  0.00     0.089 A 
HETATM    7  C13 UNL     1      22.175  -1.241  54.775  1.00  0.00     0.103 C 
HETATM    8  N2  UNL     1      22.899  -1.710  55.561  1.00  0.00    -0.191 NA
HETATM    9  C14 UNL     1      20.033  -0.498  54.234  1.00  0.00     0.142 A 
HETATM   10  N3  UNL     1      19.214   0.045  53.324  1.00  0.00    -0.259 NA
HETATM   11  C15 UNL     1      19.560   0.417  52.079  1.00  0.00     0.065 A 
HETATM   12  C16 UNL     1      18.525   0.821  51.430  1.00  0.00     0.044 C 
HETATM   13  C17 UNL     1      17.327   1.249  50.823  1.00  0.00     0.039 C 
HETATM   14  C18 UNL     1      17.560   1.512  49.503  1.00  0.00     0.068 C 
HETATM   15  N4  UNL     1      18.939   1.200  49.406  1.00  0.00    -0.340 N 
HETATM   16  C19 UNL     1      20.149   1.875  49.170  1.00  0.00     0.228 C 
HETATM   17  O1  UNL     1      19.373   2.818  49.103  1.00  0.00    -0.273 OA
HETATM   18  H15 UNL     1      19.057   0.147  49.525  1.00  0.00     0.167 HD
ENDROOT
BRANCH   5  19
HETATM   19  N1  UNL     1      23.061  -0.558  52.325  1.00  0.00    -0.354 N 
HETATM   20  H6  UNL     1      23.441  -1.402  51.870  1.00  0.00     0.166 HD
BRANCH  19  21
HETATM   21  C6  UNL     1      23.943   0.436  52.801  1.00  0.00     0.033 A 
HETATM   22  C7  UNL     1      23.628   1.795  52.805  1.00  0.00     0.029 A 
HETATM   23  C8  UNL     1      24.523   2.738  53.279  1.00  0.00     0.004 A 
HETATM   24  C9  UNL     1      25.762   2.384  53.770  1.00  0.00     0.019 A 
HETATM   25  C10 UNL     1      26.126   1.033  53.787  1.00  0.00     0.013 A 
HETATM   26 BR1  UNL     1      27.826   0.491  54.454  1.00  0.00    -0.051 Br
HETATM   27  C11 UNL     1      25.209   0.127  53.307  1.00  0.00     0.048 A 
ENDBRANCH  19  21
ENDBRANCH   5  19
TORSDOF 2
ENDMDL
MODEL 7
REMARK VINA RESULT:      -8.4      2.751      5.473
REMARK  2 active torsions:
REMARK  status: ('A' for Active; 'I' for Inactive)
REMARK    1  A    between atoms: C5_5  and  N1_6 
REMARK    2  A    between atoms: N1_6  and  C6_7 
ROOT
HETATM    1  C1  UNL     1      26.801   0.568  51.584  1.00  0.00     0.024 C 
HETATM    2  C2  UNL     1      25.745   0.819  52.634  1.00  0.00     0.097 C 
HETATM    3  C3  UNL     1      24.380   0.916  52.116  1.00  0.00     0.003 C 
HETATM    4  C4  UNL     1      23.154   0.544  52.322  1.00  0.00     0.018 A 
HETATM    5  C5  UNL     1      22.343   1.060  51.336  1.00  0.00     0.067 A 
HETATM    6  C12 UNL     1      20.995   0.867  51.195  1.00  0.00     0.089 A 
HETATM    7  C13 UNL     1      20.167   1.413  50.167  1.00  0.00     0.103 C 
HETATM    8  N2  UNL     1      19.506   1.861  49.316  1.00  0.00    -0.191 NA
HETATM    9  C14 UNL     1      20.323   0.098  52.085  1.00  0.00     0.142 A 
HETATM   10  N3  UNL     1      21.094  -0.414  53.054  1.00  0.00    -0.259 NA
HETATM   11  C15 UNL     1      22.417  -0.219  53.188  1.00  0.00     0.065 A 
HETATM   12  C16 UNL     1      22.843  -0.775  54.268  1.00  0.00     0.044 C 
HETATM   13  C17 UNL     1      23.195  -1.427  55.466  1.00  0.00     0.039 C 
HETATM   14  C18 UNL     1      24.502  -1.159  55.759  1.00  0.00     0.068 C 
HETATM   15  N4  UNL     1      24.854  -0.321  54.671  1.00  0.00    -0.340 N 
HETATM   16  C19 UNL     1      25.701  -0.361  53.551  1.00  0.00     0.228 C 
HETATM   17  O1  UNL     1      25.940  -1.463  54.028  1.00  0.00    -0.273 OA
HETATM   18  H15 UNL     1      24.331   0.603  54.773  1.00  0.00     0.167 HD
ENDROOT
BRANCH   5  19
HETATM   19  N1  UNL     1      22.811   1.918  50.264  1.00  0.00    -0.354 N 
HETATM   20  H6  UNL     1      22.933   1.633  49.280  1.00  0.00     0.166 HD
BRANCH  19  21
HETATM   21  C6  UNL     1      23.111   3.241  50.650  1.00  0.00     0.033 A 
HETATM   22  C7  UNL     1      22.428   3.910  51.667  1.00  0.00     0.029 A 
HETATM   23  C8  UNL     1      22.753   5.210  52.015  1.00  0.00     0.004 A 
HETATM   24  C9  UNL     1      23.761   5.904  51.379  1.00  0.00     0.019 A 
HETATM   25  C10 UNL     1      24.475   5.277  50.353  1.00  0.00     0.013 A 
HETATM   26 BR1  UNL     1      25.876   6.191  49.442  1.00  0.00    -0.051 Br
HETATM   27  C11 UNL     1      24.122   3.985  50.037  1.00  0.00     0.048 A 
ENDBRANCH  19  21
ENDBRANCH   5  19
TORSDOF 2
ENDMDL
MODEL 8
REMARK VINA RESULT:      -8.1      3.623      6.871
REMARK  2 active torsions:
REMARK  status: ('A' for Active; 'I' for Inactive)
REMARK    1  A    between atoms: C5_5  and  N1_6 
REMARK    2  A    between atoms: N1_6  and  C6_7 
ROOT
HETATM    1  C1  UNL     1      21.242   4.498  50.716  1.00  0.00     0.024 C 
HETATM    2  C2  UNL     1      22.542   4.261  51.448  1.00  0.00     0.097 C 
HETATM    3  C3  UNL     1      22.623   2.980  52.150  1.00  0.00     0.003 C 
HETATM    4  C4  UNL     1      23.394   1.963  52.387  1.00  0.00     0.018 A 
HETATM    5  C5  UNL     1      22.736   1.063  53.195  1.00  0.00     0.067 A 
HETATM    6  C12 UNL     1      23.210  -0.142  53.640  1.00  0.00     0.089 A 
HETATM    7  C13 UNL     1      22.516  -1.063  54.483  1.00  0.00     0.103 C 
HETATM    8  N2  UNL     1      21.931  -1.808  55.165  1.00  0.00    -0.191 NA
HETATM    9  C14 UNL     1      24.450  -0.556  53.286  1.00  0.00     0.142 A 
HETATM   10  N3  UNL     1      25.108   0.307  52.500  1.00  0.00    -0.259 NA
HETATM   11  C15 UNL     1      24.638   1.490  52.068  1.00  0.00     0.065 A 
HETATM   12  C16 UNL     1      25.545   2.115  51.403  1.00  0.00     0.044 C 
HETATM   13  C17 UNL     1      26.611   2.699  50.689  1.00  0.00     0.039 C 
HETATM   14  C18 UNL     1      26.270   3.973  50.333  1.00  0.00     0.068 C 
HETATM   15  N4  UNL     1      24.970   4.069  50.891  1.00  0.00    -0.340 N 
HETATM   16  C19 UNL     1      23.645   4.192  50.441  1.00  0.00     0.228 C 
HETATM   17  O1  UNL     1      24.226   4.169  49.364  1.00  0.00    -0.273 OA
HETATM   18  H15 UNL     1      25.058   4.070  51.955  1.00  0.00     0.167 HD
ENDROOT
BRANCH   5  19
HETATM   19  N1  UNL     1      21.398   1.266  53.718  1.00  0.00    -0.354 N 
HETATM   20  H6  UNL     1      21.169   1.743  54.604  1.00  0.00     0.166 HD
BRANCH  19  21
HETATM   21  C6  UNL     1      20.361   0.751  52.913  1.00  0.00     0.033 A 
HETATM   22  C7  UNL     1      20.100   1.212  51.622  1.00  0.00     0.029 A 
HETATM   23  C8  UNL     1      19.071   0.680  50.864  1.00  0.00     0.004 A 
HETATM   24  C9  UNL     1      18.258  -0.326  51.344  1.00  0.00     0.019 A 
HETATM   25  C10 UNL     1      18.480  -0.823  52.632  1.00  0.00     0.013 A 
HETATM   26 BR1  UNL     1      17.386  -2.212  53.342  1.00  0.00    -0.051 Br
HETATM   27  C11 UNL     1      19.513  -0.268  53.353  1.00  0.00     0.048 A 
ENDBRANCH  19  21
ENDBRANCH   5  19
TORSDOF 2
ENDMDL
MODEL 9
REMARK VINA RESULT:      -8.1      3.293      5.572
REMARK  2 active torsions:
REMARK  status: ('A' for Active; 'I' for Inactive)
REMARK    1  A    between atoms: C5_5  and  N1_6 
REMARK    2  A    between atoms: N1_6  and  C6_7 
ROOT
HETATM    1  C1  UNL     1      19.625   1.870  51.446  1.00  0.00     0.024 C 
HETATM    2  C2  UNL     1      20.675   0.797  51.618  1.00  0.00     0.097 C 
HETATM    3  C3  UNL     1      22.052   1.259  51.452  1.00  0.00     0.003 C 
HETATM    4  C4  UNL     1      23.248   1.186  51.953  1.00  0.00     0.018 A 
HETATM    5  C5  UNL     1      24.109   1.956  51.204  1.00  0.00     0.067 A 
HETATM    6  C12 UNL     1      25.445   2.155  51.432  1.00  0.00     0.089 A 
HETATM    7  C13 UNL     1      26.327   2.954  50.643  1.00  0.00     0.103 C 
HETATM    8  N2  UNL     1      27.032   3.617  49.991  1.00  0.00    -0.191 NA
HETATM    9  C14 UNL     1      26.048   1.560  52.490  1.00  0.00     0.142 A 
HETATM   10  N3  UNL     1      25.226   0.806  53.232  1.00  0.00    -0.259 NA
HETATM   11  C15 UNL     1      23.916   0.613  53.001  1.00  0.00     0.065 A 
HETATM   12  C16 UNL     1      23.434  -0.231  53.843  1.00  0.00     0.044 C 
HETATM   13  C17 UNL     1      23.017  -1.157  54.821  1.00  0.00     0.039 C 
HETATM   14  C18 UNL     1      21.724  -1.523  54.573  1.00  0.00     0.068 C 
HETATM   15  N4  UNL     1      21.449  -0.764  53.408  1.00  0.00    -0.340 N 
HETATM   16  C19 UNL     1      20.623   0.308  53.030  1.00  0.00     0.228 C 
HETATM   17  O1  UNL     1      20.304   0.210  54.207  1.00  0.00    -0.273 OA
HETATM   18  H15 UNL     1      22.029  -1.156  52.603  1.00  0.00     0.167 HD
ENDROOT
BRANCH   5  19
HETATM   19  N1  UNL     1      23.720   2.694  50.018  1.00  0.00    -0.354 N 
HETATM   20  H6  UNL     1      23.968   2.443  49.049  1.00  0.00     0.166 HD
BRANCH  19  21
HETATM   21  C6  UNL     1      22.937   3.842  50.263  1.00  0.00     0.033 A 
HETATM   22  C7  UNL     1      23.197   4.732  51.306  1.00  0.00     0.029 A 
HETATM   23  C8  UNL     1      22.403   5.847  51.512  1.00  0.00     0.004 A 
HETATM   24  C9  UNL     1      21.324   6.133  50.703  1.00  0.00     0.019 A 
HETATM   25  C10 UNL     1      21.022   5.271  49.644  1.00  0.00     0.013 A 
HETATM   26 BR1  UNL     1      19.541   5.620  48.496  1.00  0.00    -0.051 Br
HETATM   27  C11 UNL     1      21.834   4.174  49.471  1.00  0.00     0.048 A 
ENDBRANCH  19  21
ENDBRANCH   5  19
TORSDOF 2
ENDMDL
