MODEL 1
REMARK VINA RESULT:     -10.2      0.000      0.000
REMARK  1 active torsions:
REMARK  status: ('A' for Active; 'I' for Inactive)
REMARK    1  A    between atoms: C2_2  and  C4_4 
ROOT
HETATM    1  C4  UNL     1      26.388   0.490  52.939  1.00  0.00     0.044 C 
HETATM    2  C5  UNL     1      26.845   1.432  52.172  1.00  0.00     0.099 C 
HETATM    3  C6  UNL     1      26.836   2.567  51.239  1.00  0.00     0.308 A 
HETATM    4  O1  UNL     1      26.912   3.515  50.483  1.00  0.00    -0.125 OA
HETATM    5  N1  UNL     1      25.647   2.936  50.480  1.00  0.00     0.105 N 
HETATM    6  C7  UNL     1      25.095   3.900  49.561  1.00  0.00     0.285 C 
HETATM    7  C8  UNL     1      23.841   3.544  48.852  1.00  0.00     0.073 C 
HETATM    8  C9  UNL     1      22.762   2.883  49.538  1.00  0.00    -0.017 A 
HETATM    9  C10 UNL     1      22.029   2.776  50.673  1.00  0.00     0.020 A 
HETATM   10  C11 UNL     1      21.007   1.960  50.979  1.00  0.00    -0.018 A 
HETATM   11  C12 UNL     1      20.493   1.024  50.118  1.00  0.00     0.125 A 
HETATM   12  F1  UNL     1      19.462   0.275  50.558  1.00  0.00    -0.205 F 
HETATM   13  C13 UNL     1      21.145   1.014  48.906  1.00  0.00     0.085 A 
HETATM   14  C14 UNL     1      22.198   1.899  48.681  1.00  0.00     0.125 A 
HETATM   15  F2  UNL     1      22.635   1.634  47.386  1.00  0.00    -0.205 F 
HETATM   16  C15 UNL     1      20.451   2.083  52.348  1.00  0.00     0.046 C 
HETATM   17  O2  UNL     1      21.264   1.563  53.332  1.00  0.00     0.000 OA
HETATM   18  C16 UNL     1      21.767   0.344  53.605  1.00  0.00     0.209 A 
HETATM   19  N2  UNL     1      22.684   1.228  53.223  1.00  0.00    -0.265 N 
HETATM   20  C17 UNL     1      23.926   1.263  53.047  1.00  0.00     0.269 A 
HETATM   21  N3  UNL     1      25.085   0.692  53.066  1.00  0.00    -0.314 N 
HETATM   22  C18 UNL     1      24.007   0.014  53.406  1.00  0.00     0.230 A 
HETATM   23  O3  UNL     1      24.262  -1.180  53.721  1.00  0.00    -0.318 OA
HETATM   24  C19 UNL     1      22.853  -0.546  53.719  1.00  0.00     0.227 A 
HETATM   25 CL1  UNL     1      21.388  -1.218  54.107  1.00  0.00    -0.135 Cl
HETATM   26  H7  UNL     1      24.841   2.248  50.604  1.00  0.00     0.328 HD
ENDROOT
BRANCH   1  27
HETATM   27  C2  UNL     1      27.411  -0.271  53.520  1.00  0.00    -0.044 C 
HETATM   28  C1  UNL     1      27.532  -1.377  52.906  1.00  0.00     0.021 C 
HETATM   29  C3  UNL     1      28.304   0.009  54.651  1.00  0.00     0.049 C 
ENDBRANCH   1  27
TORSDOF 1
ENDMDL
MODEL 2
REMARK VINA RESULT:      -9.4      3.087      6.284
REMARK  1 active torsions:
REMARK  status: ('A' for Active; 'I' for Inactive)
REMARK    1  A    between atoms: C2_2  and  C4_4 
ROOT
HETATM    1  C4  UNL     1      19.667  -0.107  52.624  1.00  0.00     0.044 C 
HETATM    2  C5  UNL     1      20.244  -0.861  53.510  1.00  0.00     0.099 C 
HETATM    3  C6  UNL     1      21.274  -1.343  54.439  1.00  0.00     0.308 A 
HETATM    4  O1  UNL     1      22.069  -1.796  55.239  1.00  0.00    -0.125 OA
HETATM    5  N1  UNL     1      22.654  -0.873  54.377  1.00  0.00     0.105 N 
HETATM    6  C7  UNL     1      23.946  -0.943  55.013  1.00  0.00     0.285 C 
HETATM    7  C8  UNL     1      25.121  -0.455  54.252  1.00  0.00     0.073 C 
HETATM    8  C9  UNL     1      25.051   0.752  53.469  1.00  0.00    -0.017 A 
HETATM    9  C10 UNL     1      24.592   2.024  53.376  1.00  0.00     0.020 A 
HETATM   10  C11 UNL     1      24.734   2.934  52.398  1.00  0.00    -0.018 A 
HETATM   11  C12 UNL     1      25.426   2.704  51.237  1.00  0.00     0.125 A 
HETATM   12  F1  UNL     1      25.489   3.712  50.343  1.00  0.00    -0.205 F 
HETATM   13  C13 UNL     1      25.959   1.436  51.186  1.00  0.00     0.085 A 
HETATM   14  C14 UNL     1      25.758   0.560  52.250  1.00  0.00     0.125 A 
HETATM   15  F2  UNL     1      26.408  -0.617  51.890  1.00  0.00    -0.205 F 
HETATM   16  C15 UNL     1      24.057   4.237  52.606  1.00  0.00     0.046 C 
HETATM   17  O2  UNL     1      22.687   4.186  52.469  1.00  0.00     0.000 OA
HETATM   18  C16 UNL     1      21.842   3.863  51.471  1.00  0.00     0.209 A 
HETATM   19  N2  UNL     1      21.840   2.992  52.476  1.00  0.00    -0.265 N 
HETATM   20  C17 UNL     1      21.251   1.927  52.783  1.00  0.00     0.269 A 
HETATM   21  N3  UNL     1      20.395   0.996  52.522  1.00  0.00    -0.314 N 
HETATM   22  C18 UNL     1      20.582   1.982  51.667  1.00  0.00     0.230 A 
HETATM   23  O3  UNL     1      19.857   1.880  50.640  1.00  0.00    -0.318 OA
HETATM   24  C19 UNL     1      20.867   3.021  50.903  1.00  0.00     0.227 A 
HETATM   25 CL1  UNL     1      21.247   4.336  49.969  1.00  0.00    -0.135 Cl
HETATM   26  H7  UNL     1      22.841  -0.234  53.544  1.00  0.00     0.328 HD
ENDROOT
BRANCH   1  27
HETATM   27  C2  UNL     1      18.411  -0.594  52.241  1.00  0.00    -0.044 C 
HETATM   28  C1  UNL     1      17.990  -1.432  53.099  1.00  0.00     0.021 C 
HETATM   29  C3  UNL     1      17.567  -0.292  51.078  1.00  0.00     0.049 C 
ENDBRANCH   1  27
TORSDOF 1
ENDMDL
MODEL 3
REMARK VINA RESULT:      -9.2      3.037      5.700
REMARK  1 active torsions:
REMARK  status: ('A' for Active; 'I' for Inactive)
REMARK    1  A    between atoms: C2_2  and  C4_4 
ROOT
HETATM    1  C4  UNL     1      19.242  -0.566  52.569  1.00  0.00     0.044 C 
HETATM    2  C5  UNL     1      19.016   0.111  51.485  1.00  0.00     0.099 C 
HETATM    3  C6  UNL     1      19.280   0.980  50.330  1.00  0.00     0.308 A 
HETATM    4  O1  UNL     1      19.422   1.677  49.345  1.00  0.00    -0.125 OA
HETATM    5  N1  UNL     1      20.475   1.813  50.245  1.00  0.00     0.105 N 
HETATM    6  C7  UNL     1      21.212   2.722  49.403  1.00  0.00     0.285 C 
HETATM    7  C8  UNL     1      22.271   3.547  50.034  1.00  0.00     0.073 C 
HETATM    8  C9  UNL     1      23.166   2.986  51.013  1.00  0.00    -0.017 A 
HETATM    9  C10 UNL     1      23.911   1.922  51.397  1.00  0.00     0.020 A 
HETATM   10  C11 UNL     1      24.685   1.743  52.481  1.00  0.00    -0.018 A 
HETATM   11  C12 UNL     1      24.864   2.691  53.456  1.00  0.00     0.125 A 
HETATM   12  F1  UNL     1      25.673   2.375  54.487  1.00  0.00    -0.205 F 
HETATM   13  C13 UNL     1      24.159   3.845  53.199  1.00  0.00     0.085 A 
HETATM   14  C14 UNL     1      23.381   3.938  52.048  1.00  0.00     0.125 A 
HETATM   15  F2  UNL     1      22.806   5.205  52.088  1.00  0.00    -0.205 F 
HETATM   16  C15 UNL     1      25.339   0.419  52.614  1.00  0.00     0.046 C 
HETATM   17  O2  UNL     1      24.478  -0.599  52.963  1.00  0.00     0.000 OA
HETATM   18  C16 UNL     1      23.675  -0.847  54.016  1.00  0.00     0.209 A 
HETATM   19  N2  UNL     1      23.016  -0.587  52.890  1.00  0.00    -0.265 N 
HETATM   20  C17 UNL     1      21.824  -0.515  52.505  1.00  0.00     0.269 A 
HETATM   21  N3  UNL     1      20.556  -0.598  52.739  1.00  0.00    -0.314 N 
HETATM   22  C18 UNL     1      21.423  -0.813  53.708  1.00  0.00     0.230 A 
HETATM   23  O3  UNL     1      20.868  -1.085  54.807  1.00  0.00    -0.318 OA
HETATM   24  C19 UNL     1      22.395  -1.002  54.583  1.00  0.00     0.227 A 
HETATM   25 CL1  UNL     1      23.638  -1.234  55.654  1.00  0.00    -0.135 Cl
HETATM   26  H7  UNL     1      21.064   1.791  51.133  1.00  0.00     0.328 HD
ENDROOT
BRANCH   1  27
HETATM   27  C2  UNL     1      18.088  -1.187  53.064  1.00  0.00    -0.044 C 
HETATM   28  C1  UNL     1      17.059  -0.519  52.733  1.00  0.00     0.021 C 
HETATM   29  C3  UNL     1      17.909  -2.417  53.846  1.00  0.00     0.049 C 
ENDBRANCH   1  27
TORSDOF 1
ENDMDL
MODEL 4
REMARK VINA RESULT:      -8.3      3.184      5.538
REMARK  1 active torsions:
REMARK  status: ('A' for Active; 'I' for Inactive)
REMARK    1  A    between atoms: C2_2  and  C4_4 
ROOT
HETATM    1  C4  UNL     1      21.898   0.955  53.079  1.00  0.00     0.044 C 
HETATM    2  C5  UNL     1      20.727   1.307  52.641  1.00  0.00     0.099 C 
HETATM    3  C6  UNL     1      19.716   2.021  51.851  1.00  0.00     0.308 A 
HETATM    4  O1  UNL     1      18.823   2.557  51.225  1.00  0.00    -0.125 OA
HETATM    5  N1  UNL     1      20.027   3.246  51.122  1.00  0.00     0.105 N 
HETATM    6  C7  UNL     1      19.500   4.238  50.219  1.00  0.00     0.285 C 
HETATM    7  C8  UNL     1      20.249   5.509  50.071  1.00  0.00     0.073 C 
HETATM    8  C9  UNL     1      21.686   5.520  49.989  1.00  0.00    -0.017 A 
HETATM    9  C10 UNL     1      22.804   4.926  49.506  1.00  0.00     0.020 A 
HETATM   10  C11 UNL     1      24.100   5.246  49.659  1.00  0.00    -0.018 A 
HETATM   11  C12 UNL     1      24.539   6.320  50.390  1.00  0.00     0.125 A 
HETATM   12  F1  UNL     1      25.870   6.524  50.455  1.00  0.00    -0.205 F 
HETATM   13  C13 UNL     1      23.502   7.031  50.951  1.00  0.00     0.085 A 
HETATM   14  C14 UNL     1      22.188   6.621  50.737  1.00  0.00     0.125 A 
HETATM   15  F2  UNL     1      21.397   7.532  51.430  1.00  0.00    -0.205 F 
HETATM   16  C15 UNL     1      25.084   4.343  49.016  1.00  0.00     0.046 C 
HETATM   17  O2  UNL     1      25.228   3.128  49.650  1.00  0.00     0.000 OA
HETATM   18  C16 UNL     1      25.614   2.736  50.879  1.00  0.00     0.209 A 
HETATM   19  N2  UNL     1      24.323   2.529  50.633  1.00  0.00    -0.265 N 
HETATM   20  C17 UNL     1      23.329   2.047  51.227  1.00  0.00     0.269 A 
HETATM   21  N3  UNL     1      22.794   1.490  52.262  1.00  0.00    -0.314 N 
HETATM   22  C18 UNL     1      24.075   1.798  52.265  1.00  0.00     0.230 A 
HETATM   23  O3  UNL     1      24.647   1.493  53.346  1.00  0.00    -0.318 OA
HETATM   24  C19 UNL     1      25.339   2.159  52.134  1.00  0.00     0.227 A 
HETATM   25 CL1  UNL     1      26.918   2.621  51.938  1.00  0.00    -0.135 Cl
HETATM   26  H7  UNL     1      21.015   3.602  51.305  1.00  0.00     0.328 HD
ENDROOT
BRANCH   1  27
HETATM   27  C2  UNL     1      21.823  -0.002  54.100  1.00  0.00    -0.044 C 
HETATM   28  C1  UNL     1      20.808   0.221  54.831  1.00  0.00     0.021 C 
HETATM   29  C3  UNL     1      22.684  -1.149  54.419  1.00  0.00     0.049 C 
ENDBRANCH   1  27
TORSDOF 1
ENDMDL
MODEL 5
REMARK VINA RESULT:      -8.3      2.853      4.841
REMARK  1 active torsions:
REMARK  status: ('A' for Active; 'I' for Inactive)
REMARK    1  A    between atoms: C2_2  and  C4_4 
ROOT
HETATM    1  C4  UNL     1      26.101   5.579  49.018  1.00  0.00     0.044 C 
HETATM    2  C5  UNL     1      25.165   6.353  48.558  1.00  0.00     0.099 C 
HETATM    3  C6  UNL     1      23.814   6.873  48.310  1.00  0.00     0.308 A 
HETATM    4  O1  UNL     1      22.732   7.373  48.073  1.00  0.00    -0.125 OA
HETATM    5  N1  UNL     1      22.620   6.073  48.556  1.00  0.00     0.105 N 
HETATM    6  C7  UNL     1      21.178   6.088  48.555  1.00  0.00     0.285 C 
HETATM    7  C8  UNL     1      20.470   4.785  48.597  1.00  0.00     0.073 C 
HETATM    8  C9  UNL     1      20.925   3.720  49.452  1.00  0.00    -0.017 A 
HETATM    9  C10 UNL     1      21.435   3.364  50.656  1.00  0.00     0.020 A 
HETATM   10  C11 UNL     1      21.771   2.157  51.140  1.00  0.00    -0.018 A 
HETATM   11  C12 UNL     1      21.640   0.988  50.435  1.00  0.00     0.125 A 
HETATM   12  F1  UNL     1      22.014  -0.152  51.049  1.00  0.00    -0.205 F 
HETATM   13  C13 UNL     1      21.125   1.192  49.174  1.00  0.00     0.085 A 
HETATM   14  C14 UNL     1      20.807   2.483  48.759  1.00  0.00     0.125 A 
HETATM   15  F2  UNL     1      20.325   2.347  47.460  1.00  0.00    -0.205 F 
HETATM   16  C15 UNL     1      22.348   2.131  52.506  1.00  0.00     0.046 C 
HETATM   17  O2  UNL     1      23.640   2.607  52.578  1.00  0.00     0.000 OA
HETATM   18  C16 UNL     1      24.817   2.250  52.033  1.00  0.00     0.209 A 
HETATM   19  N2  UNL     1      24.346   3.407  51.577  1.00  0.00    -0.265 N 
HETATM   20  C17 UNL     1      24.697   4.300  50.768  1.00  0.00     0.269 A 
HETATM   21  N3  UNL     1      25.539   4.784  49.917  1.00  0.00    -0.314 N 
HETATM   22  C18 UNL     1      25.784   3.632  50.510  1.00  0.00     0.230 A 
HETATM   23  O3  UNL     1      26.876   3.119  50.144  1.00  0.00    -0.318 OA
HETATM   24  C19 UNL     1      25.904   2.495  51.171  1.00  0.00     0.227 A 
HETATM   25 CL1  UNL     1      26.024   1.075  52.018  1.00  0.00    -0.135 Cl
HETATM   26  H7  UNL     1      22.840   5.067  48.834  1.00  0.00     0.328 HD
ENDROOT
BRANCH   1  27
HETATM   27  C2  UNL     1      27.376   5.965  48.585  1.00  0.00    -0.044 C 
HETATM   28  C1  UNL     1      27.423   7.226  48.439  1.00  0.00     0.021 C 
HETATM   29  C3  UNL     1      28.584   5.177  48.304  1.00  0.00     0.049 C 
ENDBRANCH   1  27
TORSDOF 1
ENDMDL
MODEL 6
REMARK VINA RESULT:      -8.1      3.172      5.639
REMARK  1 active torsions:
REMARK  status: ('A' for Active; 'I' for Inactive)
REMARK    1  A    between atoms: C2_2  and  C4_4 
ROOT
HETATM    1  C4  UNL     1      22.100  -0.255  53.181  1.00  0.00     0.044 C 
HETATM    2  C5  UNL     1      20.932  -0.741  53.472  1.00  0.00     0.099 C 
HETATM    3  C6  UNL     1      19.488  -0.996  53.373  1.00  0.00     0.308 A 
HETATM    4  O1  UNL     1      18.304  -1.267  53.348  1.00  0.00    -0.125 OA
HETATM    5  N1  UNL     1      18.608  -0.156  52.568  1.00  0.00     0.105 N 
HETATM    6  C7  UNL     1      17.256   0.011  52.097  1.00  0.00     0.285 C 
HETATM    7  C8  UNL     1      16.878   1.325  51.523  1.00  0.00     0.073 C 
HETATM    8  C9  UNL     1      17.770   2.037  50.644  1.00  0.00    -0.017 A 
HETATM    9  C10 UNL     1      18.665   1.967  49.628  1.00  0.00     0.020 A 
HETATM   10  C11 UNL     1      19.369   2.933  49.017  1.00  0.00    -0.018 A 
HETATM   11  C12 UNL     1      19.289   4.262  49.349  1.00  0.00     0.125 A 
HETATM   12  F1  UNL     1      20.053   5.123  48.647  1.00  0.00    -0.205 F 
HETATM   13  C13 UNL     1      18.406   4.492  50.380  1.00  0.00     0.085 A 
HETATM   14  C14 UNL     1      17.721   3.424  50.953  1.00  0.00     0.125 A 
HETATM   15  F2  UNL     1      16.928   3.984  51.951  1.00  0.00    -0.205 F 
HETATM   16  C15 UNL     1      20.304   2.496  47.952  1.00  0.00     0.046 C 
HETATM   17  O2  UNL     1      21.433   1.861  48.423  1.00  0.00     0.000 OA
HETATM   18  C16 UNL     1      22.454   2.209  49.229  1.00  0.00     0.209 A 
HETATM   19  N2  UNL     1      21.641   1.298  49.758  1.00  0.00    -0.265 N 
HETATM   20  C17 UNL     1      21.552   0.637  50.820  1.00  0.00     0.269 A 
HETATM   21  N3  UNL     1      21.997   0.315  51.990  1.00  0.00    -0.314 N 
HETATM   22  C18 UNL     1      22.635   1.209  51.262  1.00  0.00     0.230 A 
HETATM   23  O3  UNL     1      23.660   1.665  51.839  1.00  0.00    -0.318 OA
HETATM   24  C19 UNL     1      23.174   2.086  50.433  1.00  0.00     0.227 A 
HETATM   25 CL1  UNL     1      23.824   3.178  49.370  1.00  0.00    -0.135 Cl
HETATM   26  H7  UNL     1      19.103   0.693  52.154  1.00  0.00     0.328 HD
ENDROOT
BRANCH   1  27
HETATM   27  C2  UNL     1      23.089  -0.657  54.088  1.00  0.00    -0.044 C 
HETATM   28  C1  UNL     1      22.552  -1.188  55.110  1.00  0.00     0.021 C 
HETATM   29  C3  UNL     1      24.554  -0.568  54.028  1.00  0.00     0.049 C 
ENDBRANCH   1  27
TORSDOF 1
ENDMDL
MODEL 7
REMARK VINA RESULT:      -8.0      3.185      5.838
REMARK  1 active torsions:
REMARK  status: ('A' for Active; 'I' for Inactive)
REMARK    1  A    between atoms: C2_2  and  C4_4 
ROOT
HETATM    1  C4  UNL     1      20.221   0.685  52.289  1.00  0.00     0.044 C 
HETATM    2  C5  UNL     1      21.181   0.091  52.930  1.00  0.00     0.099 C 
HETATM    3  C6  UNL     1      22.509  -0.124  53.521  1.00  0.00     0.308 A 
HETATM    4  O1  UNL     1      23.576  -0.369  54.049  1.00  0.00    -0.125 OA
HETATM    5  N1  UNL     1      23.662   0.690  53.150  1.00  0.00     0.105 N 
HETATM    6  C7  UNL     1      25.053   0.945  53.427  1.00  0.00     0.285 C 
HETATM    7  C8  UNL     1      25.824   1.736  52.436  1.00  0.00     0.073 C 
HETATM    8  C9  UNL     1      25.252   2.897  51.805  1.00  0.00    -0.017 A 
HETATM    9  C10 UNL     1      24.488   4.008  51.942  1.00  0.00     0.020 A 
HETATM   10  C11 UNL     1      24.133   4.940  51.043  1.00  0.00    -0.018 A 
HETATM   11  C12 UNL     1      24.523   4.919  49.728  1.00  0.00     0.125 A 
HETATM   12  F1  UNL     1      24.094   5.924  48.938  1.00  0.00    -0.205 F 
HETATM   13  C13 UNL     1      25.317   3.834  49.434  1.00  0.00     0.085 A 
HETATM   14  C14 UNL     1      25.630   2.917  50.434  1.00  0.00     0.125 A 
HETATM   15  F2  UNL     1      26.428   1.956  49.820  1.00  0.00    -0.205 F 
HETATM   16  C15 UNL     1      23.240   6.019  51.528  1.00  0.00     0.046 C 
HETATM   17  O2  UNL     1      21.939   5.616  51.741  1.00  0.00     0.000 OA
HETATM   18  C16 UNL     1      20.963   5.104  50.967  1.00  0.00     0.209 A 
HETATM   19  N2  UNL     1      21.445   4.244  51.861  1.00  0.00    -0.265 N 
HETATM   20  C17 UNL     1      21.240   3.058  52.214  1.00  0.00     0.269 A 
HETATM   21  N3  UNL     1      20.601   1.941  52.100  1.00  0.00    -0.314 N 
HETATM   22  C18 UNL     1      20.303   2.957  51.315  1.00  0.00     0.230 A 
HETATM   23  O3  UNL     1      19.378   2.689  50.502  1.00  0.00    -0.318 OA
HETATM   24  C19 UNL     1      20.109   4.047  50.596  1.00  0.00     0.227 A 
HETATM   25 CL1  UNL     1      19.889   5.433  49.713  1.00  0.00    -0.135 Cl
HETATM   26  H7  UNL     1      23.456   1.370  52.355  1.00  0.00     0.328 HD
ENDROOT
BRANCH   1  27
HETATM   27  C2  UNL     1      19.068  -0.105  52.198  1.00  0.00    -0.044 C 
HETATM   28  C1  UNL     1      18.984  -0.869  53.210  1.00  0.00     0.021 C 
HETATM   29  C3  UNL     1      18.013  -0.166  51.179  1.00  0.00     0.049 C 
ENDBRANCH   1  27
TORSDOF 1
ENDMDL
MODEL 8
REMARK VINA RESULT:      -7.9      3.025      5.185
REMARK  1 active torsions:
REMARK  status: ('A' for Active; 'I' for Inactive)
REMARK    1  A    between atoms: C2_2  and  C4_4 
ROOT
HETATM    1  C4  UNL     1      23.743   1.079  52.644  1.00  0.00     0.044 C 
HETATM    2  C5  UNL     1      22.843   0.280  53.132  1.00  0.00     0.099 C 
HETATM    3  C6  UNL     1      21.557  -0.417  53.269  1.00  0.00     0.308 A 
HETATM    4  O1  UNL     1      20.531  -1.044  53.441  1.00  0.00    -0.125 OA
HETATM    5  N1  UNL     1      20.353   0.039  52.585  1.00  0.00     0.105 N 
HETATM    6  C7  UNL     1      18.967  -0.262  52.327  1.00  0.00     0.285 C 
HETATM    7  C8  UNL     1      18.113   0.818  51.774  1.00  0.00     0.073 C 
HETATM    8  C9  UNL     1      18.601   1.696  50.743  1.00  0.00    -0.017 A 
HETATM    9  C10 UNL     1      19.321   1.824  49.602  1.00  0.00     0.020 A 
HETATM   10  C11 UNL     1      19.589   2.908  48.855  1.00  0.00    -0.018 A 
HETATM   11  C12 UNL     1      19.136   4.168  49.149  1.00  0.00     0.125 A 
HETATM   12  F1  UNL     1      19.479   5.163  48.306  1.00  0.00    -0.205 F 
HETATM   13  C13 UNL     1      18.377   4.197  50.297  1.00  0.00     0.085 A 
HETATM   14  C14 UNL     1      18.155   3.020  51.008  1.00  0.00     0.125 A 
HETATM   15  F2  UNL     1      17.371   3.387  52.098  1.00  0.00    -0.205 F 
HETATM   16  C15 UNL     1      20.457   2.696  47.671  1.00  0.00     0.046 C 
HETATM   17  O2  UNL     1      21.784   2.484  47.980  1.00  0.00     0.000 OA
HETATM   18  C16 UNL     1      22.741   3.196  48.603  1.00  0.00     0.209 A 
HETATM   19  N2  UNL     1      22.343   2.125  49.284  1.00  0.00    -0.265 N 
HETATM   20  C17 UNL     1      22.618   1.559  50.370  1.00  0.00     0.269 A 
HETATM   21  N3  UNL     1      23.299   1.488  51.465  1.00  0.00    -0.314 N 
HETATM   22  C18 UNL     1      23.512   2.473  50.615  1.00  0.00     0.230 A 
HETATM   23  O3  UNL     1      24.407   3.270  51.008  1.00  0.00    -0.318 OA
HETATM   24  C19 UNL     1      23.622   3.402  49.683  1.00  0.00     0.227 A 
HETATM   25 CL1  UNL     1      23.736   4.550  48.493  1.00  0.00    -0.135 Cl
HETATM   26  H7  UNL     1      20.489   0.962  52.069  1.00  0.00     0.328 HD
ENDROOT
BRANCH   1  27
HETATM   27  C2  UNL     1      24.924   1.079  53.397  1.00  0.00    -0.044 C 
HETATM   28  C1  UNL     1      25.206  -0.104  53.765  1.00  0.00     0.021 C 
HETATM   29  C3  UNL     1      25.824   2.172  53.788  1.00  0.00     0.049 C 
ENDBRANCH   1  27
TORSDOF 1
ENDMDL
MODEL 9
REMARK VINA RESULT:      -7.9      2.488      3.678
REMARK  1 active torsions:
REMARK  status: ('A' for Active; 'I' for Inactive)
REMARK    1  A    between atoms: C2_2  and  C4_4 
ROOT
HETATM    1  C4  UNL     1      22.168   0.085  53.437  1.00  0.00     0.044 C 
HETATM    2  C5  UNL     1      23.367   0.509  53.175  1.00  0.00     0.099 C 
HETATM    3  C6  UNL     1      24.435   1.312  52.564  1.00  0.00     0.308 A 
HETATM    4  O1  UNL     1      25.372   1.943  52.116  1.00  0.00    -0.125 OA
HETATM    5  N1  UNL     1      24.210   2.121  51.371  1.00  0.00     0.105 N 
HETATM    6  C7  UNL     1      24.812   3.067  50.466  1.00  0.00     0.285 C 
HETATM    7  C8  UNL     1      24.138   3.312  49.168  1.00  0.00     0.073 C 
HETATM    8  C9  UNL     1      22.705   3.436  49.087  1.00  0.00    -0.017 A 
HETATM    9  C10 UNL     1      21.569   3.914  49.650  1.00  0.00     0.020 A 
HETATM   10  C11 UNL     1      20.290   3.817  49.253  1.00  0.00    -0.018 A 
HETATM   11  C12 UNL     1      19.891   3.165  48.115  1.00  0.00     0.125 A 
HETATM   12  F1  UNL     1      18.572   3.150  47.838  1.00  0.00    -0.205 F 
HETATM   13  C13 UNL     1      20.951   2.618  47.426  1.00  0.00     0.085 A 
HETATM   14  C14 UNL     1      22.245   2.770  47.918  1.00  0.00     0.125 A 
HETATM   15  F2  UNL     1      23.067   2.110  47.008  1.00  0.00    -0.205 F 
HETATM   16  C15 UNL     1      19.275   4.434  50.142  1.00  0.00     0.046 C 
HETATM   17  O2  UNL     1      19.049   3.732  51.306  1.00  0.00     0.000 OA
HETATM   18  C16 UNL     1      18.611   2.493  51.601  1.00  0.00     0.209 A 
HETATM   19  N2  UNL     1      19.895   2.690  51.891  1.00  0.00    -0.265 N 
HETATM   20  C17 UNL     1      20.846   2.040  52.386  1.00  0.00     0.269 A 
HETATM   21  N3  UNL     1      21.324   0.958  52.907  1.00  0.00    -0.314 N 
HETATM   22  C18 UNL     1      20.061   1.011  52.532  1.00  0.00     0.230 A 
HETATM   23  O3  UNL     1      19.446  -0.070  52.739  1.00  0.00    -0.318 OA
HETATM   24  C19 UNL     1      18.822   1.198  52.114  1.00  0.00     0.227 A 
HETATM   25 CL1  UNL     1      17.276   1.467  51.582  1.00  0.00    -0.135 Cl
HETATM   26  H7  UNL     1      23.238   1.988  50.953  1.00  0.00     0.328 HD
ENDROOT
BRANCH   1  27
HETATM   27  C2  UNL     1      22.165  -0.993  54.332  1.00  0.00    -0.044 C 
HETATM   28  C1  UNL     1      23.237  -0.995  55.014  1.00  0.00     0.021 C 
HETATM   29  C3  UNL     1      21.168  -2.042  54.582  1.00  0.00     0.049 C 
ENDBRANCH   1  27
TORSDOF 1
ENDMDL
