MODEL 1
REMARK VINA RESULT:      -6.9      0.000      0.000
REMARK  4 active torsions:
REMARK  status: ('A' for Active; 'I' for Inactive)
REMARK    1  A    between atoms: C3_3  and  C4_4 
REMARK    2  A    between atoms: C4_4  and  C5_5 
REMARK    3  A    between atoms: C4_4  and  N1_7 
REMARK    4  A    between atoms: C10_14  and  N4_15 
REMARK       I    between atoms: N4_15  and  C11_16 
ROOT
HETATM    1  N1  UNL     1      26.124   2.225  52.016  1.00  0.00    -0.280 N 
HETATM    2  N2  UNL     1      27.354   2.773  52.378  1.00  0.00    -0.291 N 
HETATM    3  C6  UNL     1      28.082   2.326  53.514  1.00  0.00     0.224 A 
HETATM    4  N3  UNL     1      27.660   1.375  54.301  1.00  0.00    -0.240 NA
HETATM    5  C7  UNL     1      26.408   0.764  53.997  1.00  0.00     0.086 A 
HETATM    6  C8  UNL     1      25.915  -0.255  54.806  1.00  0.00     0.036 A 
HETATM    7  C9  UNL     1      24.696  -0.881  54.543  1.00  0.00     0.032 A 
HETATM    8  C10 UNL     1      23.996  -0.427  53.422  1.00  0.00     0.037 A 
HETATM    9  C13 UNL     1      24.513   0.583  52.646  1.00  0.00     0.063 A 
HETATM   10  C14 UNL     1      25.698   1.194  52.897  1.00  0.00     0.082 A 
HETATM   11  H9  UNL     1      27.856   3.525  51.902  1.00  0.00     0.188 HD
ENDROOT
BRANCH   1  12
HETATM   12  C4  UNL     1      25.447   2.712  50.862  1.00  0.00     0.141 C 
BRANCH  12  13
HETATM   13  C3  UNL     1      24.528   3.856  51.245  1.00  0.00    -0.003 C 
HETATM   14  C2  UNL     1      23.225   3.921  51.479  1.00  0.00    -0.033 C 
HETATM   15  C1  UNL     1      22.411   5.126  51.856  1.00  0.00     0.036 C 
ENDBRANCH  12  13
BRANCH  12  16
HETATM   16  C5  UNL     1      26.376   3.146  49.756  1.00  0.00     0.116 C 
HETATM   17 BR1  UNL     1      26.176   4.991  49.247  1.00  0.00    -0.094 Br
ENDBRANCH  12  16
ENDBRANCH   1  12
BRANCH   8  18
HETATM   18  N4  UNL     1      22.763  -1.117  53.224  1.00  0.00    -0.327 N 
HETATM   19  C11 UNL     1      21.594  -0.647  53.918  1.00  0.00     0.218 C 
HETATM   20  C12 UNL     1      20.233  -1.275  53.805  1.00  0.00     0.117 C 
HETATM   21  O1  UNL     1      21.508   0.340  54.716  1.00  0.00    -0.274 OA
HETATM   22  H13 UNL     1      22.536  -1.957  52.629  1.00  0.00     0.169 HD
ENDBRANCH   8  18
TORSDOF 4
ENDMDL
MODEL 2
REMARK VINA RESULT:      -6.8      2.553      4.609
REMARK  4 active torsions:
REMARK  status: ('A' for Active; 'I' for Inactive)
REMARK    1  A    between atoms: C3_3  and  C4_4 
REMARK    2  A    between atoms: C4_4  and  C5_5 
REMARK    3  A    between atoms: C4_4  and  N1_7 
REMARK    4  A    between atoms: C10_14  and  N4_15 
REMARK       I    between atoms: N4_15  and  C11_16 
ROOT
HETATM    1  N1  UNL     1      22.465   1.205  51.810  1.00  0.00    -0.280 N 
HETATM    2  N2  UNL     1      21.082   1.379  51.766  1.00  0.00    -0.291 N 
HETATM    3  C6  UNL     1      20.212   0.811  52.735  1.00  0.00     0.224 A 
HETATM    4  N3  UNL     1      20.634   0.088  53.735  1.00  0.00    -0.240 NA
HETATM    5  C7  UNL     1      22.038  -0.136  53.850  1.00  0.00     0.086 A 
HETATM    6  C8  UNL     1      22.538  -0.900  54.900  1.00  0.00     0.036 A 
HETATM    7  C9  UNL     1      23.904  -1.141  55.050  1.00  0.00     0.032 A 
HETATM    8  C10 UNL     1      24.743  -0.574  54.088  1.00  0.00     0.037 A 
HETATM    9  C13 UNL     1      24.214   0.174  53.064  1.00  0.00     0.063 A 
HETATM   10  C14 UNL     1      22.887   0.413  52.913  1.00  0.00     0.082 A 
HETATM   11  H9  UNL     1      20.551   1.903  51.067  1.00  0.00     0.188 HD
ENDROOT
BRANCH   1  12
HETATM   12  C4  UNL     1      23.284   1.807  50.814  1.00  0.00     0.141 C 
BRANCH  12  13
HETATM   13  C3  UNL     1      22.457   2.119  49.583  1.00  0.00    -0.003 C 
HETATM   14  C2  UNL     1      22.770   2.598  48.387  1.00  0.00    -0.033 C 
HETATM   15  C1  UNL     1      21.853   2.870  47.229  1.00  0.00     0.036 C 
ENDBRANCH  12  13
BRANCH  12  16
HETATM   16  C5  UNL     1      23.995   3.051  51.286  1.00  0.00     0.116 C 
HETATM   17 BR1  UNL     1      25.816   3.187  50.681  1.00  0.00    -0.094 Br
ENDBRANCH  12  16
ENDBRANCH   1  12
BRANCH   8  18
HETATM   18  N4  UNL     1      26.121  -0.867  54.313  1.00  0.00    -0.327 N 
HETATM   19  C11 UNL     1      27.009   0.215  54.645  1.00  0.00     0.218 C 
HETATM   20  C12 UNL     1      28.480   0.054  54.907  1.00  0.00     0.117 C 
HETATM   21  O1  UNL     1      26.718   1.448  54.769  1.00  0.00    -0.274 OA
HETATM   22  H13 UNL     1      26.641  -1.783  54.279  1.00  0.00     0.169 HD
ENDBRANCH   8  18
TORSDOF 4
ENDMDL
MODEL 3
REMARK VINA RESULT:      -6.8      2.358      4.337
REMARK  4 active torsions:
REMARK  status: ('A' for Active; 'I' for Inactive)
REMARK    1  A    between atoms: C3_3  and  C4_4 
REMARK    2  A    between atoms: C4_4  and  C5_5 
REMARK    3  A    between atoms: C4_4  and  N1_7 
REMARK    4  A    between atoms: C10_14  and  N4_15 
REMARK       I    between atoms: N4_15  and  C11_16 
ROOT
HETATM    1  N1  UNL     1      26.086   2.377  51.969  1.00  0.00    -0.280 N 
HETATM    2  N2  UNL     1      26.775   3.168  51.050  1.00  0.00    -0.291 N 
HETATM    3  C6  UNL     1      26.112   3.913  50.039  1.00  0.00     0.224 A 
HETATM    4  N3  UNL     1      24.816   3.917  49.891  1.00  0.00    -0.240 NA
HETATM    5  C7  UNL     1      24.039   3.131  50.793  1.00  0.00     0.086 A 
HETATM    6  C8  UNL     1      22.654   3.102  50.677  1.00  0.00     0.036 A 
HETATM    7  C9  UNL     1      21.857   2.348  51.540  1.00  0.00     0.032 A 
HETATM    8  C10 UNL     1      22.528   1.623  52.528  1.00  0.00     0.037 A 
HETATM    9  C13 UNL     1      23.899   1.674  52.612  1.00  0.00     0.063 A 
HETATM   10  C14 UNL     1      24.679   2.406  51.776  1.00  0.00     0.082 A 
HETATM   11  H9  UNL     1      27.787   3.300  50.989  1.00  0.00     0.188 HD
ENDROOT
BRANCH   1  12
HETATM   12  C4  UNL     1      26.809   1.660  52.964  1.00  0.00     0.141 C 
BRANCH  12  13
HETATM   13  C3  UNL     1      27.078   0.245  52.490  1.00  0.00    -0.003 C 
HETATM   14  C2  UNL     1      26.568  -0.930  52.833  1.00  0.00    -0.033 C 
HETATM   15  C1  UNL     1      26.917  -2.285  52.287  1.00  0.00     0.036 C 
ENDBRANCH  12  13
BRANCH  12  16
HETATM   16  C5  UNL     1      28.103   2.322  53.366  1.00  0.00     0.116 C 
HETATM   17 BR1  UNL     1      29.301   1.172  54.336  1.00  0.00    -0.094 Br
ENDBRANCH  12  16
ENDBRANCH   1  12
BRANCH   8  18
HETATM   18  N4  UNL     1      21.645   0.881  53.366  1.00  0.00    -0.327 N 
HETATM   19  C11 UNL     1      21.861  -0.534  53.513  1.00  0.00     0.218 C 
HETATM   20  C12 UNL     1      21.011  -1.438  54.360  1.00  0.00     0.117 C 
HETATM   21  O1  UNL     1      22.771  -1.240  52.973  1.00  0.00    -0.274 OA
HETATM   22  H13 UNL     1      20.812   1.195  53.932  1.00  0.00     0.169 HD
ENDBRANCH   8  18
TORSDOF 4
ENDMDL
MODEL 4
REMARK VINA RESULT:      -6.6      2.543      4.020
REMARK  4 active torsions:
REMARK  status: ('A' for Active; 'I' for Inactive)
REMARK    1  A    between atoms: C3_3  and  C4_4 
REMARK    2  A    between atoms: C4_4  and  C5_5 
REMARK    3  A    between atoms: C4_4  and  N1_7 
REMARK    4  A    between atoms: C10_14  and  N4_15 
REMARK       I    between atoms: N4_15  and  C11_16 
ROOT
HETATM    1  N1  UNL     1      24.193   0.101  53.538  1.00  0.00    -0.280 N 
HETATM    2  N2  UNL     1      24.933  -0.495  54.559  1.00  0.00    -0.291 N 
HETATM    3  C6  UNL     1      24.339  -1.336  55.538  1.00  0.00     0.224 A 
HETATM    4  N3  UNL     1      23.065  -1.615  55.560  1.00  0.00    -0.240 NA
HETATM    5  C7  UNL     1      22.240  -1.043  54.548  1.00  0.00     0.086 A 
HETATM    6  C8  UNL     1      20.875  -1.311  54.527  1.00  0.00     0.036 A 
HETATM    7  C9  UNL     1      20.033  -0.773  53.554  1.00  0.00     0.032 A 
HETATM    8  C10 UNL     1      20.635   0.051  52.599  1.00  0.00     0.037 A 
HETATM    9  C13 UNL     1      21.987   0.294  52.651  1.00  0.00     0.063 A 
HETATM   10  C14 UNL     1      22.811  -0.226  53.595  1.00  0.00     0.082 A 
HETATM   11  H9  UNL     1      25.937  -0.403  54.724  1.00  0.00     0.188 HD
ENDROOT
BRANCH   1  12
HETATM   12  C4  UNL     1      24.848   0.928  52.582  1.00  0.00     0.141 C 
BRANCH  12  13
HETATM   13  C3  UNL     1      24.658   2.388  52.944  1.00  0.00    -0.003 C 
HETATM   14  C2  UNL     1      23.832   3.324  52.497  1.00  0.00    -0.033 C 
HETATM   15  C1  UNL     1      23.733   4.757  52.936  1.00  0.00     0.036 C 
ENDBRANCH  12  13
BRANCH  12  16
HETATM   16  C5  UNL     1      26.316   0.623  52.426  1.00  0.00     0.116 C 
HETATM   17 BR1  UNL     1      27.476   1.993  53.119  1.00  0.00    -0.094 Br
ENDBRANCH  12  16
ENDBRANCH   1  12
BRANCH   8  18
HETATM   18  N4  UNL     1      19.708   0.559  51.642  1.00  0.00    -0.327 N 
HETATM   19  C11 UNL     1      19.311   1.939  51.734  1.00  0.00     0.218 C 
HETATM   20  C12 UNL     1      18.345   2.606  50.797  1.00  0.00     0.117 C 
HETATM   21  O1  UNL     1      19.693   2.801  52.588  1.00  0.00    -0.274 OA
HETATM   22  H13 UNL     1      19.229   0.082  50.833  1.00  0.00     0.169 HD
ENDBRANCH   8  18
TORSDOF 4
ENDMDL
MODEL 5
REMARK VINA RESULT:      -6.5      3.101      4.734
REMARK  4 active torsions:
REMARK  status: ('A' for Active; 'I' for Inactive)
REMARK    1  A    between atoms: C3_3  and  C4_4 
REMARK    2  A    between atoms: C4_4  and  C5_5 
REMARK    3  A    between atoms: C4_4  and  N1_7 
REMARK    4  A    between atoms: C10_14  and  N4_15 
REMARK       I    between atoms: N4_15  and  C11_16 
ROOT
HETATM    1  N1  UNL     1      24.881  -0.084  53.948  1.00  0.00    -0.280 N 
HETATM    2  N2  UNL     1      25.357  -0.776  55.061  1.00  0.00    -0.291 N 
HETATM    3  C6  UNL     1      24.498  -1.494  55.937  1.00  0.00     0.224 A 
HETATM    4  N3  UNL     1      23.206  -1.561  55.769  1.00  0.00    -0.240 NA
HETATM    5  C7  UNL     1      22.641  -0.878  54.652  1.00  0.00     0.086 A 
HETATM    6  C8  UNL     1      21.269  -0.920  54.431  1.00  0.00     0.036 A 
HETATM    7  C9  UNL     1      20.676  -0.267  53.349  1.00  0.00     0.032 A 
HETATM    8  C10 UNL     1      21.538   0.432  52.500  1.00  0.00     0.037 A 
HETATM    9  C13 UNL     1      22.889   0.452  52.750  1.00  0.00     0.063 A 
HETATM   10  C14 UNL     1      23.471  -0.181  53.800  1.00  0.00     0.082 A 
HETATM   11  H9  UNL     1      26.328  -0.847  55.372  1.00  0.00     0.188 HD
ENDROOT
BRANCH   1  12
HETATM   12  C4  UNL     1      25.794   0.609  53.105  1.00  0.00     0.141 C 
BRANCH  12  13
HETATM   13  C3  UNL     1      26.969   1.115  53.919  1.00  0.00    -0.003 C 
HETATM   14  C2  UNL     1      28.194   1.498  53.587  1.00  0.00    -0.033 C 
HETATM   15  C1  UNL     1      29.289   1.987  54.492  1.00  0.00     0.036 C 
ENDBRANCH  12  13
BRANCH  12  16
HETATM   16  C5  UNL     1      26.290  -0.216  51.944  1.00  0.00     0.116 C 
HETATM   17 BR1  UNL     1      26.979  -1.939  52.448  1.00  0.00    -0.094 Br
ENDBRANCH  12  16
ENDBRANCH   1  12
BRANCH   8  18
HETATM   18  N4  UNL     1      20.855   1.069  51.421  1.00  0.00    -0.327 N 
HETATM   19  C11 UNL     1      20.213   2.333  51.665  1.00  0.00     0.218 C 
HETATM   20  C12 UNL     1      19.459   3.114  50.626  1.00  0.00     0.117 C 
HETATM   21  O1  UNL     1      20.171   2.984  52.757  1.00  0.00    -0.274 OA
HETATM   22  H13 UNL     1      20.725   0.767  50.419  1.00  0.00     0.169 HD
ENDBRANCH   8  18
TORSDOF 4
ENDMDL
MODEL 6
REMARK VINA RESULT:      -6.3      2.542      4.595
REMARK  4 active torsions:
REMARK  status: ('A' for Active; 'I' for Inactive)
REMARK    1  A    between atoms: C3_3  and  C4_4 
REMARK    2  A    between atoms: C4_4  and  C5_5 
REMARK    3  A    between atoms: C4_4  and  N1_7 
REMARK    4  A    between atoms: C10_14  and  N4_15 
REMARK       I    between atoms: N4_15  and  C11_16 
ROOT
HETATM    1  N1  UNL     1      22.792   3.065  52.200  1.00  0.00    -0.280 N 
HETATM    2  N2  UNL     1      21.438   3.193  51.892  1.00  0.00    -0.291 N 
HETATM    3  C6  UNL     1      20.499   2.156  52.141  1.00  0.00     0.224 A 
HETATM    4  N3  UNL     1      20.827   1.011  52.672  1.00  0.00    -0.240 NA
HETATM    5  C7  UNL     1      22.196   0.802  53.015  1.00  0.00     0.086 A 
HETATM    6  C8  UNL     1      22.596  -0.402  53.585  1.00  0.00     0.036 A 
HETATM    7  C9  UNL     1      23.924  -0.646  53.937  1.00  0.00     0.032 A 
HETATM    8  C10 UNL     1      24.831   0.386  53.685  1.00  0.00     0.037 A 
HETATM    9  C13 UNL     1      24.400   1.563  53.119  1.00  0.00     0.063 A 
HETATM   10  C14 UNL     1      23.110   1.806  52.776  1.00  0.00     0.082 A 
HETATM   11  H9  UNL     1      20.977   4.001  51.469  1.00  0.00     0.188 HD
ENDROOT
BRANCH   1  12
HETATM   12  C4  UNL     1      23.681   4.144  51.933  1.00  0.00     0.141 C 
BRANCH  12  13
HETATM   13  C3  UNL     1      24.548   3.817  50.733  1.00  0.00    -0.003 C 
HETATM   14  C2  UNL     1      25.848   3.594  50.598  1.00  0.00    -0.033 C 
HETATM   15  C1  UNL     1      26.607   3.274  49.342  1.00  0.00     0.036 C 
ENDBRANCH  12  13
BRANCH  12  16
HETATM   16  C5  UNL     1      22.982   5.463  51.717  1.00  0.00     0.116 C 
HETATM   17 BR1  UNL     1      24.131   6.858  51.058  1.00  0.00    -0.094 Br
ENDBRANCH  12  16
ENDBRANCH   1  12
BRANCH   8  18
HETATM   18  N4  UNL     1      26.164   0.059  54.072  1.00  0.00    -0.327 N 
HETATM   19  C11 UNL     1      27.071  -0.433  53.069  1.00  0.00     0.218 C 
HETATM   20  C12 UNL     1      28.499  -0.817  53.334  1.00  0.00     0.117 C 
HETATM   21  O1  UNL     1      26.833  -0.622  51.834  1.00  0.00    -0.274 OA
HETATM   22  H13 UNL     1      26.637   0.111  55.014  1.00  0.00     0.169 HD
ENDBRANCH   8  18
TORSDOF 4
ENDMDL
MODEL 7
REMARK VINA RESULT:      -6.3      3.171      5.337
REMARK  4 active torsions:
REMARK  status: ('A' for Active; 'I' for Inactive)
REMARK    1  A    between atoms: C3_3  and  C4_4 
REMARK    2  A    between atoms: C4_4  and  C5_5 
REMARK    3  A    between atoms: C4_4  and  N1_7 
REMARK    4  A    between atoms: C10_14  and  N4_15 
REMARK       I    between atoms: N4_15  and  C11_16 
ROOT
HETATM    1  N1  UNL     1      22.727   1.035  52.712  1.00  0.00    -0.280 N 
HETATM    2  N2  UNL     1      22.207   0.015  53.509  1.00  0.00    -0.291 N 
HETATM    3  C6  UNL     1      23.035  -0.852  54.272  1.00  0.00     0.224 A 
HETATM    4  N3  UNL     1      24.336  -0.764  54.286  1.00  0.00    -0.240 NA
HETATM    5  C7  UNL     1      24.945   0.255  53.495  1.00  0.00     0.086 A 
HETATM    6  C8  UNL     1      26.329   0.390  53.477  1.00  0.00     0.036 A 
HETATM    7  C9  UNL     1      26.964   1.374  52.719  1.00  0.00     0.032 A 
HETATM    8  C10 UNL     1      26.133   2.217  51.977  1.00  0.00     0.037 A 
HETATM    9  C13 UNL     1      24.769   2.053  52.017  1.00  0.00     0.063 A 
HETATM   10  C14 UNL     1      24.146   1.099  52.753  1.00  0.00     0.082 A 
HETATM   11  H9  UNL     1      21.222  -0.225  53.634  1.00  0.00     0.188 HD
ENDROOT
BRANCH   1  12
HETATM   12  C4  UNL     1      21.844   1.875  51.977  1.00  0.00     0.141 C 
BRANCH  12  13
HETATM   13  C3  UNL     1      21.824   1.458  50.520  1.00  0.00    -0.003 C 
HETATM   14  C2  UNL     1      22.049   2.120  49.393  1.00  0.00    -0.033 C 
HETATM   15  C1  UNL     1      22.000   1.595  47.986  1.00  0.00     0.036 C 
ENDBRANCH  12  13
BRANCH  12  16
HETATM   16  C5  UNL     1      20.439   1.900  52.524  1.00  0.00     0.116 C 
HETATM   17 BR1  UNL     1      19.208   0.774  51.566  1.00  0.00    -0.094 Br
ENDBRANCH  12  16
ENDBRANCH   1  12
BRANCH   8  18
HETATM   18  N4  UNL     1      26.859   3.192  51.231  1.00  0.00    -0.327 N 
HETATM   19  C11 UNL     1      26.376   3.560  49.927  1.00  0.00     0.218 C 
HETATM   20  C12 UNL     1      27.037   4.570  49.032  1.00  0.00     0.117 C 
HETATM   21  O1  UNL     1      25.347   3.113  49.325  1.00  0.00    -0.274 OA
HETATM   22  H13 UNL     1      27.736   3.726  51.472  1.00  0.00     0.169 HD
ENDBRANCH   8  18
TORSDOF 4
ENDMDL
MODEL 8
REMARK VINA RESULT:      -6.1      2.457      3.178
REMARK  4 active torsions:
REMARK  status: ('A' for Active; 'I' for Inactive)
REMARK    1  A    between atoms: C3_3  and  C4_4 
REMARK    2  A    between atoms: C4_4  and  C5_5 
REMARK    3  A    between atoms: C4_4  and  N1_7 
REMARK    4  A    between atoms: C10_14  and  N4_15 
REMARK       I    between atoms: N4_15  and  C11_16 
ROOT
HETATM    1  N1  UNL     1      23.491   1.629  52.201  1.00  0.00    -0.280 N 
HETATM    2  N2  UNL     1      24.884   1.627  52.270  1.00  0.00    -0.291 N 
HETATM    3  C6  UNL     1      25.605   0.715  53.087  1.00  0.00     0.224 A 
HETATM    4  N3  UNL     1      25.025  -0.186  53.831  1.00  0.00    -0.240 NA
HETATM    5  C7  UNL     1      23.600  -0.248  53.816  1.00  0.00     0.086 A 
HETATM    6  C8  UNL     1      22.935  -1.191  54.592  1.00  0.00     0.036 A 
HETATM    7  C9  UNL     1      21.543  -1.287  54.604  1.00  0.00     0.032 A 
HETATM    8  C10 UNL     1      20.853  -0.382  53.794  1.00  0.00     0.037 A 
HETATM    9  C13 UNL     1      21.543   0.538  53.041  1.00  0.00     0.063 A 
HETATM   10  C14 UNL     1      22.897   0.635  53.025  1.00  0.00     0.082 A 
HETATM   11  H9  UNL     1      25.525   2.250  51.773  1.00  0.00     0.188 HD
ENDROOT
BRANCH   1  12
HETATM   12  C4  UNL     1      22.828   2.564  51.357  1.00  0.00     0.141 C 
BRANCH  12  13
HETATM   13  C3  UNL     1      23.325   3.967  51.647  1.00  0.00    -0.003 C 
HETATM   14  C2  UNL     1      23.439   5.053  50.895  1.00  0.00    -0.033 C 
HETATM   15  C1  UNL     1      23.952   6.406  51.296  1.00  0.00     0.036 C 
ENDBRANCH  12  13
BRANCH  12  16
HETATM   16  C5  UNL     1      22.973   2.260  49.887  1.00  0.00     0.116 C 
HETATM   17 BR1  UNL     1      21.493   1.284  49.142  1.00  0.00    -0.094 Br
ENDBRANCH  12  16
ENDBRANCH   1  12
BRANCH   8  18
HETATM   18  N4  UNL     1      19.438  -0.545  53.863  1.00  0.00    -0.327 N 
HETATM   19  C11 UNL     1      18.675  -0.458  52.646  1.00  0.00     0.218 C 
HETATM   20  C12 UNL     1      17.182  -0.608  52.569  1.00  0.00     0.117 C 
HETATM   21  O1  UNL     1      19.111  -0.246  51.470  1.00  0.00    -0.274 OA
HETATM   22  H13 UNL     1      18.808  -0.728  54.689  1.00  0.00     0.169 HD
ENDBRANCH   8  18
TORSDOF 4
ENDMDL
MODEL 9
REMARK VINA RESULT:      -6.0      2.172      2.987
REMARK  4 active torsions:
REMARK  status: ('A' for Active; 'I' for Inactive)
REMARK    1  A    between atoms: C3_3  and  C4_4 
REMARK    2  A    between atoms: C4_4  and  C5_5 
REMARK    3  A    between atoms: C4_4  and  N1_7 
REMARK    4  A    between atoms: C10_14  and  N4_15 
REMARK       I    between atoms: N4_15  and  C11_16 
ROOT
HETATM    1  N1  UNL     1      24.130   3.227  50.550  1.00  0.00    -0.280 N 
HETATM    2  N2  UNL     1      25.041   3.917  49.750  1.00  0.00    -0.291 N 
HETATM    3  C6  UNL     1      26.433   3.632  49.761  1.00  0.00     0.224 A 
HETATM    4  N3  UNL     1      26.965   2.710  50.514  1.00  0.00    -0.240 NA
HETATM    5  C7  UNL     1      26.099   1.959  51.362  1.00  0.00     0.086 A 
HETATM    6  C8  UNL     1      26.618   0.963  52.183  1.00  0.00     0.036 A 
HETATM    7  C9  UNL     1      25.805   0.204  53.025  1.00  0.00     0.032 A 
HETATM    8  C10 UNL     1      24.440   0.498  53.000  1.00  0.00     0.037 A 
HETATM    9  C13 UNL     1      23.962   1.490  52.176  1.00  0.00     0.063 A 
HETATM   10  C14 UNL     1      24.747   2.231  51.355  1.00  0.00     0.082 A 
HETATM   11  H9  UNL     1      24.834   4.675  49.096  1.00  0.00     0.188 HD
ENDROOT
BRANCH   1  12
HETATM   12  C4  UNL     1      22.747   3.554  50.487  1.00  0.00     0.141 C 
BRANCH  12  13
HETATM   13  C3  UNL     1      22.557   5.044  50.692  1.00  0.00    -0.003 C 
HETATM   14  C2  UNL     1      21.507   5.843  50.561  1.00  0.00    -0.033 C 
HETATM   15  C1  UNL     1      21.437   7.325  50.795  1.00  0.00     0.036 C 
ENDBRANCH  12  13
BRANCH  12  16
HETATM   16  C5  UNL     1      22.081   3.122  49.205  1.00  0.00     0.116 C 
HETATM   17 BR1  UNL     1      21.505   1.287  49.203  1.00  0.00    -0.094 Br
ENDBRANCH  12  16
ENDBRANCH   1  12
BRANCH   8  18
HETATM   18  N4  UNL     1      23.681  -0.320  53.887  1.00  0.00    -0.327 N 
HETATM   19  C11 UNL     1      22.391  -0.789  53.456  1.00  0.00     0.218 C 
HETATM   20  C12 UNL     1      21.484  -1.656  54.283  1.00  0.00     0.117 C 
HETATM   21  O1  UNL     1      21.814  -0.563  52.344  1.00  0.00    -0.274 OA
HETATM   22  H13 UNL     1      23.901  -0.665  54.859  1.00  0.00     0.169 HD
ENDBRANCH   8  18
TORSDOF 4
ENDMDL
