MODEL 1
REMARK VINA RESULT:      -6.9      0.000      0.000
REMARK  8 active torsions:
REMARK  status: ('A' for Active; 'I' for Inactive)
REMARK    1  A    between atoms: C5_7  and  C6_8 
REMARK    2  A    between atoms: C7_9  and  N3_10 
REMARK       I    between atoms: N3_10  and  C8_11 
REMARK    3  A    between atoms: C8_11  and  C9_13 
REMARK    4  A    between atoms: C10_14  and  C11_15 
REMARK       I    between atoms: C11_15  and  N4_17 
REMARK    5  A    between atoms: N4_17  and  C12_18 
REMARK    6  A    between atoms: C12_18  and  C13_19 
REMARK    7  A    between atoms: C13_19  and  C14_20 
REMARK    8  A    between atoms: C14_20  and  N5_21 
ROOT
HETATM    1  N3  UNL     1      22.609  -0.706  53.499  1.00  0.00    -0.334 N 
HETATM    2  C8  UNL     1      21.649  -1.310  54.397  1.00  0.00     0.245 C 
HETATM    3  O1  UNL     1      22.331  -1.652  55.405  1.00  0.00    -0.268 OA
HETATM    4  H8  UNL     1      22.233  -0.341  52.567  1.00  0.00     0.168 HD
ENDROOT
BRANCH   2   5
HETATM    5  C9  UNL     1      20.211  -1.450  54.110  1.00  0.00     0.080 C 
HETATM    6  C10 UNL     1      19.394  -0.768  53.330  1.00  0.00     0.079 C 
BRANCH   6   7
HETATM    7  C11 UNL     1      19.779   0.373  52.513  1.00  0.00     0.241 C 
HETATM    8  O2  UNL     1      20.236   1.469  52.922  1.00  0.00    -0.269 OA
HETATM    9  N4  UNL     1      19.658   0.325  51.103  1.00  0.00    -0.358 N 
HETATM   10  H11 UNL     1      19.279  -0.576  50.681  1.00  0.00     0.162 HD
BRANCH   9  11
HETATM   11  C12 UNL     1      19.994   1.369  50.161  1.00  0.00     0.124 C 
BRANCH  11  12
HETATM   12  C13 UNL     1      21.264   1.026  49.448  1.00  0.00     0.050 C 
BRANCH  12  13
HETATM   13  C14 UNL     1      22.450   1.627  50.154  1.00  0.00     0.273 C 
BRANCH  13  14
HETATM   14  N5  UNL     1      22.389   3.056  50.211  1.00  0.00     0.080 N 
HETATM   15  C15 UNL     1      22.822   3.485  51.531  1.00  0.00     0.309 C 
HETATM   16  C16 UNL     1      23.202   3.715  49.235  1.00  0.00     0.309 C 
ENDBRANCH  13  14
ENDBRANCH  12  13
ENDBRANCH  11  12
ENDBRANCH   9  11
ENDBRANCH   6   7
ENDBRANCH   2   5
BRANCH   1  17
HETATM   17  C7  UNL     1      23.939  -0.686  54.000  1.00  0.00     0.092 C 
HETATM   18  C6  UNL     1      24.974  -0.354  53.246  1.00  0.00     0.032 C 
BRANCH  18  19
HETATM   19  C5  UNL     1      26.370  -0.302  53.662  1.00  0.00     0.007 A 
HETATM   20  C2  UNL     1      27.319  -1.189  53.199  1.00  0.00     0.043 A 
HETATM   21  C1  UNL     1      26.874  -2.236  52.231  1.00  0.00     0.071 C 
HETATM   22  N1  UNL     1      28.595  -1.114  53.601  1.00  0.00    -0.246 NA
HETATM   23  C3  UNL     1      29.007  -0.176  54.471  1.00  0.00     0.232 A 
HETATM   24  N2  UNL     1      28.096   0.693  54.931  1.00  0.00    -0.253 NA
HETATM   25  C4  UNL     1      26.800   0.656  54.555  1.00  0.00     0.131 A 
ENDBRANCH  18  19
ENDBRANCH   1  17
TORSDOF 8
ENDMDL
MODEL 2
REMARK VINA RESULT:      -6.7      2.037      4.153
REMARK  8 active torsions:
REMARK  status: ('A' for Active; 'I' for Inactive)
REMARK    1  A    between atoms: C5_7  and  C6_8 
REMARK    2  A    between atoms: C7_9  and  N3_10 
REMARK       I    between atoms: N3_10  and  C8_11 
REMARK    3  A    between atoms: C8_11  and  C9_13 
REMARK    4  A    between atoms: C10_14  and  C11_15 
REMARK       I    between atoms: C11_15  and  N4_17 
REMARK    5  A    between atoms: N4_17  and  C12_18 
REMARK    6  A    between atoms: C12_18  and  C13_19 
REMARK    7  A    between atoms: C13_19  and  C14_20 
REMARK    8  A    between atoms: C14_20  and  N5_21 
ROOT
HETATM    1  N3  UNL     1      24.858   3.277  53.521  1.00  0.00    -0.334 N 
HETATM    2  C8  UNL     1      23.966   3.461  52.398  1.00  0.00     0.245 C 
HETATM    3  O1  UNL     1      24.120   2.421  51.697  1.00  0.00    -0.268 OA
HETATM    4  H8  UNL     1      24.883   4.058  54.251  1.00  0.00     0.168 HD
ENDROOT
BRANCH   2   5
HETATM    5  C9  UNL     1      23.103   4.639  52.202  1.00  0.00     0.080 C 
HETATM    6  C10 UNL     1      21.805   4.763  51.996  1.00  0.00     0.079 C 
BRANCH   6   7
HETATM    7  C11 UNL     1      20.866   3.655  51.909  1.00  0.00     0.241 C 
HETATM    8  O2  UNL     1      19.808   3.515  52.571  1.00  0.00    -0.269 OA
HETATM    9  N4  UNL     1      21.094   2.584  51.011  1.00  0.00    -0.358 N 
HETATM   10  H11 UNL     1      21.973   2.634  50.413  1.00  0.00     0.162 HD
BRANCH   9  11
HETATM   11  C12 UNL     1      20.261   1.418  50.812  1.00  0.00     0.124 C 
BRANCH  11  12
HETATM   12  C13 UNL     1      20.994   0.186  51.243  1.00  0.00     0.050 C 
BRANCH  12  13
HETATM   13  C14 UNL     1      21.130   0.144  52.742  1.00  0.00     0.273 C 
BRANCH  13  14
HETATM   14  N5  UNL     1      21.833  -1.017  53.197  1.00  0.00     0.080 N 
HETATM   15  C15 UNL     1      23.207  -0.642  53.484  1.00  0.00     0.309 C 
HETATM   16  C16 UNL     1      21.276  -1.614  54.371  1.00  0.00     0.309 C 
ENDBRANCH  13  14
ENDBRANCH  12  13
ENDBRANCH  11  12
ENDBRANCH   9  11
ENDBRANCH   6   7
ENDBRANCH   2   5
BRANCH   1  17
HETATM   17  C7  UNL     1      25.587   2.057  53.488  1.00  0.00     0.092 C 
HETATM   18  C6  UNL     1      26.906   2.017  53.582  1.00  0.00     0.032 C 
BRANCH  18  19
HETATM   19  C5  UNL     1      27.742   0.824  53.560  1.00  0.00     0.007 A 
HETATM   20  C2  UNL     1      29.071   0.838  53.929  1.00  0.00     0.043 A 
HETATM   21  C1  UNL     1      29.654   2.142  54.365  1.00  0.00     0.071 C 
HETATM   22  N1  UNL     1      29.814  -0.277  53.896  1.00  0.00    -0.246 NA
HETATM   23  C3  UNL     1      29.300  -1.456  53.505  1.00  0.00     0.232 A 
HETATM   24  N2  UNL     1      28.009  -1.487  53.143  1.00  0.00    -0.253 NA
HETATM   25  C4  UNL     1      27.223  -0.389  53.159  1.00  0.00     0.131 A 
ENDBRANCH  18  19
ENDBRANCH   1  17
TORSDOF 8
ENDMDL
MODEL 3
REMARK VINA RESULT:      -6.6      2.151      4.383
REMARK  8 active torsions:
REMARK  status: ('A' for Active; 'I' for Inactive)
REMARK    1  A    between atoms: C5_7  and  C6_8 
REMARK    2  A    between atoms: C7_9  and  N3_10 
REMARK       I    between atoms: N3_10  and  C8_11 
REMARK    3  A    between atoms: C8_11  and  C9_13 
REMARK    4  A    between atoms: C10_14  and  C11_15 
REMARK       I    between atoms: C11_15  and  N4_17 
REMARK    5  A    between atoms: N4_17  and  C12_18 
REMARK    6  A    between atoms: C12_18  and  C13_19 
REMARK    7  A    between atoms: C13_19  and  C14_20 
REMARK    8  A    between atoms: C14_20  and  N5_21 
ROOT
HETATM    1  N3  UNL     1      25.712   3.050  49.948  1.00  0.00    -0.334 N 
HETATM    2  C8  UNL     1      24.300   3.332  50.084  1.00  0.00     0.245 C 
HETATM    3  O1  UNL     1      24.068   3.202  51.320  1.00  0.00    -0.268 OA
HETATM    4  H8  UNL     1      26.123   3.106  48.963  1.00  0.00     0.168 HD
ENDROOT
BRANCH   2   5
HETATM    5  C9  UNL     1      23.409   3.686  48.966  1.00  0.00     0.080 C 
HETATM    6  C10 UNL     1      22.355   3.084  48.448  1.00  0.00     0.079 C 
BRANCH   6   7
HETATM    7  C11 UNL     1      21.800   1.824  48.919  1.00  0.00     0.241 C 
HETATM    8  O2  UNL     1      21.653   0.771  48.250  1.00  0.00    -0.269 OA
HETATM    9  N4  UNL     1      21.356   1.685  50.257  1.00  0.00    -0.358 N 
HETATM   10  H11 UNL     1      21.451   2.538  50.888  1.00  0.00     0.162 HD
BRANCH   9  11
HETATM   11  C12 UNL     1      20.783   0.508  50.871  1.00  0.00     0.124 C 
BRANCH  11  12
HETATM   12  C13 UNL     1      20.202   0.858  52.205  1.00  0.00     0.050 C 
BRANCH  12  13
HETATM   13  C14 UNL     1      21.268   0.846  53.269  1.00  0.00     0.273 C 
BRANCH  13  14
HETATM   14  N5  UNL     1      22.166  -0.261  53.133  1.00  0.00     0.080 N 
HETATM   15  C15 UNL     1      23.523   0.219  53.334  1.00  0.00     0.309 C 
HETATM   16  C16 UNL     1      21.924  -1.325  54.058  1.00  0.00     0.309 C 
ENDBRANCH  13  14
ENDBRANCH  12  13
ENDBRANCH  11  12
ENDBRANCH   9  11
ENDBRANCH   6   7
ENDBRANCH   2   5
BRANCH   1  17
HETATM   17  C7  UNL     1      26.361   2.733  51.173  1.00  0.00     0.092 C 
HETATM   18  C6  UNL     1      26.770   1.509  51.462  1.00  0.00     0.032 C 
BRANCH  18  19
HETATM   19  C5  UNL     1      27.441   1.083  52.682  1.00  0.00     0.007 A 
HETATM   20  C2  UNL     1      27.441  -0.227  53.115  1.00  0.00     0.043 A 
HETATM   21  C1  UNL     1      26.717  -1.231  52.279  1.00  0.00     0.071 C 
HETATM   22  N1  UNL     1      28.068  -0.587  54.243  1.00  0.00    -0.246 NA
HETATM   23  C3  UNL     1      28.723   0.309  55.003  1.00  0.00     0.232 A 
HETATM   24  N2  UNL     1      28.732   1.586  54.596  1.00  0.00    -0.253 NA
HETATM   25  C4  UNL     1      28.114   1.995  53.467  1.00  0.00     0.131 A 
ENDBRANCH  18  19
ENDBRANCH   1  17
TORSDOF 8
ENDMDL
MODEL 4
REMARK VINA RESULT:      -6.5      6.480      9.105
REMARK  8 active torsions:
REMARK  status: ('A' for Active; 'I' for Inactive)
REMARK    1  A    between atoms: C5_7  and  C6_8 
REMARK    2  A    between atoms: C7_9  and  N3_10 
REMARK       I    between atoms: N3_10  and  C8_11 
REMARK    3  A    between atoms: C8_11  and  C9_13 
REMARK    4  A    between atoms: C10_14  and  C11_15 
REMARK       I    between atoms: C11_15  and  N4_17 
REMARK    5  A    between atoms: N4_17  and  C12_18 
REMARK    6  A    between atoms: C12_18  and  C13_19 
REMARK    7  A    between atoms: C13_19  and  C14_20 
REMARK    8  A    between atoms: C14_20  and  N5_21 
ROOT
HETATM    1  N3  UNL     1      27.109   4.070  50.165  1.00  0.00    -0.334 N 
HETATM    2  C8  UNL     1      26.185   4.843  49.364  1.00  0.00     0.245 C 
HETATM    3  O1  UNL     1      25.088   4.223  49.457  1.00  0.00    -0.268 OA
HETATM    4  H8  UNL     1      28.114   4.427  50.222  1.00  0.00     0.168 HD
ENDROOT
BRANCH   2   5
HETATM    5  C9  UNL     1      26.541   6.073  48.635  1.00  0.00     0.080 C 
HETATM    6  C10 UNL     1      27.699   6.550  48.216  1.00  0.00     0.079 C 
BRANCH   6   7
HETATM    7  C11 UNL     1      28.987   5.899  48.404  1.00  0.00     0.241 C 
HETATM    8  O2  UNL     1      29.302   4.740  48.039  1.00  0.00    -0.269 OA
HETATM    9  N4  UNL     1      30.048   6.573  49.057  1.00  0.00    -0.358 N 
HETATM   10  H11 UNL     1      29.855   7.565  49.394  1.00  0.00     0.162 HD
BRANCH   9  11
HETATM   11  C12 UNL     1      31.375   6.064  49.321  1.00  0.00     0.124 C 
BRANCH  11  12
HETATM   12  C13 UNL     1      32.401   7.078  48.920  1.00  0.00     0.050 C 
BRANCH  12  13
HETATM   13  C14 UNL     1      33.422   6.467  47.997  1.00  0.00     0.273 C 
BRANCH  13  14
HETATM   14  N5  UNL     1      34.174   5.424  48.625  1.00  0.00     0.080 N 
HETATM   15  C15 UNL     1      34.332   4.333  47.678  1.00  0.00     0.309 C 
HETATM   16  C16 UNL     1      35.473   5.827  49.068  1.00  0.00     0.309 C 
ENDBRANCH  13  14
ENDBRANCH  12  13
ENDBRANCH  11  12
ENDBRANCH   9  11
ENDBRANCH   6   7
ENDBRANCH   2   5
BRANCH   1  17
HETATM   17  C7  UNL     1      26.529   2.922  50.771  1.00  0.00     0.092 C 
HETATM   18  C6  UNL     1      26.965   2.431  51.919  1.00  0.00     0.032 C 
BRANCH  18  19
HETATM   19  C5  UNL     1      26.442   1.266  52.621  1.00  0.00     0.007 A 
HETATM   20  C2  UNL     1      27.236   0.437  53.385  1.00  0.00     0.043 A 
HETATM   21  C1  UNL     1      28.689   0.769  53.483  1.00  0.00     0.071 C 
HETATM   22  N1  UNL     1      26.724  -0.628  54.018  1.00  0.00    -0.246 NA
HETATM   23  C3  UNL     1      25.417  -0.935  53.937  1.00  0.00     0.232 A 
HETATM   24  N2  UNL     1      24.632  -0.140  53.197  1.00  0.00    -0.253 NA
HETATM   25  C4  UNL     1      25.104   0.943  52.542  1.00  0.00     0.131 A 
ENDBRANCH  18  19
ENDBRANCH   1  17
TORSDOF 8
ENDMDL
MODEL 5
REMARK VINA RESULT:      -6.5      2.207      3.161
REMARK  8 active torsions:
REMARK  status: ('A' for Active; 'I' for Inactive)
REMARK    1  A    between atoms: C5_7  and  C6_8 
REMARK    2  A    between atoms: C7_9  and  N3_10 
REMARK       I    between atoms: N3_10  and  C8_11 
REMARK    3  A    between atoms: C8_11  and  C9_13 
REMARK    4  A    between atoms: C10_14  and  C11_15 
REMARK       I    between atoms: C11_15  and  N4_17 
REMARK    5  A    between atoms: N4_17  and  C12_18 
REMARK    6  A    between atoms: C12_18  and  C13_19 
REMARK    7  A    between atoms: C13_19  and  C14_20 
REMARK    8  A    between atoms: C14_20  and  N5_21 
ROOT
HETATM    1  N3  UNL     1      23.309  -0.274  52.970  1.00  0.00    -0.334 N 
HETATM    2  C8  UNL     1      22.387   0.685  52.403  1.00  0.00     0.245 C 
HETATM    3  O1  UNL     1      22.941   1.805  52.587  1.00  0.00    -0.268 OA
HETATM    4  H8  UNL     1      23.027  -1.304  52.919  1.00  0.00     0.168 HD
ENDROOT
BRANCH   2   5
HETATM    5  C9  UNL     1      21.104   0.334  51.768  1.00  0.00     0.080 C 
HETATM    6  C10 UNL     1      20.627   0.550  50.556  1.00  0.00     0.079 C 
BRANCH   6   7
HETATM    7  C11 UNL     1      21.336   1.246  49.493  1.00  0.00     0.241 C 
HETATM    8  O2  UNL     1      21.587   0.805  48.345  1.00  0.00    -0.269 OA
HETATM    9  N4  UNL     1      21.825   2.560  49.692  1.00  0.00    -0.358 N 
HETATM   10  H11 UNL     1      21.647   3.003  50.644  1.00  0.00     0.162 HD
BRANCH   9  11
HETATM   11  C12 UNL     1      22.545   3.378  48.741  1.00  0.00     0.124 C 
BRANCH  11  12
HETATM   12  C13 UNL     1      23.956   3.576  49.202  1.00  0.00     0.050 C 
BRANCH  12  13
HETATM   13  C14 UNL     1      23.997   4.435  50.438  1.00  0.00     0.273 C 
BRANCH  13  14
HETATM   14  N5  UNL     1      25.057   5.396  50.402  1.00  0.00     0.080 N 
HETATM   15  C15 UNL     1      25.832   5.185  49.190  1.00  0.00     0.309 C 
HETATM   16  C16 UNL     1      24.613   6.756  50.419  1.00  0.00     0.309 C 
ENDBRANCH  13  14
ENDBRANCH  12  13
ENDBRANCH  11  12
ENDBRANCH   9  11
ENDBRANCH   6   7
ENDBRANCH   2   5
BRANCH   1  17
HETATM   17  C7  UNL     1      24.481   0.308  53.526  1.00  0.00     0.092 C 
HETATM   18  C6  UNL     1      25.656   0.247  52.921  1.00  0.00     0.032 C 
BRANCH  18  19
HETATM   19  C5  UNL     1      26.911   0.809  53.404  1.00  0.00     0.007 A 
HETATM   20  C2  UNL     1      27.552   1.854  52.773  1.00  0.00     0.043 A 
HETATM   21  C1  UNL     1      26.912   2.418  51.546  1.00  0.00     0.071 C 
HETATM   22  N1  UNL     1      28.706   2.348  53.242  1.00  0.00    -0.246 NA
HETATM   23  C3  UNL     1      29.290   1.848  54.346  1.00  0.00     0.232 A 
HETATM   24  N2  UNL     1      28.680   0.832  54.970  1.00  0.00    -0.253 NA
HETATM   25  C4  UNL     1      27.517   0.302  54.534  1.00  0.00     0.131 A 
ENDBRANCH  18  19
ENDBRANCH   1  17
TORSDOF 8
ENDMDL
MODEL 6
REMARK VINA RESULT:      -6.3      6.197      8.702
REMARK  8 active torsions:
REMARK  status: ('A' for Active; 'I' for Inactive)
REMARK    1  A    between atoms: C5_7  and  C6_8 
REMARK    2  A    between atoms: C7_9  and  N3_10 
REMARK       I    between atoms: N3_10  and  C8_11 
REMARK    3  A    between atoms: C8_11  and  C9_13 
REMARK    4  A    between atoms: C10_14  and  C11_15 
REMARK       I    between atoms: C11_15  and  N4_17 
REMARK    5  A    between atoms: N4_17  and  C12_18 
REMARK    6  A    between atoms: C12_18  and  C13_19 
REMARK    7  A    between atoms: C13_19  and  C14_20 
REMARK    8  A    between atoms: C14_20  and  N5_21 
ROOT
HETATM    1  N3  UNL     1      26.674   3.433  50.803  1.00  0.00    -0.334 N 
HETATM    2  C8  UNL     1      26.494   4.079  49.521  1.00  0.00     0.245 C 
HETATM    3  O1  UNL     1      25.247   4.041  49.320  1.00  0.00    -0.268 OA
HETATM    4  H8  UNL     1      27.676   3.358  51.168  1.00  0.00     0.168 HD
ENDROOT
BRANCH   2   5
HETATM    5  C9  UNL     1      27.589   4.629  48.703  1.00  0.00     0.080 C 
HETATM    6  C10 UNL     1      27.907   5.866  48.366  1.00  0.00     0.079 C 
BRANCH   6   7
HETATM    7  C11 UNL     1      27.172   7.055  48.769  1.00  0.00     0.241 C 
HETATM    8  O2  UNL     1      25.979   7.330  48.492  1.00  0.00    -0.269 OA
HETATM    9  N4  UNL     1      27.794   8.055  49.557  1.00  0.00    -0.358 N 
HETATM   10  H11 UNL     1      28.809   7.890  49.834  1.00  0.00     0.162 HD
BRANCH   9  11
HETATM   11  C12 UNL     1      27.203   9.286  50.032  1.00  0.00     0.124 C 
BRANCH  11  12
HETATM   12  C13 UNL     1      27.590  10.420  49.134  1.00  0.00     0.050 C 
BRANCH  12  13
HETATM   13  C14 UNL     1      29.081  10.449  48.927  1.00  0.00     0.273 C 
BRANCH  13  14
HETATM   14  N5  UNL     1      29.542  11.715  48.441  1.00  0.00     0.080 N 
HETATM   15  C15 UNL     1      28.726  12.762  49.033  1.00  0.00     0.309 C 
HETATM   16  C16 UNL     1      30.914  11.990  48.740  1.00  0.00     0.309 C 
ENDBRANCH  13  14
ENDBRANCH  12  13
ENDBRANCH  11  12
ENDBRANCH   9  11
ENDBRANCH   6   7
ENDBRANCH   2   5
BRANCH   1  17
HETATM   17  C7  UNL     1      25.465   2.984  51.401  1.00  0.00     0.092 C 
HETATM   18  C6  UNL     1      25.314   1.751  51.854  1.00  0.00     0.032 C 
BRANCH  18  19
HETATM   19  C5  UNL     1      24.122   1.195  52.480  1.00  0.00     0.007 A 
HETATM   20  C2  UNL     1      24.153   0.067  53.273  1.00  0.00     0.043 A 
HETATM   21  C1  UNL     1      25.476  -0.594  53.483  1.00  0.00     0.071 C 
HETATM   22  N1  UNL     1      23.038  -0.419  53.835  1.00  0.00    -0.246 NA
HETATM   23  C3  UNL     1      21.842   0.168  53.652  1.00  0.00     0.232 A 
HETATM   24  N2  UNL     1      21.795   1.265  52.884  1.00  0.00    -0.253 NA
HETATM   25  C4  UNL     1      22.892   1.790  52.297  1.00  0.00     0.131 A 
ENDBRANCH  18  19
ENDBRANCH   1  17
TORSDOF 8
ENDMDL
MODEL 7
REMARK VINA RESULT:      -6.3      3.700      6.319
REMARK  8 active torsions:
REMARK  status: ('A' for Active; 'I' for Inactive)
REMARK    1  A    between atoms: C5_7  and  C6_8 
REMARK    2  A    between atoms: C7_9  and  N3_10 
REMARK       I    between atoms: N3_10  and  C8_11 
REMARK    3  A    between atoms: C8_11  and  C9_13 
REMARK    4  A    between atoms: C10_14  and  C11_15 
REMARK       I    between atoms: C11_15  and  N4_17 
REMARK    5  A    between atoms: N4_17  and  C12_18 
REMARK    6  A    between atoms: C12_18  and  C13_19 
REMARK    7  A    between atoms: C13_19  and  C14_20 
REMARK    8  A    between atoms: C14_20  and  N5_21 
ROOT
HETATM    1  N3  UNL     1      27.025   3.427  50.885  1.00  0.00    -0.334 N 
HETATM    2  C8  UNL     1      26.592   3.824  49.563  1.00  0.00     0.245 C 
HETATM    3  O1  UNL     1      25.548   3.142  49.354  1.00  0.00    -0.268 OA
HETATM    4  H8  UNL     1      27.909   3.894  51.263  1.00  0.00     0.168 HD
ENDROOT
BRANCH   2   5
HETATM    5  C9  UNL     1      27.283   4.815  48.722  1.00  0.00     0.080 C 
HETATM    6  C10 UNL     1      27.140   6.121  48.592  1.00  0.00     0.079 C 
BRANCH   6   7
HETATM    7  C11 UNL     1      26.177   6.931  49.324  1.00  0.00     0.241 C 
HETATM    8  O2  UNL     1      26.434   7.806  50.187  1.00  0.00    -0.269 OA
HETATM    9  N4  UNL     1      24.787   6.779  49.098  1.00  0.00    -0.358 N 
HETATM   10  H11 UNL     1      24.492   6.055  48.375  1.00  0.00     0.162 HD
BRANCH   9  11
HETATM   11  C12 UNL     1      23.713   7.502  49.742  1.00  0.00     0.124 C 
BRANCH  11  12
HETATM   12  C13 UNL     1      23.265   6.768  50.967  1.00  0.00     0.050 C 
BRANCH  12  13
HETATM   13  C14 UNL     1      22.547   5.498  50.594  1.00  0.00     0.273 C 
BRANCH  13  14
HETATM   14  N5  UNL     1      23.112   4.343  51.223  1.00  0.00     0.080 N 
HETATM   15  C15 UNL     1      23.361   4.654  52.621  1.00  0.00     0.309 C 
HETATM   16  C16 UNL     1      22.282   3.179  51.162  1.00  0.00     0.309 C 
ENDBRANCH  13  14
ENDBRANCH  12  13
ENDBRANCH  11  12
ENDBRANCH   9  11
ENDBRANCH   6   7
ENDBRANCH   2   5
BRANCH   1  17
HETATM   17  C7  UNL     1      26.191   2.453  51.500  1.00  0.00     0.092 C 
HETATM   18  C6  UNL     1      26.486   1.903  52.666  1.00  0.00     0.032 C 
BRANCH  18  19
HETATM   19  C5  UNL     1      25.703   0.902  53.378  1.00  0.00     0.007 A 
HETATM   20  C2  UNL     1      26.240   0.090  54.354  1.00  0.00     0.043 A 
HETATM   21  C1  UNL     1      27.688   0.264  54.679  1.00  0.00     0.071 C 
HETATM   22  N1  UNL     1      25.492  -0.822  54.990  1.00  0.00    -0.246 NA
HETATM   23  C3  UNL     1      24.188  -0.987  54.706  1.00  0.00     0.232 A 
HETATM   24  N2  UNL     1      23.651  -0.206  53.759  1.00  0.00    -0.253 NA
HETATM   25  C4  UNL     1      24.366   0.725  53.092  1.00  0.00     0.131 A 
ENDBRANCH  18  19
ENDBRANCH   1  17
TORSDOF 8
ENDMDL
MODEL 8
REMARK VINA RESULT:      -6.2      2.817      4.976
REMARK  8 active torsions:
REMARK  status: ('A' for Active; 'I' for Inactive)
REMARK    1  A    between atoms: C5_7  and  C6_8 
REMARK    2  A    between atoms: C7_9  and  N3_10 
REMARK       I    between atoms: N3_10  and  C8_11 
REMARK    3  A    between atoms: C8_11  and  C9_13 
REMARK    4  A    between atoms: C10_14  and  C11_15 
REMARK       I    between atoms: C11_15  and  N4_17 
REMARK    5  A    between atoms: N4_17  and  C12_18 
REMARK    6  A    between atoms: C12_18  and  C13_19 
REMARK    7  A    between atoms: C13_19  and  C14_20 
REMARK    8  A    between atoms: C14_20  and  N5_21 
ROOT
HETATM    1  N3  UNL     1      25.771   3.534  51.094  1.00  0.00    -0.334 N 
HETATM    2  C8  UNL     1      26.069   4.247  49.872  1.00  0.00     0.245 C 
HETATM    3  O1  UNL     1      27.141   3.724  49.454  1.00  0.00    -0.268 OA
HETATM    4  H8  UNL     1      24.886   3.824  51.620  1.00  0.00     0.168 HD
ENDROOT
BRANCH   2   5
HETATM    5  C9  UNL     1      25.241   5.331  49.316  1.00  0.00     0.080 C 
HETATM    6  C10 UNL     1      23.935   5.465  49.176  1.00  0.00     0.079 C 
BRANCH   6   7
HETATM    7  C11 UNL     1      22.947   4.476  49.578  1.00  0.00     0.241 C 
HETATM    8  O2  UNL     1      22.953   3.252  49.297  1.00  0.00    -0.269 OA
HETATM    9  N4  UNL     1      21.833   4.848  50.371  1.00  0.00    -0.358 N 
HETATM   10  H11 UNL     1      21.762   5.873  50.652  1.00  0.00     0.162 HD
BRANCH   9  11
HETATM   11  C12 UNL     1      20.772   3.988  50.846  1.00  0.00     0.124 C 
BRANCH  11  12
HETATM   12  C13 UNL     1      21.172   3.351  52.140  1.00  0.00     0.050 C 
BRANCH  12  13
HETATM   13  C14 UNL     1      20.898   1.870  52.111  1.00  0.00     0.273 C 
BRANCH  13  14
HETATM   14  N5  UNL     1      22.099   1.091  52.074  1.00  0.00     0.080 N 
HETATM   15  C15 UNL     1      23.133   1.802  52.807  1.00  0.00     0.309 C 
HETATM   16  C16 UNL     1      21.965  -0.216  52.640  1.00  0.00     0.309 C 
ENDBRANCH  13  14
ENDBRANCH  12  13
ENDBRANCH  11  12
ENDBRANCH   9  11
ENDBRANCH   6   7
ENDBRANCH   2   5
BRANCH   1  17
HETATM   17  C7  UNL     1      26.720   2.527  51.425  1.00  0.00     0.092 C 
HETATM   18  C6  UNL     1      26.784   1.982  52.628  1.00  0.00     0.032 C 
BRANCH  18  19
HETATM   19  C5  UNL     1      27.714   0.949  53.065  1.00  0.00     0.007 A 
HETATM   20  C2  UNL     1      27.361  -0.381  53.159  1.00  0.00     0.043 A 
HETATM   21  C1  UNL     1      25.961  -0.752  52.793  1.00  0.00     0.071 C 
HETATM   22  N1  UNL     1      28.240  -1.307  53.566  1.00  0.00    -0.246 NA
HETATM   23  C3  UNL     1      29.503  -0.983  53.898  1.00  0.00     0.232 A 
HETATM   24  N2  UNL     1      29.861   0.305  53.812  1.00  0.00    -0.253 NA
HETATM   25  C4  UNL     1      29.009   1.272  53.408  1.00  0.00     0.131 A 
ENDBRANCH  18  19
ENDBRANCH   1  17
TORSDOF 8
ENDMDL
MODEL 9
REMARK VINA RESULT:      -6.1      6.587      8.872
REMARK  8 active torsions:
REMARK  status: ('A' for Active; 'I' for Inactive)
REMARK    1  A    between atoms: C5_7  and  C6_8 
REMARK    2  A    between atoms: C7_9  and  N3_10 
REMARK       I    between atoms: N3_10  and  C8_11 
REMARK    3  A    between atoms: C8_11  and  C9_13 
REMARK    4  A    between atoms: C10_14  and  C11_15 
REMARK       I    between atoms: C11_15  and  N4_17 
REMARK    5  A    between atoms: N4_17  and  C12_18 
REMARK    6  A    between atoms: C12_18  and  C13_19 
REMARK    7  A    between atoms: C13_19  and  C14_20 
REMARK    8  A    between atoms: C14_20  and  N5_21 
ROOT
HETATM    1  N3  UNL     1      26.274   3.859  49.693  1.00  0.00    -0.334 N 
HETATM    2  C8  UNL     1      25.682   5.179  49.685  1.00  0.00     0.245 C 
HETATM    3  O1  UNL     1      25.016   5.234  50.757  1.00  0.00    -0.268 OA
HETATM    4  H8  UNL     1      26.890   3.601  48.858  1.00  0.00     0.168 HD
ENDROOT
BRANCH   2   5
HETATM    5  C9  UNL     1      25.874   6.172  48.614  1.00  0.00     0.080 C 
HETATM    6  C10 UNL     1      26.958   6.636  48.020  1.00  0.00     0.079 C 
BRANCH   6   7
HETATM    7  C11 UNL     1      28.319   6.226  48.331  1.00  0.00     0.241 C 
HETATM    8  O2  UNL     1      28.740   5.048  48.446  1.00  0.00    -0.269 OA
HETATM    9  N4  UNL     1      29.335   7.191  48.538  1.00  0.00    -0.358 N 
HETATM   10  H11 UNL     1      29.053   8.214  48.454  1.00  0.00     0.162 HD
BRANCH   9  11
HETATM   11  C12 UNL     1      30.724   6.944  48.854  1.00  0.00     0.124 C 
BRANCH  11  12
HETATM   12  C13 UNL     1      31.367   8.201  49.349  1.00  0.00     0.050 C 
BRANCH  12  13
HETATM   13  C14 UNL     1      31.966   8.979  48.207  1.00  0.00     0.273 C 
BRANCH  13  14
HETATM   14  N5  UNL     1      31.632  10.370  48.256  1.00  0.00     0.080 N 
HETATM   15  C15 UNL     1      32.267  11.037  47.132  1.00  0.00     0.309 C 
HETATM   16  C16 UNL     1      30.227  10.634  48.200  1.00  0.00     0.309 C 
ENDBRANCH  13  14
ENDBRANCH  12  13
ENDBRANCH  11  12
ENDBRANCH   9  11
ENDBRANCH   6   7
ENDBRANCH   2   5
BRANCH   1  17
HETATM   17  C7  UNL     1      25.942   3.082  50.837  1.00  0.00     0.092 C 
HETATM   18  C6  UNL     1      26.827   2.317  51.454  1.00  0.00     0.032 C 
BRANCH  18  19
HETATM   19  C5  UNL     1      26.588   1.487  52.628  1.00  0.00     0.007 A 
HETATM   20  C2  UNL     1      27.434   1.476  53.717  1.00  0.00     0.043 A 
HETATM   21  C1  UNL     1      28.637   2.360  53.668  1.00  0.00     0.071 C 
HETATM   22  N1  UNL     1      27.187   0.700  54.782  1.00  0.00    -0.246 NA
HETATM   23  C3  UNL     1      26.107  -0.099  54.836  1.00  0.00     0.232 A 
HETATM   24  N2  UNL     1      25.275  -0.100  53.785  1.00  0.00    -0.253 NA
HETATM   25  C4  UNL     1      25.485   0.664  52.692  1.00  0.00     0.131 A 
ENDBRANCH  18  19
ENDBRANCH   1  17
TORSDOF 8
ENDMDL
