MODEL 1
REMARK VINA RESULT:      -7.5      0.000      0.000
REMARK  4 active torsions:
REMARK  status: ('A' for Active; 'I' for Inactive)
REMARK    1  A    between atoms: C2_3  and  N2_4 
REMARK    2  A    between atoms: C3_5  and  C4_6 
REMARK    3  A    between atoms: N3_13  and  C11_14 
REMARK    4  A    between atoms: C11_14  and  C12_15 
ROOT
HETATM    1  N1  UNL     1      26.125   7.879  47.183  1.00  0.00    -0.190 NA
HETATM    2  C1  UNL     1      26.052   7.293  48.185  1.00  0.00     0.117 C 
HETATM    3  C2  UNL     1      25.962   6.554  49.414  1.00  0.00     0.108 C 
HETATM    4  C3  UNL     1      25.718   5.277  49.269  1.00  0.00     0.051 C 
ENDROOT
BRANCH   3   5
HETATM    5  N2  UNL     1      26.152   7.343  50.576  1.00  0.00    -0.391 N 
HETATM    6  H1  UNL     1      26.596   8.236  50.858  1.00  0.00     0.157 HD
HETATM    7  H2  UNL     1      25.736   6.959  51.468  1.00  0.00     0.157 HD
ENDBRANCH   3   5
BRANCH   4   8
HETATM    8  C4  UNL     1      25.568   4.265  50.245  1.00  0.00    -0.035 C 
HETATM    9  C5  UNL     1      26.297   3.179  50.636  1.00  0.00     0.020 C 
HETATM   10  C6  UNL     1      25.878   1.983  51.461  1.00  0.00     0.251 C 
HETATM   11  C7  UNL     1      24.327   1.973  51.199  1.00  0.00     0.075 C 
HETATM   12  N3  UNL     1      25.882   2.260  52.911  1.00  0.00     0.104 N 
HETATM   13  C8  UNL     1      24.339   3.382  51.848  1.00  0.00    -0.049 C 
HETATM   14  C9  UNL     1      24.277   4.428  51.030  1.00  0.00     0.015 C 
HETATM   15  C10 UNL     1      24.502   2.773  53.237  1.00  0.00     0.308 C 
BRANCH  12  16
HETATM   16  C11 UNL     1      25.999   0.989  53.586  1.00  0.00     0.312 C 
BRANCH  16  17
HETATM   17  C12 UNL     1      27.360   0.424  53.550  1.00  0.00    -0.030 A 
HETATM   18  C13 UNL     1      28.596   0.984  53.787  1.00  0.00     0.009 A 
HETATM   19  C14 UNL     1      29.744   0.232  53.680  1.00  0.00     0.001 A 
HETATM   20  C15 UNL     1      29.743  -1.101  53.338  1.00  0.00     0.000 A 
HETATM   21  C16 UNL     1      28.528  -1.678  53.099  1.00  0.00     0.001 A 
HETATM   22  C17 UNL     1      27.370  -0.935  53.202  1.00  0.00     0.009 A 
ENDBRANCH  16  17
ENDBRANCH  12  16
ENDBRANCH   4   8
TORSDOF 4
ENDMDL
MODEL 2
REMARK VINA RESULT:      -7.4      1.735      2.366
REMARK  4 active torsions:
REMARK  status: ('A' for Active; 'I' for Inactive)
REMARK    1  A    between atoms: C2_3  and  N2_4 
REMARK    2  A    between atoms: C3_5  and  C4_6 
REMARK    3  A    between atoms: N3_13  and  C11_14 
REMARK    4  A    between atoms: C11_14  and  C12_15 
ROOT
HETATM    1  N1  UNL     1      28.966   8.593  46.570  1.00  0.00    -0.190 NA
HETATM    2  C1  UNL     1      28.758   7.720  47.308  1.00  0.00     0.117 C 
HETATM    3  C2  UNL     1      28.484   6.638  48.215  1.00  0.00     0.108 C 
HETATM    4  C3  UNL     1      27.234   6.251  48.243  1.00  0.00     0.051 C 
ENDROOT
BRANCH   3   5
HETATM    5  N2  UNL     1      29.622   6.178  48.923  1.00  0.00    -0.391 N 
HETATM    6  H1  UNL     1      30.466   6.557  49.391  1.00  0.00     0.157 HD
HETATM    7  H2  UNL     1      29.693   5.131  49.051  1.00  0.00     0.157 HD
ENDBRANCH   3   5
BRANCH   4   8
HETATM    8  C4  UNL     1      26.618   5.232  49.005  1.00  0.00    -0.035 C 
HETATM    9  C5  UNL     1      26.910   3.930  49.299  1.00  0.00     0.020 C 
HETATM   10  C6  UNL     1      26.014   2.842  49.846  1.00  0.00     0.251 C 
HETATM   11  C7  UNL     1      24.604   3.360  49.382  1.00  0.00     0.075 C 
HETATM   12  N3  UNL     1      25.840   2.927  51.309  1.00  0.00     0.104 N 
HETATM   13  C8  UNL     1      24.916   4.603  50.256  1.00  0.00    -0.049 C 
HETATM   14  C9  UNL     1      25.315   5.703  49.627  1.00  0.00     0.015 C 
HETATM   15  C10 UNL     1      24.639   3.812  51.531  1.00  0.00     0.308 C 
BRANCH  12  16
HETATM   16  C11 UNL     1      25.451   1.615  51.769  1.00  0.00     0.312 C 
BRANCH  16  17
HETATM   17  C12 UNL     1      26.565   0.837  52.345  1.00  0.00    -0.030 A 
HETATM   18  C13 UNL     1      26.797  -0.519  52.421  1.00  0.00     0.009 A 
HETATM   19  C14 UNL     1      27.932  -1.006  53.028  1.00  0.00     0.001 A 
HETATM   20  C15 UNL     1      28.895  -0.198  53.588  1.00  0.00     0.000 A 
HETATM   21  C16 UNL     1      28.685   1.150  53.523  1.00  0.00     0.001 A 
HETATM   22  C17 UNL     1      27.551   1.652  52.918  1.00  0.00     0.009 A 
ENDBRANCH  16  17
ENDBRANCH  12  16
ENDBRANCH   4   8
TORSDOF 4
ENDMDL
MODEL 3
REMARK VINA RESULT:      -7.4      3.770      7.244
REMARK  4 active torsions:
REMARK  status: ('A' for Active; 'I' for Inactive)
REMARK    1  A    between atoms: C2_3  and  N2_4 
REMARK    2  A    between atoms: C3_5  and  C4_6 
REMARK    3  A    between atoms: N3_13  and  C11_14 
REMARK    4  A    between atoms: C11_14  and  C12_15 
ROOT
HETATM    1  N1  UNL     1      22.321  -1.868  55.415  1.00  0.00    -0.190 NA
HETATM    2  C1  UNL     1      22.142  -0.950  54.724  1.00  0.00     0.117 C 
HETATM    3  C2  UNL     1      21.937   0.183  53.862  1.00  0.00     0.108 C 
HETATM    4  C3  UNL     1      22.984   0.532  53.160  1.00  0.00     0.051 C 
ENDROOT
BRANCH   3   5
HETATM    5  N2  UNL     1      20.629   0.725  53.926  1.00  0.00    -0.391 N 
HETATM    6  H1  UNL     1      19.936   1.186  53.309  1.00  0.00     0.157 HD
HETATM    7  H2  UNL     1      20.156   0.675  54.870  1.00  0.00     0.157 HD
ENDBRANCH   3   5
BRANCH   4   8
HETATM    8  C4  UNL     1      23.138   1.582  52.225  1.00  0.00    -0.035 C 
HETATM    9  C5  UNL     1      23.788   2.783  52.215  1.00  0.00     0.020 C 
HETATM   10  C6  UNL     1      23.609   3.967  51.291  1.00  0.00     0.251 C 
HETATM   11  C7  UNL     1      22.128   3.746  50.811  1.00  0.00     0.075 C 
HETATM   12  N3  UNL     1      24.313   3.800  50.005  1.00  0.00     0.104 N 
HETATM   13  C8  UNL     1      22.650   2.403  50.238  1.00  0.00    -0.049 C 
HETATM   14  C9  UNL     1      22.387   1.302  50.935  1.00  0.00     0.015 C 
HETATM   15  C10 UNL     1      23.330   3.127  49.080  1.00  0.00     0.308 C 
BRANCH  12  16
HETATM   16  C11 UNL     1      24.526   5.120  49.461  1.00  0.00     0.312 C 
BRANCH  16  17
HETATM   17  C12 UNL     1      25.908   5.353  49.001  1.00  0.00    -0.030 A 
HETATM   18  C13 UNL     1      27.031   4.555  49.018  1.00  0.00     0.009 A 
HETATM   19  C14 UNL     1      28.230   5.016  48.524  1.00  0.00     0.001 A 
HETATM   20  C15 UNL     1      28.394   6.273  47.989  1.00  0.00     0.000 A 
HETATM   21  C16 UNL     1      27.293   7.081  47.961  1.00  0.00     0.001 A 
HETATM   22  C17 UNL     1      26.084   6.633  48.453  1.00  0.00     0.009 A 
ENDBRANCH  16  17
ENDBRANCH  12  16
ENDBRANCH   4   8
TORSDOF 4
ENDMDL
MODEL 4
REMARK VINA RESULT:      -7.2      2.296      2.685
REMARK  4 active torsions:
REMARK  status: ('A' for Active; 'I' for Inactive)
REMARK    1  A    between atoms: C2_3  and  N2_4 
REMARK    2  A    between atoms: C3_5  and  C4_6 
REMARK    3  A    between atoms: N3_13  and  C11_14 
REMARK    4  A    between atoms: C11_14  and  C12_15 
ROOT
HETATM    1  N1  UNL     1      22.372   8.380  49.862  1.00  0.00    -0.190 NA
HETATM    2  C1  UNL     1      22.761   7.449  50.439  1.00  0.00     0.117 C 
HETATM    3  C2  UNL     1      23.231   6.285  51.142  1.00  0.00     0.108 C 
HETATM    4  C3  UNL     1      22.601   5.177  50.848  1.00  0.00     0.051 C 
ENDROOT
BRANCH   3   5
HETATM    5  N2  UNL     1      24.300   6.546  52.035  1.00  0.00    -0.391 N 
HETATM    6  H1  UNL     1      25.270   6.912  52.019  1.00  0.00     0.157 HD
HETATM    7  H2  UNL     1      24.118   6.318  53.051  1.00  0.00     0.157 HD
ENDBRANCH   3   5
BRANCH   4   8
HETATM    8  C4  UNL     1      22.796   3.866  51.341  1.00  0.00    -0.035 C 
HETATM    9  C5  UNL     1      23.853   3.004  51.409  1.00  0.00     0.020 C 
HETATM   10  C6  UNL     1      23.864   1.511  51.653  1.00  0.00     0.251 C 
HETATM   11  C7  UNL     1      22.421   1.122  51.163  1.00  0.00     0.075 C 
HETATM   12  N3  UNL     1      23.742   1.164  53.081  1.00  0.00     0.104 N 
HETATM   13  C8  UNL     1      21.924   2.073  52.282  1.00  0.00    -0.049 C 
HETATM   14  C9  UNL     1      21.515   3.284  51.914  1.00  0.00     0.015 C 
HETATM   15  C10 UNL     1      22.263   1.040  53.352  1.00  0.00     0.308 C 
BRANCH  12  16
HETATM   16  C11 UNL     1      24.284  -0.164  53.245  1.00  0.00     0.312 C 
BRANCH  16  17
HETATM   17  C12 UNL     1      25.715  -0.178  53.603  1.00  0.00    -0.030 A 
HETATM   18  C13 UNL     1      26.415   0.435  54.619  1.00  0.00     0.009 A 
HETATM   19  C14 UNL     1      27.776   0.267  54.737  1.00  0.00     0.001 A 
HETATM   20  C15 UNL     1      28.519  -0.507  53.876  1.00  0.00     0.000 A 
HETATM   21  C16 UNL     1      27.845  -1.125  52.861  1.00  0.00     0.001 A 
HETATM   22  C17 UNL     1      26.480  -0.964  52.730  1.00  0.00     0.009 A 
ENDBRANCH  16  17
ENDBRANCH  12  16
ENDBRANCH   4   8
TORSDOF 4
ENDMDL
MODEL 5
REMARK VINA RESULT:      -7.2      4.413      7.780
REMARK  4 active torsions:
REMARK  status: ('A' for Active; 'I' for Inactive)
REMARK    1  A    between atoms: C2_3  and  N2_4 
REMARK    2  A    between atoms: C3_5  and  C4_6 
REMARK    3  A    between atoms: N3_13  and  C11_14 
REMARK    4  A    between atoms: C11_14  and  C12_15 
ROOT
HETATM    1  N1  UNL     1      28.831   0.266  54.932  1.00  0.00    -0.190 NA
HETATM    2  C1  UNL     1      27.696   0.212  54.683  1.00  0.00     0.117 C 
HETATM    3  C2  UNL     1      26.296   0.156  54.362  1.00  0.00     0.108 C 
HETATM    4  C3  UNL     1      25.898   1.049  53.492  1.00  0.00     0.051 C 
ENDROOT
BRANCH   3   5
HETATM    5  N2  UNL     1      25.588  -0.861  55.048  1.00  0.00    -0.391 N 
HETATM    6  H1  UNL     1      25.658  -1.877  55.244  1.00  0.00     0.157 HD
HETATM    7  H2  UNL     1      24.702  -0.556  55.537  1.00  0.00     0.157 HD
ENDBRANCH   3   5
BRANCH   4   8
HETATM    8  C4  UNL     1      24.611   1.280  52.954  1.00  0.00    -0.035 C 
HETATM    9  C5  UNL     1      23.597   0.490  52.493  1.00  0.00     0.020 C 
HETATM   10  C6  UNL     1      22.406   0.854  51.636  1.00  0.00     0.251 C 
HETATM   11  C7  UNL     1      22.953   2.130  50.897  1.00  0.00     0.075 C 
HETATM   12  N3  UNL     1      21.310   1.468  52.411  1.00  0.00     0.104 N 
HETATM   13  C8  UNL     1      23.085   2.738  52.318  1.00  0.00    -0.049 C 
HETATM   14  C9  UNL     1      24.300   2.764  52.858  1.00  0.00     0.015 C 
HETATM   15  C10 UNL     1      21.577   2.953  52.398  1.00  0.00     0.308 C 
BRANCH  12  16
HETATM   16  C11 UNL     1      20.096   1.280  51.653  1.00  0.00     0.312 C 
BRANCH  16  17
HETATM   17  C12 UNL     1      19.215   0.231  52.200  1.00  0.00    -0.030 A 
HETATM   18  C13 UNL     1      19.369  -0.642  53.255  1.00  0.00     0.009 A 
HETATM   19  C14 UNL     1      18.384  -1.551  53.567  1.00  0.00     0.001 A 
HETATM   20  C15 UNL     1      17.201  -1.652  52.870  1.00  0.00     0.000 A 
HETATM   21  C16 UNL     1      17.027  -0.794  51.821  1.00  0.00     0.001 A 
HETATM   22  C17 UNL     1      18.007   0.121  51.496  1.00  0.00     0.009 A 
ENDBRANCH  16  17
ENDBRANCH  12  16
ENDBRANCH   4   8
TORSDOF 4
ENDMDL
MODEL 6
REMARK VINA RESULT:      -7.2      2.117      6.959
REMARK  4 active torsions:
REMARK  status: ('A' for Active; 'I' for Inactive)
REMARK    1  A    between atoms: C2_3  and  N2_4 
REMARK    2  A    between atoms: C3_5  and  C4_6 
REMARK    3  A    between atoms: N3_13  and  C11_14 
REMARK    4  A    between atoms: C11_14  and  C12_15 
ROOT
HETATM    1  N1  UNL     1      29.046  -2.868  53.436  1.00  0.00    -0.190 NA
HETATM    2  C1  UNL     1      28.603  -1.797  53.338  1.00  0.00     0.117 C 
HETATM    3  C2  UNL     1      28.041  -0.480  53.210  1.00  0.00     0.108 C 
HETATM    4  C3  UNL     1      26.916  -0.427  52.546  1.00  0.00     0.051 C 
ENDROOT
BRANCH   3   5
HETATM    5  N2  UNL     1      28.810   0.537  53.829  1.00  0.00    -0.391 N 
HETATM    6  H1  UNL     1      28.696   1.501  54.193  1.00  0.00     0.157 HD
HETATM    7  H2  UNL     1      29.826   0.304  54.004  1.00  0.00     0.157 HD
ENDBRANCH   3   5
BRANCH   4   8
HETATM    8  C4  UNL     1      26.099   0.684  52.233  1.00  0.00    -0.035 C 
HETATM    9  C5  UNL     1      26.312   1.928  51.714  1.00  0.00     0.020 C 
HETATM   10  C6  UNL     1      25.417   3.148  51.735  1.00  0.00     0.251 C 
HETATM   11  C7  UNL     1      24.537   2.845  53.003  1.00  0.00     0.075 C 
HETATM   12  N3  UNL     1      24.372   3.108  50.693  1.00  0.00     0.104 N 
HETATM   13  C8  UNL     1      24.084   1.580  52.228  1.00  0.00    -0.049 C 
HETATM   14  C9  UNL     1      24.641   0.424  52.575  1.00  0.00     0.015 C 
HETATM   15  C10 UNL     1      23.187   2.419  51.323  1.00  0.00     0.308 C 
BRANCH  12  16
HETATM   16  C11 UNL     1      23.955   4.469  50.456  1.00  0.00     0.312 C 
BRANCH  16  17
HETATM   17  C12 UNL     1      25.021   5.326  49.903  1.00  0.00    -0.030 A 
HETATM   18  C13 UNL     1      26.003   5.084  48.967  1.00  0.00     0.009 A 
HETATM   19  C14 UNL     1      26.901   6.066  48.618  1.00  0.00     0.001 A 
HETATM   20  C15 UNL     1      26.887   7.330  49.162  1.00  0.00     0.000 A 
HETATM   21  C16 UNL     1      25.921   7.593  50.092  1.00  0.00     0.001 A 
HETATM   22  C17 UNL     1      25.014   6.616  50.451  1.00  0.00     0.009 A 
ENDBRANCH  16  17
ENDBRANCH  12  16
ENDBRANCH   4   8
TORSDOF 4
ENDMDL
MODEL 7
REMARK VINA RESULT:      -7.0      2.584      4.262
REMARK  4 active torsions:
REMARK  status: ('A' for Active; 'I' for Inactive)
REMARK    1  A    between atoms: C2_3  and  N2_4 
REMARK    2  A    between atoms: C3_5  and  C4_6 
REMARK    3  A    between atoms: N3_13  and  C11_14 
REMARK    4  A    between atoms: C11_14  and  C12_15 
ROOT
HETATM    1  N1  UNL     1      25.726   7.591  47.437  1.00  0.00    -0.190 NA
HETATM    2  C1  UNL     1      25.715   6.968  48.419  1.00  0.00     0.117 C 
HETATM    3  C2  UNL     1      25.703   6.182  49.623  1.00  0.00     0.108 C 
HETATM    4  C3  UNL     1      25.529   4.899  49.438  1.00  0.00     0.051 C 
ENDROOT
BRANCH   3   5
HETATM    5  N2  UNL     1      25.880   6.941  50.807  1.00  0.00    -0.391 N 
HETATM    6  H1  UNL     1      26.299   6.843  51.750  1.00  0.00     0.157 HD
HETATM    7  H2  UNL     1      25.487   7.922  50.789  1.00  0.00     0.157 HD
ENDBRANCH   3   5
BRANCH   4   8
HETATM    8  C4  UNL     1      25.465   3.847  50.380  1.00  0.00    -0.035 C 
HETATM    9  C5  UNL     1      24.562   3.444  51.322  1.00  0.00     0.020 C 
HETATM   10  C6  UNL     1      24.748   2.508  52.496  1.00  0.00     0.251 C 
HETATM   11  C7  UNL     1      26.296   2.644  52.740  1.00  0.00     0.075 C 
HETATM   12  N3  UNL     1      24.682   1.086  52.109  1.00  0.00     0.104 N 
HETATM   13  C8  UNL     1      26.440   2.095  51.296  1.00  0.00    -0.049 C 
HETATM   14  C9  UNL     1      26.707   2.975  50.336  1.00  0.00     0.015 C 
HETATM   15  C10 UNL     1      26.096   0.685  51.766  1.00  0.00     0.308 C 
BRANCH  12  16
HETATM   16  C11 UNL     1      24.338   0.337  53.294  1.00  0.00     0.312 C 
BRANCH  16  17
HETATM   17  C12 UNL     1      22.913  -0.037  53.364  1.00  0.00    -0.030 A 
HETATM   18  C13 UNL     1      21.811   0.403  52.663  1.00  0.00     0.009 A 
HETATM   19  C14 UNL     1      20.560  -0.108  52.925  1.00  0.00     0.001 A 
HETATM   20  C15 UNL     1      20.322  -1.071  53.879  1.00  0.00     0.000 A 
HETATM   21  C16 UNL     1      21.401  -1.522  54.585  1.00  0.00     0.001 A 
HETATM   22  C17 UNL     1      22.660  -1.018  54.334  1.00  0.00     0.009 A 
ENDBRANCH  16  17
ENDBRANCH  12  16
ENDBRANCH   4   8
TORSDOF 4
ENDMDL
MODEL 8
REMARK VINA RESULT:      -6.9      3.568      5.735
REMARK  4 active torsions:
REMARK  status: ('A' for Active; 'I' for Inactive)
REMARK    1  A    between atoms: C2_3  and  N2_4 
REMARK    2  A    between atoms: C3_5  and  C4_6 
REMARK    3  A    between atoms: N3_13  and  C11_14 
REMARK    4  A    between atoms: C11_14  and  C12_15 
ROOT
HETATM    1  N1  UNL     1      17.325  -1.016  52.005  1.00  0.00    -0.190 NA
HETATM    2  C1  UNL     1      18.223  -0.277  51.999  1.00  0.00     0.117 C 
HETATM    3  C2  UNL     1      19.345   0.622  51.991  1.00  0.00     0.108 C 
HETATM    4  C3  UNL     1      20.509   0.046  52.140  1.00  0.00     0.051 C 
ENDROOT
BRANCH   3   5
HETATM    5  N2  UNL     1      18.990   1.984  51.822  1.00  0.00    -0.391 N 
HETATM    6  H1  UNL     1      19.443   2.913  51.747  1.00  0.00     0.157 HD
HETATM    7  H2  UNL     1      17.955   2.183  51.739  1.00  0.00     0.157 HD
ENDBRANCH   3   5
BRANCH   4   8
HETATM    8  C4  UNL     1      21.804   0.614  52.180  1.00  0.00    -0.035 C 
HETATM    9  C5  UNL     1      22.862   0.557  53.041  1.00  0.00     0.020 C 
HETATM   10  C6  UNL     1      24.066   1.465  53.150  1.00  0.00     0.251 C 
HETATM   11  C7  UNL     1      23.494   2.788  52.520  1.00  0.00     0.075 C 
HETATM   12  N3  UNL     1      25.111   1.150  52.157  1.00  0.00     0.104 N 
HETATM   13  C8  UNL     1      23.293   1.939  51.238  1.00  0.00    -0.049 C 
HETATM   14  C9  UNL     1      22.061   1.510  50.980  1.00  0.00     0.015 C 
HETATM   15  C10 UNL     1      24.789   1.981  50.940  1.00  0.00     0.308 C 
BRANCH  12  16
HETATM   16  C11 UNL     1      26.356   1.671  52.670  1.00  0.00     0.312 C 
BRANCH  16  17
HETATM   17  C12 UNL     1      27.367   0.630  52.935  1.00  0.00    -0.030 A 
HETATM   18  C13 UNL     1      27.321  -0.743  52.838  1.00  0.00     0.009 A 
HETATM   19  C14 UNL     1      28.419  -1.510  53.155  1.00  0.00     0.001 A 
HETATM   20  C15 UNL     1      29.615  -0.976  53.579  1.00  0.00     0.000 A 
HETATM   21  C16 UNL     1      29.684   0.384  53.681  1.00  0.00     0.001 A 
HETATM   22  C17 UNL     1      28.590   1.164  53.367  1.00  0.00     0.009 A 
ENDBRANCH  16  17
ENDBRANCH  12  16
ENDBRANCH   4   8
TORSDOF 4
ENDMDL
MODEL 9
REMARK VINA RESULT:      -6.9      2.862      7.339
REMARK  4 active torsions:
REMARK  status: ('A' for Active; 'I' for Inactive)
REMARK    1  A    between atoms: C2_3  and  N2_4 
REMARK    2  A    between atoms: C3_5  and  C4_6 
REMARK    3  A    between atoms: N3_13  and  C11_14 
REMARK    4  A    between atoms: C11_14  and  C12_15 
ROOT
HETATM    1  N1  UNL     1      29.417  -2.180  53.458  1.00  0.00    -0.190 NA
HETATM    2  C1  UNL     1      28.710  -1.257  53.494  1.00  0.00     0.117 C 
HETATM    3  C2  UNL     1      27.825  -0.125  53.525  1.00  0.00     0.108 C 
HETATM    4  C3  UNL     1      26.913  -0.117  52.587  1.00  0.00     0.051 C 
ENDROOT
BRANCH   3   5
HETATM    5  N2  UNL     1      28.098   0.790  54.572  1.00  0.00    -0.391 N 
HETATM    6  H1  UNL     1      28.350   0.786  55.577  1.00  0.00     0.157 HD
HETATM    7  H2  UNL     1      28.046   1.814  54.314  1.00  0.00     0.157 HD
ENDBRANCH   3   5
BRANCH   4   8
HETATM    8  C4  UNL     1      25.893   0.826  52.322  1.00  0.00    -0.035 C 
HETATM    9  C5  UNL     1      25.767   1.913  51.504  1.00  0.00     0.020 C 
HETATM   10  C6  UNL     1      24.758   3.039  51.548  1.00  0.00     0.251 C 
HETATM   11  C7  UNL     1      24.347   3.008  53.066  1.00  0.00     0.075 C 
HETATM   12  N3  UNL     1      23.467   2.674  50.934  1.00  0.00     0.104 N 
HETATM   13  C8  UNL     1      23.865   1.563  52.772  1.00  0.00    -0.049 C 
HETATM   14  C9  UNL     1      24.655   0.568  53.163  1.00  0.00     0.015 C 
HETATM   15  C10 UNL     1      22.631   2.091  52.046  1.00  0.00     0.308 C 
BRANCH  12  16
HETATM   16  C11 UNL     1      22.813   3.904  50.555  1.00  0.00     0.312 C 
BRANCH  16  17
HETATM   17  C12 UNL     1      22.498   3.986  49.116  1.00  0.00    -0.030 A 
HETATM   18  C13 UNL     1      22.182   5.052  48.303  1.00  0.00     0.009 A 
HETATM   19  C14 UNL     1      21.917   4.864  46.965  1.00  0.00     0.001 A 
HETATM   20  C15 UNL     1      21.949   3.631  46.356  1.00  0.00     0.000 A 
HETATM   21  C16 UNL     1      22.261   2.559  47.143  1.00  0.00     0.001 A 
HETATM   22  C17 UNL     1      22.528   2.733  48.486  1.00  0.00     0.009 A 
ENDBRANCH  16  17
ENDBRANCH  12  16
ENDBRANCH   4   8
TORSDOF 4
ENDMDL
