MODEL 1
REMARK VINA RESULT:      -7.1      0.000      0.000
REMARK  8 active torsions:
REMARK  status: ('A' for Active; 'I' for Inactive)
REMARK    1  A    between atoms: C2_2  and  C3_3 
REMARK    2  A    between atoms: C3_3  and  N1_4 
REMARK    3  A    between atoms: C3_3  and  C4_6 
REMARK    4  A    between atoms: N3_9  and  C6_10 
REMARK    5  A    between atoms: C6_10  and  C7_11 
REMARK    6  A    between atoms: C7_11  and  C8_12 
REMARK    7  A    between atoms: C8_12  and  N4_13 
REMARK    8  A    between atoms: C13_19  and  C14_20 
ROOT
HETATM    1  C4  UNL     1      26.410   0.559  53.711  1.00  0.00     0.084 A 
HETATM    2  N2  UNL     1      26.422  -0.540  54.519  1.00  0.00    -0.244 NA
HETATM    3  C5  UNL     1      25.153  -0.912  54.728  1.00  0.00     0.210 A 
HETATM    4  N3  UNL     1      24.366  -0.039  54.046  1.00  0.00    -0.339 N 
HETATM    5  C13 UNL     1      25.108   0.878  53.408  1.00  0.00     0.072 A 
ENDROOT
BRANCH   4   6
HETATM    6  C6  UNL     1      22.934  -0.209  54.134  1.00  0.00     0.132 C 
BRANCH   6   7
HETATM    7  C7  UNL     1      22.412  -0.783  52.817  1.00  0.00     0.050 C 
BRANCH   7   8
HETATM    8  C8  UNL     1      21.118  -0.099  52.495  1.00  0.00     0.274 C 
BRANCH   8   9
HETATM    9  N4  UNL     1      21.352   1.246  51.946  1.00  0.00     0.092 N 
HETATM   10  C9  UNL     1      20.506   2.145  52.636  1.00  0.00     0.298 C 
HETATM   11  C10 UNL     1      19.570   2.961  51.794  1.00  0.00     0.198 C 
HETATM   12  O1  UNL     1      20.083   3.296  50.565  1.00  0.00    -0.388 OA
HETATM   13  C11 UNL     1      20.284   2.101  49.878  1.00  0.00     0.198 C 
HETATM   14  C12 UNL     1      21.238   1.167  50.535  1.00  0.00     0.298 C 
ENDBRANCH   8   9
ENDBRANCH   7   8
ENDBRANCH   6   7
ENDBRANCH   4   6
BRANCH   5  15
HETATM   15  C14 UNL     1      24.689   1.982  52.577  1.00  0.00    -0.007 A 
HETATM   16  C15 UNL     1      24.130   3.128  53.103  1.00  0.00     0.014 A 
HETATM   17  C16 UNL     1      23.722   4.222  52.391  1.00  0.00     0.001 A 
HETATM   18  C17 UNL     1      23.869   4.215  51.003  1.00  0.00     0.000 A 
HETATM   19  C18 UNL     1      24.419   3.106  50.413  1.00  0.00     0.001 A 
HETATM   20  C19 UNL     1      24.803   2.047  51.207  1.00  0.00     0.014 A 
ENDBRANCH   5  15
BRANCH   1  21
HETATM   21  C3  UNL     1      27.716   1.165  53.358  1.00  0.00     0.147 C 
BRANCH  21  22
HETATM   22  C2  UNL     1      28.775   0.403  54.134  1.00  0.00     0.018 C 
HETATM   23  C1  UNL     1      29.763  -0.322  53.586  1.00  0.00     0.007 C 
ENDBRANCH  21  22
BRANCH  21  24
HETATM   24  N1  UNL     1      27.819   2.524  53.924  1.00  0.00    -0.152 NA
HETATM   25  F1  UNL     1      29.099   2.892  53.860  1.00  0.00    -0.135 F 
HETATM   26  H5  UNL     1      27.427   2.478  54.882  1.00  0.00     0.160 HD
ENDBRANCH  21  24
ENDBRANCH   1  21
TORSDOF 8
ENDMDL
MODEL 2
REMARK VINA RESULT:      -6.9      1.862      2.220
REMARK  8 active torsions:
REMARK  status: ('A' for Active; 'I' for Inactive)
REMARK    1  A    between atoms: C2_2  and  C3_3 
REMARK    2  A    between atoms: C3_3  and  N1_4 
REMARK    3  A    between atoms: C3_3  and  C4_6 
REMARK    4  A    between atoms: N3_9  and  C6_10 
REMARK    5  A    between atoms: C6_10  and  C7_11 
REMARK    6  A    between atoms: C7_11  and  C8_12 
REMARK    7  A    between atoms: C8_12  and  N4_13 
REMARK    8  A    between atoms: C13_19  and  C14_20 
ROOT
HETATM    1  C4  UNL     1      26.691   0.995  53.116  1.00  0.00     0.084 A 
HETATM    2  N2  UNL     1      26.282  -0.013  53.940  1.00  0.00    -0.244 NA
HETATM    3  C5  UNL     1      24.971  -0.200  53.742  1.00  0.00     0.210 A 
HETATM    4  N3  UNL     1      24.580   0.694  52.796  1.00  0.00    -0.339 N 
HETATM    5  C13 UNL     1      25.614   1.445  52.389  1.00  0.00     0.072 A 
ENDROOT
BRANCH   4   6
HETATM    6  C6  UNL     1      23.185   0.715  52.421  1.00  0.00     0.132 C 
BRANCH   6   7
HETATM    7  C7  UNL     1      22.327   0.419  53.651  1.00  0.00     0.050 C 
BRANCH   7   8
HETATM    8  C8  UNL     1      20.927   0.865  53.358  1.00  0.00     0.274 C 
BRANCH   8   9
HETATM    9  N4  UNL     1      20.216  -0.129  52.538  1.00  0.00     0.092 N 
HETATM   10  C9  UNL     1      19.636   0.553  51.442  1.00  0.00     0.298 C 
HETATM   11  C10 UNL     1      18.153   0.405  51.273  1.00  0.00     0.198 C 
HETATM   12  O1  UNL     1      17.673  -0.823  51.659  1.00  0.00    -0.388 OA
HETATM   13  C11 UNL     1      17.923  -0.937  53.024  1.00  0.00     0.198 C 
HETATM   14  C12 UNL     1      19.363  -0.870  53.394  1.00  0.00     0.298 C 
ENDBRANCH   8   9
ENDBRANCH   7   8
ENDBRANCH   6   7
ENDBRANCH   4   6
BRANCH   5  15
HETATM   15  C14 UNL     1      25.650   2.505  51.411  1.00  0.00    -0.007 A 
HETATM   16  C15 UNL     1      24.749   3.549  51.423  1.00  0.00     0.014 A 
HETATM   17  C16 UNL     1      24.722   4.599  50.547  1.00  0.00     0.001 A 
HETATM   18  C17 UNL     1      25.680   4.653  49.534  1.00  0.00     0.000 A 
HETATM   19  C18 UNL     1      26.609   3.647  49.462  1.00  0.00     0.001 A 
HETATM   20  C19 UNL     1      26.562   2.627  50.387  1.00  0.00     0.014 A 
ENDBRANCH   5  15
BRANCH   1  21
HETATM   21  C3  UNL     1      28.117   1.395  53.178  1.00  0.00     0.147 C 
BRANCH  21  22
HETATM   22  C2  UNL     1      28.826   0.355  54.025  1.00  0.00     0.018 C 
HETATM   23  C1  UNL     1      29.773  -0.487  53.584  1.00  0.00     0.007 C 
ENDBRANCH  21  22
BRANCH  21  24
HETATM   24  N1  UNL     1      28.270   2.623  53.982  1.00  0.00    -0.152 NA
HETATM   25  F1  UNL     1      29.487   2.601  54.526  1.00  0.00    -0.135 F 
HETATM   26  H5  UNL     1      27.489   2.632  54.664  1.00  0.00     0.160 HD
ENDBRANCH  21  24
ENDBRANCH   1  21
TORSDOF 8
ENDMDL
MODEL 3
REMARK VINA RESULT:      -6.9      2.960      6.027
REMARK  8 active torsions:
REMARK  status: ('A' for Active; 'I' for Inactive)
REMARK    1  A    between atoms: C2_2  and  C3_3 
REMARK    2  A    between atoms: C3_3  and  N1_4 
REMARK    3  A    between atoms: C3_3  and  C4_6 
REMARK    4  A    between atoms: N3_9  and  C6_10 
REMARK    5  A    between atoms: C6_10  and  C7_11 
REMARK    6  A    between atoms: C7_11  and  C8_12 
REMARK    7  A    between atoms: C8_12  and  N4_13 
REMARK    8  A    between atoms: C13_19  and  C14_20 
ROOT
HETATM    1  C4  UNL     1      24.519   0.305  52.716  1.00  0.00     0.084 A 
HETATM    2  N2  UNL     1      23.595   1.085  52.085  1.00  0.00    -0.244 NA
HETATM    3  C5  UNL     1      24.252   2.004  51.366  1.00  0.00     0.210 A 
HETATM    4  N3  UNL     1      25.579   1.783  51.558  1.00  0.00    -0.339 N 
HETATM    5  C13 UNL     1      25.779   0.744  52.382  1.00  0.00     0.072 A 
ENDROOT
BRANCH   4   6
HETATM    6  C6  UNL     1      26.513   2.671  50.905  1.00  0.00     0.132 C 
BRANCH   6   7
HETATM    7  C7  UNL     1      25.840   3.306  49.688  1.00  0.00     0.050 C 
BRANCH   7   8
HETATM    8  C8  UNL     1      26.662   4.485  49.266  1.00  0.00     0.274 C 
BRANCH   8   9
HETATM    9  N4  UNL     1      25.816   5.668  49.042  1.00  0.00     0.092 N 
HETATM   10  C9  UNL     1      26.665   6.797  48.972  1.00  0.00     0.298 C 
HETATM   11  C10 UNL     1      26.378   7.909  49.937  1.00  0.00     0.198 C 
HETATM   12  O1  UNL     1      25.043   8.062  50.223  1.00  0.00    -0.388 OA
HETATM   13  C11 UNL     1      24.634   6.886  50.849  1.00  0.00     0.198 C 
HETATM   14  C12 UNL     1      24.789   5.661  50.018  1.00  0.00     0.298 C 
ENDBRANCH   8   9
ENDBRANCH   7   8
ENDBRANCH   6   7
ENDBRANCH   4   6
BRANCH   5  15
HETATM   15  C14 UNL     1      27.016   0.171  52.854  1.00  0.00    -0.007 A 
HETATM   16  C15 UNL     1      27.368  -1.137  52.594  1.00  0.00     0.014 A 
HETATM   17  C16 UNL     1      28.523  -1.753  52.989  1.00  0.00     0.001 A 
HETATM   18  C17 UNL     1      29.457  -1.021  53.725  1.00  0.00     0.000 A 
HETATM   19  C18 UNL     1      29.173   0.287  54.019  1.00  0.00     0.001 A 
HETATM   20  C19 UNL     1      27.983   0.828  53.581  1.00  0.00     0.014 A 
ENDBRANCH   5  15
BRANCH   1  21
HETATM   21  C3  UNL     1      24.018  -0.779  53.594  1.00  0.00     0.147 C 
BRANCH  21  22
HETATM   22  C2  UNL     1      22.503  -0.715  53.544  1.00  0.00     0.018 C 
HETATM   23  C1  UNL     1      21.679  -1.111  54.527  1.00  0.00     0.007 C 
ENDBRANCH  21  22
BRANCH  21  24
HETATM   24  N1  UNL     1      24.306  -0.467  55.007  1.00  0.00    -0.152 NA
HETATM   25  F1  UNL     1      25.411  -1.129  55.351  1.00  0.00    -0.135 F 
HETATM   26  H5  UNL     1      23.459  -0.724  55.548  1.00  0.00     0.160 HD
ENDBRANCH  21  24
ENDBRANCH   1  21
TORSDOF 8
ENDMDL
MODEL 4
REMARK VINA RESULT:      -6.9      3.700      5.819
REMARK  8 active torsions:
REMARK  status: ('A' for Active; 'I' for Inactive)
REMARK    1  A    between atoms: C2_2  and  C3_3 
REMARK    2  A    between atoms: C3_3  and  N1_4 
REMARK    3  A    between atoms: C3_3  and  C4_6 
REMARK    4  A    between atoms: N3_9  and  C6_10 
REMARK    5  A    between atoms: C6_10  and  C7_11 
REMARK    6  A    between atoms: C7_11  and  C8_12 
REMARK    7  A    between atoms: C8_12  and  N4_13 
REMARK    8  A    between atoms: C13_19  and  C14_20 
ROOT
HETATM    1  C4  UNL     1      26.023   4.299  49.866  1.00  0.00     0.084 A 
HETATM    2  N2  UNL     1      26.964   3.391  50.255  1.00  0.00    -0.244 NA
HETATM    3  C5  UNL     1      26.380   2.525  51.093  1.00  0.00     0.210 A 
HETATM    4  N3  UNL     1      25.081   2.904  51.214  1.00  0.00    -0.339 N 
HETATM    5  C13 UNL     1      24.827   3.992  50.471  1.00  0.00     0.072 A 
ENDROOT
BRANCH   4   6
HETATM    6  C6  UNL     1      24.232   2.138  52.097  1.00  0.00     0.132 C 
BRANCH   6   7
HETATM    7  C7  UNL     1      24.769   0.710  52.199  1.00  0.00     0.050 C 
BRANCH   7   8
HETATM    8  C8  UNL     1      24.487   0.207  53.582  1.00  0.00     0.274 C 
BRANCH   8   9
HETATM    9  N4  UNL     1      25.582  -0.648  54.068  1.00  0.00     0.092 N 
HETATM   10  C9  UNL     1      26.294   0.081  55.049  1.00  0.00     0.298 C 
HETATM   11  C10 UNL     1      27.764   0.259  54.811  1.00  0.00     0.198 C 
HETATM   12  O1  UNL     1      28.354  -0.805  54.174  1.00  0.00    -0.388 OA
HETATM   13  C11 UNL     1      27.763  -0.892  52.915  1.00  0.00     0.198 C 
HETATM   14  C12 UNL     1      26.295  -1.128  52.941  1.00  0.00     0.298 C 
ENDBRANCH   8   9
ENDBRANCH   7   8
ENDBRANCH   6   7
ENDBRANCH   4   6
BRANCH   5  15
HETATM   15  C14 UNL     1      23.595   4.724  50.306  1.00  0.00    -0.007 A 
HETATM   16  C15 UNL     1      23.104   5.569  51.279  1.00  0.00     0.014 A 
HETATM   17  C16 UNL     1      21.958   6.309  51.198  1.00  0.00     0.001 A 
HETATM   18  C17 UNL     1      21.186   6.228  50.038  1.00  0.00     0.000 A 
HETATM   19  C18 UNL     1      21.614   5.407  49.027  1.00  0.00     0.001 A 
HETATM   20  C19 UNL     1      22.783   4.696  49.194  1.00  0.00     0.014 A 
ENDBRANCH   5  15
BRANCH   1  21
HETATM   21  C3  UNL     1      26.450   5.377  48.943  1.00  0.00     0.147 C 
BRANCH  21  22
HETATM   22  C2  UNL     1      27.877   5.062  48.534  1.00  0.00     0.018 C 
HETATM   23  C1  UNL     1      28.794   5.969  48.165  1.00  0.00     0.007 C 
ENDBRANCH  21  22
BRANCH  21  24
HETATM   24  N1  UNL     1      26.601   6.649  49.678  1.00  0.00    -0.152 NA
HETATM   25  F1  UNL     1      25.522   7.391  49.427  1.00  0.00    -0.135 F 
HETATM   26  H5  UNL     1      27.498   7.067  49.369  1.00  0.00     0.160 HD
ENDBRANCH  21  24
ENDBRANCH   1  21
TORSDOF 8
ENDMDL
MODEL 5
REMARK VINA RESULT:      -6.8      2.904      5.068
REMARK  8 active torsions:
REMARK  status: ('A' for Active; 'I' for Inactive)
REMARK    1  A    between atoms: C2_2  and  C3_3 
REMARK    2  A    between atoms: C3_3  and  N1_4 
REMARK    3  A    between atoms: C3_3  and  C4_6 
REMARK    4  A    between atoms: N3_9  and  C6_10 
REMARK    5  A    between atoms: C6_10  and  C7_11 
REMARK    6  A    between atoms: C7_11  and  C8_12 
REMARK    7  A    between atoms: C8_12  and  N4_13 
REMARK    8  A    between atoms: C13_19  and  C14_20 
ROOT
HETATM    1  C4  UNL     1      26.384   0.382  52.841  1.00  0.00     0.084 A 
HETATM    2  N2  UNL     1      27.129   1.213  52.056  1.00  0.00    -0.244 NA
HETATM    3  C5  UNL     1      26.287   2.014  51.389  1.00  0.00     0.210 A 
HETATM    4  N3  UNL     1      25.028   1.671  51.770  1.00  0.00    -0.339 N 
HETATM    5  C13 UNL     1      25.052   0.671  52.663  1.00  0.00     0.072 A 
ENDROOT
BRANCH   4   6
HETATM    6  C6  UNL     1      23.923   2.378  51.164  1.00  0.00     0.132 C 
BRANCH   6   7
HETATM    7  C7  UNL     1      24.388   3.012  49.853  1.00  0.00     0.050 C 
BRANCH   7   8
HETATM    8  C8  UNL     1      24.078   4.477  49.912  1.00  0.00     0.274 C 
BRANCH   8   9
HETATM    9  N4  UNL     1      25.274   5.258  50.265  1.00  0.00     0.092 N 
HETATM   10  C9  UNL     1      24.852   6.572  50.579  1.00  0.00     0.298 C 
HETATM   11  C10 UNL     1      25.483   7.681  49.790  1.00  0.00     0.198 C 
HETATM   12  O1  UNL     1      26.788   7.437  49.439  1.00  0.00    -0.388 OA
HETATM   13  C11 UNL     1      26.773   6.323  48.602  1.00  0.00     0.198 C 
HETATM   14  C12 UNL     1      26.227   5.089  49.230  1.00  0.00     0.298 C 
ENDBRANCH   8   9
ENDBRANCH   7   8
ENDBRANCH   6   7
ENDBRANCH   4   6
BRANCH   5  15
HETATM   15  C14 UNL     1      23.956   0.002  53.322  1.00  0.00    -0.007 A 
HETATM   16  C15 UNL     1      22.702  -0.090  52.756  1.00  0.00     0.014 A 
HETATM   17  C16 UNL     1      21.617  -0.717  53.304  1.00  0.00     0.001 A 
HETATM   18  C17 UNL     1      21.753  -1.330  54.550  1.00  0.00     0.000 A 
HETATM   19  C18 UNL     1      22.974  -1.278  55.171  1.00  0.00     0.001 A 
HETATM   20  C19 UNL     1      24.014  -0.625  54.546  1.00  0.00     0.014 A 
ENDBRANCH   5  15
BRANCH   1  21
HETATM   21  C3  UNL     1      27.109  -0.616  53.663  1.00  0.00     0.147 C 
BRANCH  21  22
HETATM   22  C2  UNL     1      28.584  -0.276  53.562  1.00  0.00     0.018 C 
HETATM   23  C1  UNL     1      29.578  -1.171  53.450  1.00  0.00     0.007 C 
ENDBRANCH  21  22
BRANCH  21  24
HETATM   24  N1  UNL     1      27.043  -1.947  53.028  1.00  0.00    -0.152 NA
HETATM   25  F1  UNL     1      26.691  -1.770  51.754  1.00  0.00    -0.135 F 
HETATM   26  H5  UNL     1      26.377  -2.512  53.587  1.00  0.00     0.160 HD
ENDBRANCH  21  24
ENDBRANCH   1  21
TORSDOF 8
ENDMDL
MODEL 6
REMARK VINA RESULT:      -6.8      2.142      2.757
REMARK  8 active torsions:
REMARK  status: ('A' for Active; 'I' for Inactive)
REMARK    1  A    between atoms: C2_2  and  C3_3 
REMARK    2  A    between atoms: C3_3  and  N1_4 
REMARK    3  A    between atoms: C3_3  and  C4_6 
REMARK    4  A    between atoms: N3_9  and  C6_10 
REMARK    5  A    between atoms: C6_10  and  C7_11 
REMARK    6  A    between atoms: C7_11  and  C8_12 
REMARK    7  A    between atoms: C8_12  and  N4_13 
REMARK    8  A    between atoms: C13_19  and  C14_20 
ROOT
HETATM    1  C4  UNL     1      25.911   1.197  52.753  1.00  0.00     0.084 A 
HETATM    2  N2  UNL     1      25.242   0.224  53.437  1.00  0.00    -0.244 NA
HETATM    3  C5  UNL     1      23.955   0.272  53.070  1.00  0.00     0.210 A 
HETATM    4  N3  UNL     1      23.839   1.274  52.160  1.00  0.00    -0.339 N 
HETATM    5  C13 UNL     1      25.024   1.864  51.941  1.00  0.00     0.072 A 
ENDROOT
BRANCH   4   6
HETATM    6  C6  UNL     1      22.526   1.552  51.624  1.00  0.00     0.132 C 
BRANCH   6   7
HETATM    7  C7  UNL     1      21.695   0.270  51.635  1.00  0.00     0.050 C 
BRANCH   7   8
HETATM    8  C8  UNL     1      20.335   0.594  51.097  1.00  0.00     0.274 C 
BRANCH   8   9
HETATM    9  N4  UNL     1      19.340   0.665  52.179  1.00  0.00     0.092 N 
HETATM   10  C9  UNL     1      19.658  -0.340  53.122  1.00  0.00     0.298 C 
HETATM   11  C10 UNL     1      18.576  -1.332  53.431  1.00  0.00     0.198 C 
HETATM   12  O1  UNL     1      17.310  -0.801  53.385  1.00  0.00    -0.388 OA
HETATM   13  C11 UNL     1      17.100  -0.391  52.070  1.00  0.00     0.198 C 
HETATM   14  C12 UNL     1      18.052   0.647  51.589  1.00  0.00     0.298 C 
ENDBRANCH   8   9
ENDBRANCH   7   8
ENDBRANCH   6   7
ENDBRANCH   4   6
BRANCH   5  15
HETATM   15  C14 UNL     1      25.356   2.961  51.064  1.00  0.00    -0.007 A 
HETATM   16  C15 UNL     1      26.429   2.913  50.199  1.00  0.00     0.014 A 
HETATM   17  C16 UNL     1      26.803   3.897  49.327  1.00  0.00     0.001 A 
HETATM   18  C17 UNL     1      26.054   5.074  49.279  1.00  0.00     0.000 A 
HETATM   19  C18 UNL     1      24.971   5.190  50.112  1.00  0.00     0.001 A 
HETATM   20  C19 UNL     1      24.666   4.147  50.960  1.00  0.00     0.014 A 
ENDBRANCH   5  15
BRANCH   1  21
HETATM   21  C3  UNL     1      27.362   1.347  53.016  1.00  0.00     0.147 C 
BRANCH  21  22
HETATM   22  C2  UNL     1      27.772   0.170  53.881  1.00  0.00     0.018 C 
HETATM   23  C1  UNL     1      29.033  -0.253  54.063  1.00  0.00     0.007 C 
ENDBRANCH  21  22
BRANCH  21  24
HETATM   24  N1  UNL     1      27.604   2.499  53.905  1.00  0.00    -0.152 NA
HETATM   25  F1  UNL     1      28.792   3.014  53.586  1.00  0.00    -0.135 F 
HETATM   26  H5  UNL     1      27.530   2.146  54.877  1.00  0.00     0.160 HD
ENDBRANCH  21  24
ENDBRANCH   1  21
TORSDOF 8
ENDMDL
MODEL 7
REMARK VINA RESULT:      -6.8      3.468      7.052
REMARK  8 active torsions:
REMARK  status: ('A' for Active; 'I' for Inactive)
REMARK    1  A    between atoms: C2_2  and  C3_3 
REMARK    2  A    between atoms: C3_3  and  N1_4 
REMARK    3  A    between atoms: C3_3  and  C4_6 
REMARK    4  A    between atoms: N3_9  and  C6_10 
REMARK    5  A    between atoms: C6_10  and  C7_11 
REMARK    6  A    between atoms: C7_11  and  C8_12 
REMARK    7  A    between atoms: C8_12  and  N4_13 
REMARK    8  A    between atoms: C13_19  and  C14_20 
ROOT
HETATM    1  C4  UNL     1      21.962   2.834  51.251  1.00  0.00     0.084 A 
HETATM    2  N2  UNL     1      22.698   3.909  50.846  1.00  0.00    -0.244 NA
HETATM    3  C5  UNL     1      23.807   3.956  51.596  1.00  0.00     0.210 A 
HETATM    4  N3  UNL     1      23.748   2.907  52.458  1.00  0.00    -0.339 N 
HETATM    5  C13 UNL     1      22.626   2.195  52.272  1.00  0.00     0.072 A 
ENDROOT
BRANCH   4   6
HETATM    6  C6  UNL     1      24.826   2.749  53.406  1.00  0.00     0.132 C 
BRANCH   6   7
HETATM    7  C7  UNL     1      25.850   1.761  52.846  1.00  0.00     0.050 C 
BRANCH   7   8
HETATM    8  C8  UNL     1      26.973   1.649  53.831  1.00  0.00     0.274 C 
BRANCH   8   9
HETATM    9  N4  UNL     1      27.168   0.254  54.257  1.00  0.00     0.092 N 
HETATM   10  C9  UNL     1      28.557   0.044  54.419  1.00  0.00     0.298 C 
HETATM   11  C10 UNL     1      29.160  -1.076  53.624  1.00  0.00     0.198 C 
HETATM   12  O1  UNL     1      28.314  -2.143  53.443  1.00  0.00    -0.388 OA
HETATM   13  C11 UNL     1      27.235  -1.672  52.697  1.00  0.00     0.198 C 
HETATM   14  C12 UNL     1      26.465  -0.581  53.352  1.00  0.00     0.298 C 
ENDBRANCH   8   9
ENDBRANCH   7   8
ENDBRANCH   6   7
ENDBRANCH   4   6
BRANCH   5  15
HETATM   15  C14 UNL     1      22.162   1.016  52.961  1.00  0.00    -0.007 A 
HETATM   16  C15 UNL     1      22.764  -0.215  52.801  1.00  0.00     0.014 A 
HETATM   17  C16 UNL     1      22.398  -1.376  53.426  1.00  0.00     0.001 A 
HETATM   18  C17 UNL     1      21.321  -1.352  54.312  1.00  0.00     0.000 A 
HETATM   19  C18 UNL     1      20.675  -0.160  54.520  1.00  0.00     0.001 A 
HETATM   20  C19 UNL     1      21.111   0.962  53.848  1.00  0.00     0.014 A 
ENDBRANCH   5  15
BRANCH   1  21
HETATM   21  C3  UNL     1      20.669   2.593  50.569  1.00  0.00     0.147 C 
BRANCH  21  22
HETATM   22  C2  UNL     1      20.864   1.379  49.680  1.00  0.00     0.018 C 
HETATM   23  C1  UNL     1      21.631   1.342  48.579  1.00  0.00     0.007 C 
ENDBRANCH  21  22
BRANCH  21  24
HETATM   24  N1  UNL     1      20.397   3.666  49.592  1.00  0.00    -0.152 NA
HETATM   25  F1  UNL     1      19.140   3.520  49.171  1.00  0.00    -0.135 F 
HETATM   26  H5  UNL     1      21.116   3.583  48.851  1.00  0.00     0.160 HD
ENDBRANCH  21  24
ENDBRANCH   1  21
TORSDOF 8
ENDMDL
MODEL 8
REMARK VINA RESULT:      -6.8      3.792      7.013
REMARK  8 active torsions:
REMARK  status: ('A' for Active; 'I' for Inactive)
REMARK    1  A    between atoms: C2_2  and  C3_3 
REMARK    2  A    between atoms: C3_3  and  N1_4 
REMARK    3  A    between atoms: C3_3  and  C4_6 
REMARK    4  A    between atoms: N3_9  and  C6_10 
REMARK    5  A    between atoms: C6_10  and  C7_11 
REMARK    6  A    between atoms: C7_11  and  C8_12 
REMARK    7  A    between atoms: C8_12  and  N4_13 
REMARK    8  A    between atoms: C13_19  and  C14_20 
ROOT
HETATM    1  C4  UNL     1      23.368   2.842  49.773  1.00  0.00     0.084 A 
HETATM    2  N2  UNL     1      22.788   1.922  50.596  1.00  0.00    -0.244 NA
HETATM    3  C5  UNL     1      23.630   1.689  51.612  1.00  0.00     0.210 A 
HETATM    4  N3  UNL     1      24.723   2.469  51.408  1.00  0.00    -0.339 N 
HETATM    5  C13 UNL     1      24.595   3.193  50.286  1.00  0.00     0.072 A 
ENDROOT
BRANCH   4   6
HETATM    6  C6  UNL     1      25.804   2.380  52.362  1.00  0.00     0.132 C 
BRANCH   6   7
HETATM    7  C7  UNL     1      26.666   1.161  52.035  1.00  0.00     0.050 C 
BRANCH   7   8
HETATM    8  C8  UNL     1      27.771   1.090  53.045  1.00  0.00     0.274 C 
BRANCH   8   9
HETATM    9  N4  UNL     1      27.776  -0.211  53.734  1.00  0.00     0.092 N 
HETATM   10  C9  UNL     1      29.125  -0.608  53.892  1.00  0.00     0.298 C 
HETATM   11  C10 UNL     1      29.500  -1.941  53.318  1.00  0.00     0.198 C 
HETATM   12  O1  UNL     1      28.492  -2.872  53.378  1.00  0.00    -0.388 OA
HETATM   13  C11 UNL     1      27.453  -2.385  52.588  1.00  0.00     0.198 C 
HETATM   14  C12 UNL     1      26.900  -1.078  53.036  1.00  0.00     0.298 C 
ENDBRANCH   8   9
ENDBRANCH   7   8
ENDBRANCH   6   7
ENDBRANCH   4   6
BRANCH   5  15
HETATM   15  C14 UNL     1      25.508   4.141  49.694  1.00  0.00    -0.007 A 
HETATM   16  C15 UNL     1      25.202   5.481  49.575  1.00  0.00     0.014 A 
HETATM   17  C16 UNL     1      26.013   6.445  49.043  1.00  0.00     0.001 A 
HETATM   18  C17 UNL     1      27.272   6.078  48.568  1.00  0.00     0.000 A 
HETATM   19  C18 UNL     1      27.643   4.761  48.656  1.00  0.00     0.001 A 
HETATM   20  C19 UNL     1      26.762   3.855  49.207  1.00  0.00     0.014 A 
ENDBRANCH   5  15
BRANCH   1  21
HETATM   21  C3  UNL     1      22.620   3.243  48.557  1.00  0.00     0.147 C 
BRANCH  21  22
HETATM   22  C2  UNL     1      21.166   3.384  48.967  1.00  0.00     0.018 C 
HETATM   23  C1  UNL     1      20.590   4.518  49.397  1.00  0.00     0.007 C 
ENDBRANCH  21  22
BRANCH  21  24
HETATM   24  N1  UNL     1      22.575   2.126  47.593  1.00  0.00    -0.152 NA
HETATM   25  F1  UNL     1      21.544   1.348  47.924  1.00  0.00    -0.135 F 
HETATM   26  H5  UNL     1      23.501   1.661  47.632  1.00  0.00     0.160 HD
ENDBRANCH  21  24
ENDBRANCH   1  21
TORSDOF 8
ENDMDL
MODEL 9
REMARK VINA RESULT:      -6.6      1.724      2.356
REMARK  8 active torsions:
REMARK  status: ('A' for Active; 'I' for Inactive)
REMARK    1  A    between atoms: C2_2  and  C3_3 
REMARK    2  A    between atoms: C3_3  and  N1_4 
REMARK    3  A    between atoms: C3_3  and  C4_6 
REMARK    4  A    between atoms: N3_9  and  C6_10 
REMARK    5  A    between atoms: C6_10  and  C7_11 
REMARK    6  A    between atoms: C7_11  and  C8_12 
REMARK    7  A    between atoms: C8_12  and  N4_13 
REMARK    8  A    between atoms: C13_19  and  C14_20 
ROOT
HETATM    1  C4  UNL     1      26.121   1.093  52.757  1.00  0.00     0.084 A 
HETATM    2  N2  UNL     1      25.510   0.075  53.428  1.00  0.00    -0.244 NA
HETATM    3  C5  UNL     1      24.228   0.035  53.039  1.00  0.00     0.210 A 
HETATM    4  N3  UNL     1      24.060   1.030  52.128  1.00  0.00    -0.339 N 
HETATM    5  C13 UNL     1      25.205   1.700  51.931  1.00  0.00     0.072 A 
ENDROOT
BRANCH   4   6
HETATM    6  C6  UNL     1      22.741   1.218  51.570  1.00  0.00     0.132 C 
BRANCH   6   7
HETATM    7  C7  UNL     1      21.904   2.067  52.527  1.00  0.00     0.050 C 
BRANCH   7   8
HETATM    8  C8  UNL     1      20.518   2.166  51.967  1.00  0.00     0.274 C 
BRANCH   8   9
HETATM    9  N4  UNL     1      20.070   3.567  51.907  1.00  0.00     0.092 N 
HETATM   10  C9  UNL     1      18.730   3.570  51.452  1.00  0.00     0.298 C 
HETATM   11  C10 UNL     1      18.444   4.384  50.226  1.00  0.00     0.198 C 
HETATM   12  O1  UNL     1      19.214   5.517  50.122  1.00  0.00    -0.388 OA
HETATM   13  C11 UNL     1      20.535   5.089  50.007  1.00  0.00     0.198 C 
HETATM   14  C12 UNL     1      21.030   4.302  51.169  1.00  0.00     0.298 C 
ENDBRANCH   8   9
ENDBRANCH   7   8
ENDBRANCH   6   7
ENDBRANCH   4   6
BRANCH   5  15
HETATM   15  C14 UNL     1      25.476   2.819  51.061  1.00  0.00    -0.007 A 
HETATM   16  C15 UNL     1      26.506   2.806  50.143  1.00  0.00     0.014 A 
HETATM   17  C16 UNL     1      26.821   3.813  49.275  1.00  0.00     0.001 A 
HETATM   18  C17 UNL     1      26.052   4.978  49.289  1.00  0.00     0.000 A 
HETATM   19  C18 UNL     1      25.011   5.060  50.176  1.00  0.00     0.001 A 
HETATM   20  C19 UNL     1      24.764   3.996  51.017  1.00  0.00     0.014 A 
ENDBRANCH   5  15
BRANCH   1  21
HETATM   21  C3  UNL     1      27.554   1.341  53.046  1.00  0.00     0.147 C 
BRANCH  21  22
HETATM   22  C2  UNL     1      28.010   0.233  53.977  1.00  0.00     0.018 C 
HETATM   23  C1  UNL     1      29.155  -0.456  53.856  1.00  0.00     0.007 C 
ENDBRANCH  21  22
BRANCH  21  24
HETATM   24  N1  UNL     1      27.705   2.547  53.884  1.00  0.00    -0.152 NA
HETATM   25  F1  UNL     1      28.980   2.931  53.813  1.00  0.00    -0.135 F 
HETATM   26  H5  UNL     1      27.381   2.292  54.835  1.00  0.00     0.160 HD
ENDBRANCH  21  24
ENDBRANCH   1  21
TORSDOF 8
ENDMDL
