MODEL 1
REMARK VINA RESULT:      -9.5      0.000      0.000
REMARK  3 active torsions:
REMARK  status: ('A' for Active; 'I' for Inactive)
REMARK    1  A    between atoms: O1_9  and  C8_10 
REMARK    2  A    between atoms: C12_16  and  C13_17 
REMARK    3  A    between atoms: C15_19  and  O2_20 
ROOT
HETATM    1  C1  UNL     1      27.059   9.551  50.092  1.00  0.00     0.063 C 
HETATM    2  C2  UNL     1      26.937   8.316  49.638  1.00  0.00     0.088 C 
HETATM    3  N1  UNL     1      28.169   7.652  49.343  1.00  0.00    -0.374 N 
HETATM    4  C3  UNL     1      27.852   6.781  48.260  1.00  0.00     0.148 C 
HETATM    5  C4  UNL     1      28.806   5.672  48.049  1.00  0.00    -0.011 C 
HETATM    6  C5  UNL     1      27.918   4.733  48.582  1.00  0.00    -0.023 C 
HETATM    7  C6  UNL     1      26.558   4.466  49.213  1.00  0.00     0.062 A 
HETATM    8  C7  UNL     1      25.464   5.223  49.596  1.00  0.00    -0.002 A 
HETATM    9  O1  UNL     1      25.194   3.893  49.882  1.00  0.00     0.000 OA
HETATM   10  C19 UNL     1      24.742   6.565  49.746  1.00  0.00     0.073 A 
HETATM   11  C20 UNL     1      23.624   6.690  48.794  1.00  0.00     0.009 A 
HETATM   12  C21 UNL     1      22.450   6.870  49.408  1.00  0.00    -0.001 A 
HETATM   13  C22 UNL     1      22.802   6.860  50.832  1.00  0.00    -0.001 A 
HETATM   14  C23 UNL     1      24.119   6.686  51.050  1.00  0.00     0.009 A 
HETATM   15  N4  UNL     1      25.702   7.605  49.446  1.00  0.00    -0.361 N 
HETATM   16  H3  UNL     1      29.094   7.763  49.794  1.00  0.00     0.161 HD
HETATM   17  H24 UNL     1      25.482   8.282  48.649  1.00  0.00     0.162 HD
ENDROOT
BRANCH   9  18
HETATM   18  C8  UNL     1      23.996   3.241  49.802  1.00  0.00     0.100 A 
HETATM   19  N2  UNL     1      22.967   3.311  48.945  1.00  0.00    -0.239 NA
HETATM   20  C9  UNL     1      21.859   2.565  49.054  1.00  0.00     0.234 A 
HETATM   21  N3  UNL     1      21.736   1.679  50.073  1.00  0.00    -0.241 NA
HETATM   22  C10 UNL     1      22.728   1.541  50.991  1.00  0.00     0.071 A 
HETATM   23  C11 UNL     1      22.496   0.609  51.978  1.00  0.00     0.042 A 
HETATM   24  C18 UNL     1      23.861   2.326  50.851  1.00  0.00     0.027 A 
HETATM   25  C12 UNL     1      23.494   0.451  52.917  1.00  0.00    -0.023 A 
HETATM   26  C15 UNL     1      24.652   1.192  52.851  1.00  0.00     0.075 A 
HETATM   27  C17 UNL     1      24.804   2.100  51.833  1.00  0.00     0.053 A 
BRANCH  25  28
HETATM   28  C13 UNL     1      23.328  -0.548  54.025  1.00  0.00     0.037 C 
HETATM   29  C14 UNL     1      21.873  -0.528  54.510  1.00  0.00     0.010 C 
ENDBRANCH  25  28
BRANCH  26  30
HETATM   30  O2  UNL     1      25.617   0.993  53.816  1.00  0.00    -0.355 OA
HETATM   31  C16 UNL     1      26.822   1.717  53.832  1.00  0.00     0.210 C 
ENDBRANCH  26  30
ENDBRANCH   9  18
TORSDOF 3
ENDMDL
MODEL 2
REMARK VINA RESULT:      -9.1      3.697      6.918
REMARK  3 active torsions:
REMARK  status: ('A' for Active; 'I' for Inactive)
REMARK    1  A    between atoms: O1_9  and  C8_10 
REMARK    2  A    between atoms: C12_16  and  C13_17 
REMARK    3  A    between atoms: C15_19  and  O2_20 
ROOT
HETATM    1  C1  UNL     1      35.716   5.772  49.295  1.00  0.00     0.063 C 
HETATM    2  C2  UNL     1      34.626   5.475  48.610  1.00  0.00     0.088 C 
HETATM    3  N1  UNL     1      34.530   4.114  48.178  1.00  0.00    -0.374 N 
HETATM    4  C3  UNL     1      33.812   4.182  46.948  1.00  0.00     0.148 C 
HETATM    5  C4  UNL     1      33.192   2.912  46.516  1.00  0.00    -0.011 C 
HETATM    6  C5  UNL     1      31.911   3.354  46.863  1.00  0.00    -0.023 C 
HETATM    7  C6  UNL     1      31.052   4.469  47.442  1.00  0.00     0.062 A 
HETATM    8  C7  UNL     1      31.268   5.728  47.976  1.00  0.00    -0.002 A 
HETATM    9  O1  UNL     1      29.905   5.475  47.999  1.00  0.00     0.000 OA
HETATM   10  C19 UNL     1      32.197   6.872  48.393  1.00  0.00     0.073 A 
HETATM   11  C20 UNL     1      32.067   8.032  47.495  1.00  0.00     0.009 A 
HETATM   12  C21 UNL     1      31.686   9.138  48.144  1.00  0.00    -0.001 A 
HETATM   13  C22 UNL     1      31.554   8.692  49.535  1.00  0.00    -0.001 A 
HETATM   14  C23 UNL     1      31.844   7.388  49.701  1.00  0.00     0.009 A 
HETATM   15  N4  UNL     1      33.555   6.380  48.293  1.00  0.00    -0.361 N 
HETATM   16  H3  UNL     1      34.893   3.259  48.633  1.00  0.00     0.161 HD
HETATM   17  H24 UNL     1      34.233   6.894  47.647  1.00  0.00     0.162 HD
ENDROOT
BRANCH   9  18
HETATM   18  C8  UNL     1      28.881   6.358  47.805  1.00  0.00     0.100 A 
HETATM   19  N2  UNL     1      28.811   7.575  47.247  1.00  0.00    -0.239 NA
HETATM   20  C9  UNL     1      27.679   8.287  47.159  1.00  0.00     0.234 A 
HETATM   21  N3  UNL     1      26.520   7.781  47.649  1.00  0.00    -0.241 NA
HETATM   22  C10 UNL     1      26.496   6.554  48.233  1.00  0.00     0.071 A 
HETATM   23  C11 UNL     1      25.265   6.141  48.691  1.00  0.00     0.042 A 
HETATM   24  C18 UNL     1      27.683   5.843  48.309  1.00  0.00     0.027 A 
HETATM   25  C12 UNL     1      25.218   4.896  49.283  1.00  0.00    -0.023 A 
HETATM   26  C15 UNL     1      26.352   4.125  49.399  1.00  0.00     0.075 A 
HETATM   27  C17 UNL     1      27.541   4.612  48.916  1.00  0.00     0.053 A 
BRANCH  25  28
HETATM   28  C13 UNL     1      23.915   4.363  49.804  1.00  0.00     0.037 C 
HETATM   29  C14 UNL     1      23.195   3.604  48.682  1.00  0.00     0.010 C 
ENDBRANCH  25  28
BRANCH  26  30
HETATM   30  O2  UNL     1      26.248   2.887  50.000  1.00  0.00    -0.355 OA
HETATM   31  C16 UNL     1      26.770   2.629  51.279  1.00  0.00     0.210 C 
ENDBRANCH  26  30
ENDBRANCH   9  18
TORSDOF 3
ENDMDL
MODEL 3
REMARK VINA RESULT:      -8.9      2.974      5.577
REMARK  3 active torsions:
REMARK  status: ('A' for Active; 'I' for Inactive)
REMARK    1  A    between atoms: O1_9  and  C8_10 
REMARK    2  A    between atoms: C12_16  and  C13_17 
REMARK    3  A    between atoms: C15_19  and  O2_20 
ROOT
HETATM    1  C1  UNL     1      27.261   4.635  49.305  1.00  0.00     0.063 C 
HETATM    2  C2  UNL     1      26.089   4.255  49.781  1.00  0.00     0.088 C 
HETATM    3  N1  UNL     1      24.961   4.618  48.979  1.00  0.00    -0.374 N 
HETATM    4  C3  UNL     1      23.907   4.819  49.919  1.00  0.00     0.148 C 
HETATM    5  C4  UNL     1      22.545   4.766  49.352  1.00  0.00    -0.011 C 
HETATM    6  C5  UNL     1      22.302   3.505  49.907  1.00  0.00    -0.023 C 
HETATM    7  C6  UNL     1      22.836   2.343  50.733  1.00  0.00     0.062 A 
HETATM    8  C7  UNL     1      24.027   2.023  51.362  1.00  0.00    -0.002 A 
HETATM    9  O1  UNL     1      23.130   0.986  51.575  1.00  0.00     0.000 OA
HETATM   10  C19 UNL     1      25.475   2.341  51.744  1.00  0.00     0.073 A 
HETATM   11  C20 UNL     1      25.603   2.655  53.177  1.00  0.00     0.009 A 
HETATM   12  C21 UNL     1      26.435   1.821  53.810  1.00  0.00    -0.001 A 
HETATM   13  C22 UNL     1      26.878   0.909  52.750  1.00  0.00    -0.001 A 
HETATM   14  C23 UNL     1      26.336   1.190  51.550  1.00  0.00     0.009 A 
HETATM   15  N4  UNL     1      25.870   3.513  50.992  1.00  0.00    -0.361 N 
HETATM   16  H3  UNL     1      24.897   4.720  47.952  1.00  0.00     0.161 HD
HETATM   17  H24 UNL     1      26.192   4.376  51.533  1.00  0.00     0.162 HD
ENDROOT
BRANCH   9  18
HETATM   18  C8  UNL     1      22.993   0.207  52.688  1.00  0.00     0.100 A 
HETATM   19  N2  UNL     1      23.857  -0.232  53.616  1.00  0.00    -0.239 NA
HETATM   20  C9  UNL     1      23.504  -1.006  54.651  1.00  0.00     0.234 A 
HETATM   21  N3  UNL     1      22.212  -1.388  54.803  1.00  0.00    -0.241 NA
HETATM   22  C10 UNL     1      21.267  -0.992  53.911  1.00  0.00     0.071 A 
HETATM   23  C11 UNL     1      19.989  -1.436  54.167  1.00  0.00     0.042 A 
HETATM   24  C18 UNL     1      21.663  -0.191  52.851  1.00  0.00     0.027 A 
HETATM   25  C12 UNL     1      19.013  -1.041  53.275  1.00  0.00    -0.023 A 
HETATM   26  C15 UNL     1      19.322  -0.246  52.195  1.00  0.00     0.075 A 
HETATM   27  C17 UNL     1      20.622   0.153  52.012  1.00  0.00     0.053 A 
BRANCH  25  28
HETATM   28  C13 UNL     1      17.591  -1.473  53.481  1.00  0.00     0.037 C 
HETATM   29  C14 UNL     1      17.531  -3.005  53.541  1.00  0.00     0.010 C 
ENDBRANCH  25  28
BRANCH  26  30
HETATM   30  O2  UNL     1      18.307   0.119  51.334  1.00  0.00    -0.355 OA
HETATM   31  C16 UNL     1      18.510   1.026  50.279  1.00  0.00     0.210 C 
ENDBRANCH  26  30
ENDBRANCH   9  18
TORSDOF 3
ENDMDL
MODEL 4
REMARK VINA RESULT:      -8.5      2.732      4.488
REMARK  3 active torsions:
REMARK  status: ('A' for Active; 'I' for Inactive)
REMARK    1  A    between atoms: O1_9  and  C8_10 
REMARK    2  A    between atoms: C12_16  and  C13_17 
REMARK    3  A    between atoms: C15_19  and  O2_20 
ROOT
HETATM    1  C1  UNL     1      27.168   4.411  49.014  1.00  0.00     0.063 C 
HETATM    2  C2  UNL     1      26.304   3.718  49.735  1.00  0.00     0.088 C 
HETATM    3  N1  UNL     1      26.764   3.337  51.035  1.00  0.00    -0.374 N 
HETATM    4  C3  UNL     1      26.115   2.092  51.289  1.00  0.00     0.148 C 
HETATM    5  C4  UNL     1      26.057   1.697  52.711  1.00  0.00    -0.011 C 
HETATM    6  C5  UNL     1      24.696   2.005  52.800  1.00  0.00    -0.023 C 
HETATM    7  C6  UNL     1      23.450   2.526  52.097  1.00  0.00     0.062 A 
HETATM    8  C7  UNL     1      23.138   3.017  50.841  1.00  0.00    -0.002 A 
HETATM    9  O1  UNL     1      21.983   3.025  51.610  1.00  0.00     0.000 OA
HETATM   10  C19 UNL     1      23.530   3.406  49.413  1.00  0.00     0.073 A 
HETATM   11  C20 UNL     1      22.982   2.464  48.422  1.00  0.00     0.009 A 
HETATM   12  C21 UNL     1      22.178   3.063  47.538  1.00  0.00    -0.001 A 
HETATM   13  C22 UNL     1      22.188   4.468  47.962  1.00  0.00    -0.001 A 
HETATM   14  C23 UNL     1      22.962   4.688  49.042  1.00  0.00     0.009 A 
HETATM   15  N4  UNL     1      24.974   3.349  49.333  1.00  0.00    -0.361 N 
HETATM   16  H3  UNL     1      27.419   3.830  51.666  1.00  0.00     0.161 HD
HETATM   17  H24 UNL     1      25.415   2.696  48.612  1.00  0.00     0.162 HD
ENDROOT
BRANCH   9  18
HETATM   18  C8  UNL     1      20.702   2.779  51.206  1.00  0.00     0.100 A 
HETATM   19  N2  UNL     1      19.867   3.405  50.364  1.00  0.00    -0.239 NA
HETATM   20  C9  UNL     1      18.621   2.986  50.106  1.00  0.00     0.234 A 
HETATM   21  N3  UNL     1      18.142   1.870  50.710  1.00  0.00    -0.241 NA
HETATM   22  C10 UNL     1      18.917   1.170  51.579  1.00  0.00     0.071 A 
HETATM   23  C11 UNL     1      18.329   0.053  52.129  1.00  0.00     0.042 A 
HETATM   24  C18 UNL     1      20.201   1.629  51.825  1.00  0.00     0.027 A 
HETATM   25  C12 UNL     1      19.101  -0.674  53.011  1.00  0.00    -0.023 A 
HETATM   26  C15 UNL     1      20.387  -0.286  53.311  1.00  0.00     0.075 A 
HETATM   27  C17 UNL     1      20.899   0.842  52.719  1.00  0.00     0.053 A 
BRANCH  25  28
HETATM   28  C13 UNL     1      18.543  -1.911  53.652  1.00  0.00     0.037 C 
HETATM   29  C14 UNL     1      17.140  -2.181  53.092  1.00  0.00     0.010 C 
ENDBRANCH  25  28
BRANCH  26  30
HETATM   30  O2  UNL     1      21.115  -1.050  54.200  1.00  0.00    -0.355 OA
HETATM   31  C16 UNL     1      22.508  -0.919  54.335  1.00  0.00     0.210 C 
ENDBRANCH  26  30
ENDBRANCH   9  18
TORSDOF 3
ENDMDL
MODEL 5
REMARK VINA RESULT:      -8.4      2.500      5.366
REMARK  3 active torsions:
REMARK  status: ('A' for Active; 'I' for Inactive)
REMARK    1  A    between atoms: O1_9  and  C8_10 
REMARK    2  A    between atoms: C12_16  and  C13_17 
REMARK    3  A    between atoms: C15_19  and  O2_20 
ROOT
HETATM    1  C1  UNL     1      17.736   4.344  48.477  1.00  0.00     0.063 C 
HETATM    2  C2  UNL     1      18.878   4.925  48.800  1.00  0.00     0.088 C 
HETATM    3  N1  UNL     1      18.752   6.159  49.513  1.00  0.00    -0.374 N 
HETATM    4  C3  UNL     1      19.885   6.922  49.105  1.00  0.00     0.148 C 
HETATM    5  C4  UNL     1      20.243   8.039  50.004  1.00  0.00    -0.011 C 
HETATM    6  C5  UNL     1      21.350   7.350  50.510  1.00  0.00    -0.023 C 
HETATM    7  C6  UNL     1      22.186   6.077  50.496  1.00  0.00     0.062 A 
HETATM    8  C7  UNL     1      22.137   4.853  49.853  1.00  0.00    -0.002 A 
HETATM    9  O1  UNL     1      23.251   4.866  50.679  1.00  0.00     0.000 OA
HETATM   10  C19 UNL     1      21.479   3.867  48.883  1.00  0.00     0.073 A 
HETATM   11  C20 UNL     1      22.272   3.703  47.653  1.00  0.00     0.009 A 
HETATM   12  C21 UNL     1      22.658   2.438  47.459  1.00  0.00    -0.001 A 
HETATM   13  C22 UNL     1      22.100   1.728  48.616  1.00  0.00    -0.001 A 
HETATM   14  C23 UNL     1      21.416   2.533  49.450  1.00  0.00     0.009 A 
HETATM   15  N4  UNL     1      20.193   4.419  48.516  1.00  0.00    -0.361 N 
HETATM   16  H3  UNL     1      18.016   6.457  50.177  1.00  0.00     0.161 HD
HETATM   17  H24 UNL     1      19.998   4.604  47.482  1.00  0.00     0.162 HD
ENDROOT
BRANCH   9  18
HETATM   18  C8  UNL     1      24.470   4.291  50.458  1.00  0.00     0.100 A 
HETATM   19  N2  UNL     1      25.522   4.629  49.697  1.00  0.00    -0.239 NA
HETATM   20  C9  UNL     1      26.647   3.906  49.623  1.00  0.00     0.234 A 
HETATM   21  N3  UNL     1      26.767   2.762  50.342  1.00  0.00    -0.241 NA
HETATM   22  C10 UNL     1      25.751   2.340  51.140  1.00  0.00     0.071 A 
HETATM   23  C11 UNL     1      25.985   1.169  51.825  1.00  0.00     0.042 A 
HETATM   24  C18 UNL     1      24.601   3.110  51.196  1.00  0.00     0.027 A 
HETATM   25  C12 UNL     1      24.968   0.725  52.644  1.00  0.00    -0.023 A 
HETATM   26  C15 UNL     1      23.792   1.431  52.757  1.00  0.00     0.075 A 
HETATM   27  C17 UNL     1      23.639   2.591  52.039  1.00  0.00     0.053 A 
BRANCH  25  28
HETATM   28  C13 UNL     1      25.140  -0.539  53.435  1.00  0.00     0.037 C 
HETATM   29  C14 UNL     1      26.445  -1.226  53.012  1.00  0.00     0.010 C 
ENDBRANCH  25  28
BRANCH  26  30
HETATM   30  O2  UNL     1      22.808   0.942  53.591  1.00  0.00    -0.355 OA
HETATM   31  C16 UNL     1      21.592   0.435  53.100  1.00  0.00     0.210 C 
ENDBRANCH  26  30
ENDBRANCH   9  18
TORSDOF 3
ENDMDL
MODEL 6
REMARK VINA RESULT:      -8.3      3.763      8.462
REMARK  3 active torsions:
REMARK  status: ('A' for Active; 'I' for Inactive)
REMARK    1  A    between atoms: O1_9  and  C8_10 
REMARK    2  A    between atoms: C12_16  and  C13_17 
REMARK    3  A    between atoms: C15_19  and  O2_20 
ROOT
HETATM    1  C1  UNL     1      23.590   7.583  47.323  1.00  0.00     0.063 C 
HETATM    2  C2  UNL     1      24.608   6.973  47.904  1.00  0.00     0.088 C 
HETATM    3  N1  UNL     1      24.417   5.578  48.155  1.00  0.00    -0.374 N 
HETATM    4  C3  UNL     1      25.166   5.326  49.342  1.00  0.00     0.148 C 
HETATM    5  C4  UNL     1      25.506   3.908  49.577  1.00  0.00    -0.011 C 
HETATM    6  C5  UNL     1      26.842   4.110  49.218  1.00  0.00    -0.023 C 
HETATM    7  C6  UNL     1      27.908   5.085  48.736  1.00  0.00     0.062 A 
HETATM    8  C7  UNL     1      27.956   6.421  48.377  1.00  0.00    -0.002 A 
HETATM    9  O1  UNL     1      29.230   5.890  48.247  1.00  0.00     0.000 OA
HETATM   10  C19 UNL     1      27.286   7.781  48.159  1.00  0.00     0.073 A 
HETATM   11  C20 UNL     1      27.691   8.757  49.186  1.00  0.00     0.009 A 
HETATM   12  C21 UNL     1      28.285   9.833  48.661  1.00  0.00    -0.001 A 
HETATM   13  C22 UNL     1      28.279   9.560  47.220  1.00  0.00    -0.001 A 
HETATM   14  C23 UNL     1      27.708   8.382  46.908  1.00  0.00     0.009 A 
HETATM   15  N4  UNL     1      25.858   7.580  48.271  1.00  0.00    -0.361 N 
HETATM   16  H3  UNL     1      23.865   4.887  47.618  1.00  0.00     0.161 HD
HETATM   17  H24 UNL     1      25.326   8.134  49.013  1.00  0.00     0.162 HD
ENDROOT
BRANCH   9  18
HETATM   18  C8  UNL     1      30.426   6.502  48.493  1.00  0.00     0.100 A 
HETATM   19  N2  UNL     1      30.764   7.656  49.087  1.00  0.00    -0.239 NA
HETATM   20  C9  UNL     1      32.028   8.078  49.226  1.00  0.00     0.234 A 
HETATM   21  N3  UNL     1      33.050   7.323  48.752  1.00  0.00    -0.241 NA
HETATM   22  C10 UNL     1      32.803   6.138  48.135  1.00  0.00     0.071 A 
HETATM   23  C11 UNL     1      33.917   5.455  47.698  1.00  0.00     0.042 A 
HETATM   24  C18 UNL     1      31.486   5.729  48.007  1.00  0.00     0.027 A 
HETATM   25  C12 UNL     1      33.688   4.248  47.072  1.00  0.00    -0.023 A 
HETATM   26  C15 UNL     1      32.409   3.769  46.905  1.00  0.00     0.075 A 
HETATM   27  C17 UNL     1      31.353   4.512  47.370  1.00  0.00     0.053 A 
BRANCH  25  28
HETATM   28  C13 UNL     1      34.845   3.433  46.572  1.00  0.00     0.037 C 
HETATM   29  C14 UNL     1      35.193   3.872  45.144  1.00  0.00     0.010 C 
ENDBRANCH  25  28
BRANCH  26  30
HETATM   30  O2  UNL     1      32.238   2.554  46.272  1.00  0.00    -0.355 OA
HETATM   31  C16 UNL     1      32.146   1.346  46.983  1.00  0.00     0.210 C 
ENDBRANCH  26  30
ENDBRANCH   9  18
TORSDOF 3
ENDMDL
MODEL 7
REMARK VINA RESULT:      -8.2      3.091      6.965
REMARK  3 active torsions:
REMARK  status: ('A' for Active; 'I' for Inactive)
REMARK    1  A    between atoms: O1_9  and  C8_10 
REMARK    2  A    between atoms: C12_16  and  C13_17 
REMARK    3  A    between atoms: C15_19  and  O2_20 
ROOT
HETATM    1  C1  UNL     1      17.402   0.275  49.782  1.00  0.00     0.063 C 
HETATM    2  C2  UNL     1      18.449   0.419  50.574  1.00  0.00     0.088 C 
HETATM    3  N1  UNL     1      18.510  -0.493  51.674  1.00  0.00    -0.374 N 
HETATM    4  C3  UNL     1      19.158   0.242  52.710  1.00  0.00     0.148 C 
HETATM    5  C4  UNL     1      19.743  -0.580  53.789  1.00  0.00    -0.011 C 
HETATM    6  C5  UNL     1      21.044  -0.364  53.325  1.00  0.00    -0.023 C 
HETATM    7  C6  UNL     1      21.944   0.285  52.282  1.00  0.00     0.062 A 
HETATM    8  C7  UNL     1      21.768   1.052  51.144  1.00  0.00    -0.002 A 
HETATM    9  O1  UNL     1      23.128   0.859  51.332  1.00  0.00     0.000 OA
HETATM   10  C19 UNL     1      20.872   1.770  50.130  1.00  0.00     0.073 A 
HETATM   11  C20 UNL     1      20.962   3.234  50.267  1.00  0.00     0.009 A 
HETATM   12  C21 UNL     1      21.387   3.826  49.146  1.00  0.00    -0.001 A 
HETATM   13  C22 UNL     1      21.593   2.705  48.223  1.00  0.00    -0.001 A 
HETATM   14  C23 UNL     1      21.303   1.510  48.770  1.00  0.00     0.009 A 
HETATM   15  N4  UNL     1      19.508   1.377  50.408  1.00  0.00    -0.361 N 
HETATM   16  H3  UNL     1      18.167  -1.467  51.734  1.00  0.00     0.161 HD
HETATM   17  H24 UNL     1      18.799   2.142  50.640  1.00  0.00     0.162 HD
ENDROOT
BRANCH   9  18
HETATM   18  C8  UNL     1      24.146   1.733  51.073  1.00  0.00     0.100 A 
HETATM   19  N2  UNL     1      24.287   2.752  50.213  1.00  0.00    -0.239 NA
HETATM   20  C9  UNL     1      25.396   3.496  50.119  1.00  0.00     0.234 A 
HETATM   21  N3  UNL     1      26.458   3.235  50.922  1.00  0.00    -0.241 NA
HETATM   22  C10 UNL     1      26.407   2.220  51.824  1.00  0.00     0.071 A 
HETATM   23  C11 UNL     1      27.540   2.049  52.588  1.00  0.00     0.042 A 
HETATM   24  C18 UNL     1      25.245   1.469  51.897  1.00  0.00     0.027 A 
HETATM   25  C12 UNL     1      27.506   1.027  53.513  1.00  0.00    -0.023 A 
HETATM   26  C15 UNL     1      26.391   0.232  53.649  1.00  0.00     0.075 A 
HETATM   27  C17 UNL     1      25.302   0.470  52.848  1.00  0.00     0.053 A 
BRANCH  25  28
HETATM   28  C13 UNL     1      28.695   0.774  54.393  1.00  0.00     0.037 C 
HETATM   29  C14 UNL     1      29.734  -0.047  53.617  1.00  0.00     0.010 C 
ENDBRANCH  25  28
BRANCH  26  30
HETATM   30  O2  UNL     1      26.411  -0.776  54.591  1.00  0.00    -0.355 OA
HETATM   31  C16 UNL     1      25.489  -0.831  55.650  1.00  0.00     0.210 C 
ENDBRANCH  26  30
ENDBRANCH   9  18
TORSDOF 3
ENDMDL
MODEL 8
REMARK VINA RESULT:      -8.0      3.240      5.624
REMARK  3 active torsions:
REMARK  status: ('A' for Active; 'I' for Inactive)
REMARK    1  A    between atoms: O1_9  and  C8_10 
REMARK    2  A    between atoms: C12_16  and  C13_17 
REMARK    3  A    between atoms: C15_19  and  O2_20 
ROOT
HETATM    1  C1  UNL     1      18.254   5.105  48.334  1.00  0.00     0.063 C 
HETATM    2  C2  UNL     1      19.398   4.643  48.806  1.00  0.00     0.088 C 
HETATM    3  N1  UNL     1      20.518   5.519  48.649  1.00  0.00    -0.374 N 
HETATM    4  C3  UNL     1      21.633   4.643  48.492  1.00  0.00     0.148 C 
HETATM    5  C4  UNL     1      22.951   5.257  48.753  1.00  0.00    -0.011 C 
HETATM    6  C5  UNL     1      23.077   4.601  49.981  1.00  0.00    -0.023 C 
HETATM    7  C6  UNL     1      22.457   3.652  50.999  1.00  0.00     0.062 A 
HETATM    8  C7  UNL     1      21.271   2.950  51.122  1.00  0.00    -0.002 A 
HETATM    9  O1  UNL     1      22.054   2.680  52.235  1.00  0.00     0.000 OA
HETATM   10  C19 UNL     1      19.888   2.541  50.605  1.00  0.00     0.073 A 
HETATM   11  C20 UNL     1      19.869   1.138  50.157  1.00  0.00     0.009 A 
HETATM   12  C21 UNL     1      18.981   0.400  50.831  1.00  0.00    -0.001 A 
HETATM   13  C22 UNL     1      18.385   1.355  51.773  1.00  0.00    -0.001 A 
HETATM   14  C23 UNL     1      18.894   2.595  51.660  1.00  0.00     0.009 A 
HETATM   15  N4  UNL     1      19.592   3.380  49.464  1.00  0.00    -0.361 N 
HETATM   16  H3  UNL     1      20.542   6.553  48.642  1.00  0.00     0.161 HD
HETATM   17  H24 UNL     1      19.396   2.906  48.526  1.00  0.00     0.162 HD
ENDROOT
BRANCH   9  18
HETATM   18  C8  UNL     1      22.157   1.507  52.927  1.00  0.00     0.100 A 
HETATM   19  N2  UNL     1      21.284   0.777  53.636  1.00  0.00    -0.239 NA
HETATM   20  C9  UNL     1      21.601  -0.370  54.250  1.00  0.00     0.234 A 
HETATM   21  N3  UNL     1      22.867  -0.853  54.172  1.00  0.00    -0.241 NA
HETATM   22  C10 UNL     1      23.820  -0.180  53.476  1.00  0.00     0.071 A 
HETATM   23  C11 UNL     1      25.066  -0.765  53.463  1.00  0.00     0.042 A 
HETATM   24  C18 UNL     1      23.460   1.004  52.852  1.00  0.00     0.027 A 
HETATM   25  C12 UNL     1      26.047  -0.100  52.757  1.00  0.00    -0.023 A 
HETATM   26  C15 UNL     1      25.774   1.083  52.109  1.00  0.00     0.075 A 
HETATM   27  C17 UNL     1      24.503   1.599  52.172  1.00  0.00     0.053 A 
BRANCH  25  28
HETATM   28  C13 UNL     1      27.434  -0.669  52.683  1.00  0.00     0.037 C 
HETATM   29  C14 UNL     1      28.227  -0.233  53.922  1.00  0.00     0.010 C 
ENDBRANCH  25  28
BRANCH  26  30
HETATM   30  O2  UNL     1      26.792   1.706  51.417  1.00  0.00    -0.355 OA
HETATM   31  C16 UNL     1      26.571   2.844  50.622  1.00  0.00     0.210 C 
ENDBRANCH  26  30
ENDBRANCH   9  18
TORSDOF 3
ENDMDL
MODEL 9
REMARK VINA RESULT:      -8.0      3.649      7.535
REMARK  3 active torsions:
REMARK  status: ('A' for Active; 'I' for Inactive)
REMARK    1  A    between atoms: O1_9  and  C8_10 
REMARK    2  A    between atoms: C12_16  and  C13_17 
REMARK    3  A    between atoms: C15_19  and  O2_20 
ROOT
HETATM    1  C1  UNL     1      16.163   0.035  48.692  1.00  0.00     0.063 C 
HETATM    2  C2  UNL     1      16.607   1.125  49.292  1.00  0.00     0.088 C 
HETATM    3  N1  UNL     1      15.682   1.742  50.193  1.00  0.00    -0.374 N 
HETATM    4  C3  UNL     1      15.986   3.133  50.117  1.00  0.00     0.148 C 
HETATM    5  C4  UNL     1      15.499   3.943  51.252  1.00  0.00    -0.011 C 
HETATM    6  C5  UNL     1      16.784   4.067  51.789  1.00  0.00    -0.023 C 
HETATM    7  C6  UNL     1      18.263   3.723  51.670  1.00  0.00     0.062 A 
HETATM    8  C7  UNL     1      19.054   2.980  50.812  1.00  0.00    -0.002 A 
HETATM    9  O1  UNL     1      19.870   3.527  51.791  1.00  0.00     0.000 OA
HETATM   10  C19 UNL     1      19.233   2.080  49.585  1.00  0.00     0.073 A 
HETATM   11  C20 UNL     1      19.910   2.790  48.485  1.00  0.00     0.009 A 
HETATM   12  C21 UNL     1      21.052   2.197  48.124  1.00  0.00    -0.001 A 
HETATM   13  C22 UNL     1      21.141   1.043  49.026  1.00  0.00    -0.001 A 
HETATM   14  C23 UNL     1      20.102   0.957  49.877  1.00  0.00     0.009 A 
HETATM   15  N4  UNL     1      17.911   1.708  49.129  1.00  0.00    -0.361 N 
HETATM   16  H3  UNL     1      14.949   1.303  50.776  1.00  0.00     0.161 HD
HETATM   17  H24 UNL     1      17.630   1.960  48.130  1.00  0.00     0.162 HD
ENDROOT
BRANCH   9  18
HETATM   18  C8  UNL     1      21.151   3.983  51.660  1.00  0.00     0.100 A 
HETATM   19  N2  UNL     1      21.678   5.125  51.195  1.00  0.00    -0.239 NA
HETATM   20  C9  UNL     1      22.994   5.372  51.155  1.00  0.00     0.234 A 
HETATM   21  N3  UNL     1      23.874   4.440  51.600  1.00  0.00    -0.241 NA
HETATM   22  C10 UNL     1      23.430   3.252  52.088  1.00  0.00     0.071 A 
HETATM   23  C11 UNL     1      24.412   2.385  52.515  1.00  0.00     0.042 A 
HETATM   24  C18 UNL     1      22.064   3.026  52.117  1.00  0.00     0.027 A 
HETATM   25  C12 UNL     1      23.982   1.175  53.018  1.00  0.00    -0.023 A 
HETATM   26  C15 UNL     1      22.642   0.870  53.082  1.00  0.00     0.075 A 
HETATM   27  C17 UNL     1      21.727   1.792  52.635  1.00  0.00     0.053 A 
BRANCH  25  28
HETATM   28  C13 UNL     1      24.983   0.172  53.513  1.00  0.00     0.037 C 
HETATM   29  C14 UNL     1      26.169   0.119  52.541  1.00  0.00     0.010 C 
ENDBRANCH  25  28
BRANCH  26  30
HETATM   30  O2  UNL     1      22.268  -0.355  53.594  1.00  0.00    -0.355 OA
HETATM   31  C16 UNL     1      21.430  -0.473  54.716  1.00  0.00     0.210 C 
ENDBRANCH  26  30
ENDBRANCH   9  18
TORSDOF 3
ENDMDL
