MODEL 1
REMARK VINA RESULT:      -7.9      0.000      0.000
REMARK  7 active torsions:
REMARK  status: ('A' for Active; 'I' for Inactive)
REMARK    1  A    between atoms: C1_2  and  C2_3 
REMARK    2  A    between atoms: C4_5  and  N1_6 
REMARK    3  A    between atoms: N1_6  and  C5_7 
REMARK    4  A    between atoms: C7_10  and  C8_11 
REMARK    5  A    between atoms: C9_12  and  C10_13 
REMARK    6  A    between atoms: C10_13  and  C11_14 
REMARK    7  A    between atoms: C11_14  and  C12_15 
ROOT
HETATM    1  C5  UNL     1      25.238   3.223  51.132  1.00  0.00     0.168 C 
HETATM    2  N2  UNL     1      24.710   2.900  50.026  1.00  0.00    -0.228 NA
HETATM    3  C6  UNL     1      23.298   2.970  49.997  1.00  0.00     0.047 C 
HETATM    4  C7  UNL     1      22.593   2.277  49.088  1.00  0.00     0.027 C 
HETATM    5  C18 UNL     1      22.630   3.849  51.028  1.00  0.00     0.141 C 
HETATM    6  S1  UNL     1      23.938   3.676  52.313  1.00  0.00    -0.086 SA
ENDROOT
BRANCH   4   7
HETATM    7  C8  UNL     1      21.139   2.340  49.047  1.00  0.00    -0.002 C 
HETATM    8  C9  UNL     1      20.357   1.534  49.726  1.00  0.00    -0.026 C 
BRANCH   8   9
HETATM    9  C10 UNL     1      20.708   0.438  50.637  1.00  0.00     0.032 C 
BRANCH   9  10
HETATM   10  C11 UNL     1      20.411   0.787  52.090  1.00  0.00     0.042 C 
BRANCH  10  11
HETATM   11  C12 UNL     1      21.387   0.147  52.998  1.00  0.00    -0.058 A 
HETATM   12  C13 UNL     1      22.731   0.140  52.682  1.00  0.00     0.007 A 
HETATM   13  C14 UNL     1      23.663  -0.454  53.522  1.00  0.00     0.001 A 
HETATM   14  C15 UNL     1      23.178  -1.029  54.667  1.00  0.00     0.000 A 
HETATM   15  C16 UNL     1      21.832  -1.029  54.995  1.00  0.00     0.001 A 
HETATM   16  C17 UNL     1      20.907  -0.441  54.168  1.00  0.00     0.007 A 
ENDBRANCH  10  11
ENDBRANCH   9  10
ENDBRANCH   8   9
ENDBRANCH   4   7
BRANCH   1  17
HETATM   17  N1  UNL     1      26.654   3.234  51.417  1.00  0.00    -0.323 N 
HETATM   18  H3  UNL     1      27.225   4.038  51.076  1.00  0.00     0.169 HD
BRANCH  17  19
HETATM   19  C4  UNL     1      27.252   2.151  52.155  1.00  0.00     0.113 A 
HETATM   20  C3  UNL     1      26.708   0.782  51.963  1.00  0.00     0.142 A 
HETATM   21  C2  UNL     1      27.471  -0.156  52.814  1.00  0.00     0.097 A 
HETATM   22  N4  UNL     1      28.554   0.271  53.662  1.00  0.00    -0.242 NA
HETATM   23  C19 UNL     1      28.904   1.516  53.709  1.00  0.00     0.235 A 
HETATM   24  N3  UNL     1      28.241   2.509  52.935  1.00  0.00    -0.228 NA
BRANCH  21  25
HETATM   25  C1  UNL     1      27.165  -1.439  52.811  1.00  0.00     0.248 C 
HETATM   26  O1  UNL     1      27.253  -2.690  52.811  1.00  0.00    -0.282 OA
ENDBRANCH  21  25
ENDBRANCH  17  19
ENDBRANCH   1  17
TORSDOF 7
ENDMDL
MODEL 2
REMARK VINA RESULT:      -7.4      1.608      2.157
REMARK  7 active torsions:
REMARK  status: ('A' for Active; 'I' for Inactive)
REMARK    1  A    between atoms: C1_2  and  C2_3 
REMARK    2  A    between atoms: C4_5  and  N1_6 
REMARK    3  A    between atoms: N1_6  and  C5_7 
REMARK    4  A    between atoms: C7_10  and  C8_11 
REMARK    5  A    between atoms: C9_12  and  C10_13 
REMARK    6  A    between atoms: C10_13  and  C11_14 
REMARK    7  A    between atoms: C11_14  and  C12_15 
ROOT
HETATM    1  C5  UNL     1      25.788   3.167  51.159  1.00  0.00     0.168 C 
HETATM    2  N2  UNL     1      24.831   3.166  51.990  1.00  0.00    -0.228 NA
HETATM    3  C6  UNL     1      23.571   3.506  51.446  1.00  0.00     0.047 C 
HETATM    4  C7  UNL     1      22.580   3.957  52.235  1.00  0.00     0.027 C 
HETATM    5  C18 UNL     1      23.395   3.342  49.956  1.00  0.00     0.141 C 
HETATM    6  S1  UNL     1      25.163   3.617  49.517  1.00  0.00    -0.086 SA
ENDROOT
BRANCH   4   7
HETATM    7  C8  UNL     1      21.278   4.310  51.689  1.00  0.00    -0.002 C 
HETATM    8  C9  UNL     1      20.185   3.619  51.912  1.00  0.00    -0.026 C 
BRANCH   8   9
HETATM    9  C10 UNL     1      19.995   2.400  52.707  1.00  0.00     0.032 C 
BRANCH   9  10
HETATM   10  C11 UNL     1      20.407   1.150  51.940  1.00  0.00     0.042 C 
BRANCH  10  11
HETATM   11  C12 UNL     1      21.153   0.217  52.812  1.00  0.00    -0.058 A 
HETATM   12  C13 UNL     1      20.486  -0.536  53.758  1.00  0.00     0.007 A 
HETATM   13  C14 UNL     1      21.168  -1.418  54.585  1.00  0.00     0.001 A 
HETATM   14  C15 UNL     1      22.525  -1.496  54.411  1.00  0.00     0.000 A 
HETATM   15  C16 UNL     1      23.205  -0.747  53.466  1.00  0.00     0.001 A 
HETATM   16  C17 UNL     1      22.534   0.126  52.645  1.00  0.00     0.007 A 
ENDBRANCH  10  11
ENDBRANCH   9  10
ENDBRANCH   8   9
ENDBRANCH   4   7
BRANCH   1  17
HETATM   17  N1  UNL     1      27.166   2.856  51.462  1.00  0.00    -0.323 N 
HETATM   18  H3  UNL     1      27.905   3.161  50.791  1.00  0.00     0.169 HD
BRANCH  17  19
HETATM   19  C4  UNL     1      27.498   2.140  52.667  1.00  0.00     0.113 A 
HETATM   20  C3  UNL     1      26.511   1.168  53.205  1.00  0.00     0.142 A 
HETATM   21  C2  UNL     1      27.063   0.560  54.433  1.00  0.00     0.097 A 
HETATM   22  N4  UNL     1      28.359   0.909  54.957  1.00  0.00    -0.242 NA
HETATM   23  C19 UNL     1      29.099   1.784  54.357  1.00  0.00     0.235 A 
HETATM   24  N3  UNL     1      28.671   2.436  53.166  1.00  0.00    -0.228 NA
BRANCH  21  25
HETATM   25  C1  UNL     1      26.359  -0.340  55.092  1.00  0.00     0.248 C 
HETATM   26  O1  UNL     1      25.617  -0.894  55.939  1.00  0.00    -0.282 OA
ENDBRANCH  21  25
ENDBRANCH  17  19
ENDBRANCH   1  17
TORSDOF 7
ENDMDL
MODEL 3
REMARK VINA RESULT:      -7.4      4.783      6.489
REMARK  7 active torsions:
REMARK  status: ('A' for Active; 'I' for Inactive)
REMARK    1  A    between atoms: C1_2  and  C2_3 
REMARK    2  A    between atoms: C4_5  and  N1_6 
REMARK    3  A    between atoms: N1_6  and  C5_7 
REMARK    4  A    between atoms: C7_10  and  C8_11 
REMARK    5  A    between atoms: C9_12  and  C10_13 
REMARK    6  A    between atoms: C10_13  and  C11_14 
REMARK    7  A    between atoms: C11_14  and  C12_15 
ROOT
HETATM    1  C5  UNL     1      27.836   5.801  48.421  1.00  0.00     0.168 C 
HETATM    2  N2  UNL     1      27.754   4.565  48.696  1.00  0.00    -0.228 NA
HETATM    3  C6  UNL     1      26.606   4.194  49.433  1.00  0.00     0.047 C 
HETATM    4  C7  UNL     1      26.586   3.056  50.147  1.00  0.00     0.027 C 
HETATM    5  C18 UNL     1      25.421   5.128  49.381  1.00  0.00     0.141 C 
HETATM    6  S1  UNL     1      26.394   6.666  49.099  1.00  0.00    -0.086 SA
ENDROOT
BRANCH   4   7
HETATM    7  C8  UNL     1      25.411   2.661  50.911  1.00  0.00    -0.002 C 
HETATM    8  C9  UNL     1      25.460   2.235  52.151  1.00  0.00    -0.026 C 
BRANCH   8   9
HETATM    9  C10 UNL     1      26.619   2.055  53.033  1.00  0.00     0.032 C 
BRANCH   9  10
HETATM   10  C11 UNL     1      26.423   0.895  54.002  1.00  0.00     0.042 C 
BRANCH  10  11
HETATM   11  C12 UNL     1      27.281  -0.252  53.632  1.00  0.00    -0.058 A 
HETATM   12  C13 UNL     1      26.741  -1.346  52.987  1.00  0.00     0.007 A 
HETATM   13  C14 UNL     1      27.530  -2.431  52.631  1.00  0.00     0.001 A 
HETATM   14  C15 UNL     1      28.859  -2.356  52.954  1.00  0.00     0.000 A 
HETATM   15  C16 UNL     1      29.413  -1.264  53.600  1.00  0.00     0.001 A 
HETATM   16  C17 UNL     1      28.637  -0.188  53.953  1.00  0.00     0.007 A 
ENDBRANCH  10  11
ENDBRANCH   9  10
ENDBRANCH   8   9
ENDBRANCH   4   7
BRANCH   1  17
HETATM   17  N1  UNL     1      28.906   6.430  47.683  1.00  0.00    -0.323 N 
HETATM   18  H3  UNL     1      28.663   7.002  46.844  1.00  0.00     0.169 HD
BRANCH  17  19
HETATM   19  C4  UNL     1      30.273   6.260  48.104  1.00  0.00     0.113 A 
HETATM   20  C3  UNL     1      31.005   5.048  47.654  1.00  0.00     0.142 A 
HETATM   21  C2  UNL     1      32.376   5.089  48.203  1.00  0.00     0.097 A 
HETATM   22  N4  UNL     1      32.848   6.169  49.032  1.00  0.00    -0.242 NA
HETATM   23  C19 UNL     1      32.071   7.159  49.330  1.00  0.00     0.235 A 
HETATM   24  N3  UNL     1      30.730   7.227  48.859  1.00  0.00    -0.228 NA
BRANCH  21  25
HETATM   25  C1  UNL     1      33.219   4.110  47.935  1.00  0.00     0.248 C 
HETATM   26  O1  UNL     1      34.267   3.430  47.824  1.00  0.00    -0.282 OA
ENDBRANCH  21  25
ENDBRANCH  17  19
ENDBRANCH   1  17
TORSDOF 7
ENDMDL
MODEL 4
REMARK VINA RESULT:      -7.3      3.191      5.993
REMARK  7 active torsions:
REMARK  status: ('A' for Active; 'I' for Inactive)
REMARK    1  A    between atoms: C1_2  and  C2_3 
REMARK    2  A    between atoms: C4_5  and  N1_6 
REMARK    3  A    between atoms: N1_6  and  C5_7 
REMARK    4  A    between atoms: C7_10  and  C8_11 
REMARK    5  A    between atoms: C9_12  and  C10_13 
REMARK    6  A    between atoms: C10_13  and  C11_14 
REMARK    7  A    between atoms: C11_14  and  C12_15 
ROOT
HETATM    1  C5  UNL     1      20.392   2.234  50.735  1.00  0.00     0.168 C 
HETATM    2  N2  UNL     1      21.493   1.989  50.155  1.00  0.00    -0.228 NA
HETATM    3  C6  UNL     1      22.430   3.047  50.184  1.00  0.00     0.047 C 
HETATM    4  C7  UNL     1      23.427   3.108  49.285  1.00  0.00     0.027 C 
HETATM    5  C18 UNL     1      22.256   4.093  51.259  1.00  0.00     0.141 C 
HETATM    6  S1  UNL     1      20.430   3.915  51.414  1.00  0.00    -0.086 SA
ENDROOT
BRANCH   4   7
HETATM    7  C8  UNL     1      24.399   4.192  49.303  1.00  0.00    -0.002 C 
HETATM    8  C9  UNL     1      25.675   4.020  49.559  1.00  0.00    -0.026 C 
BRANCH   8   9
HETATM    9  C10 UNL     1      26.407   2.788  49.873  1.00  0.00     0.032 C 
BRANCH   9  10
HETATM   10  C11 UNL     1      26.788   2.711  51.346  1.00  0.00     0.042 C 
BRANCH  10  11
HETATM   11  C12 UNL     1      26.118   1.569  52.006  1.00  0.00    -0.058 A 
HETATM   12  C13 UNL     1      26.755   0.347  52.100  1.00  0.00     0.007 A 
HETATM   13  C14 UNL     1      26.143  -0.735  52.715  1.00  0.00     0.001 A 
HETATM   14  C15 UNL     1      24.886  -0.526  53.219  1.00  0.00     0.000 A 
HETATM   15  C16 UNL     1      24.238   0.695  53.131  1.00  0.00     0.001 A 
HETATM   16  C17 UNL     1      24.839   1.769  52.524  1.00  0.00     0.007 A 
ENDBRANCH  10  11
ENDBRANCH   9  10
ENDBRANCH   8   9
ENDBRANCH   4   7
BRANCH   1  17
HETATM   17  N1  UNL     1      19.277   1.323  50.843  1.00  0.00    -0.323 N 
HETATM   18  H3  UNL     1      18.492   1.412  50.162  1.00  0.00     0.169 HD
BRANCH  17  19
HETATM   19  C4  UNL     1      19.262   0.318  51.875  1.00  0.00     0.113 A 
HETATM   20  C3  UNL     1      20.494   0.116  52.681  1.00  0.00     0.142 A 
HETATM   21  C2  UNL     1      20.244  -0.955  53.669  1.00  0.00     0.097 A 
HETATM   22  N4  UNL     1      18.981  -1.640  53.770  1.00  0.00    -0.242 NA
HETATM   23  C19 UNL     1      18.002  -1.335  52.981  1.00  0.00     0.235 A 
HETATM   24  N3  UNL     1      18.125  -0.321  51.990  1.00  0.00    -0.228 NA
BRANCH  21  25
HETATM   25  C1  UNL     1      21.202  -1.312  54.503  1.00  0.00     0.248 C 
HETATM   26  O1  UNL     1      22.008  -1.998  55.176  1.00  0.00    -0.282 OA
ENDBRANCH  21  25
ENDBRANCH  17  19
ENDBRANCH   1  17
TORSDOF 7
ENDMDL
MODEL 5
REMARK VINA RESULT:      -7.2      4.108      6.010
REMARK  7 active torsions:
REMARK  status: ('A' for Active; 'I' for Inactive)
REMARK    1  A    between atoms: C1_2  and  C2_3 
REMARK    2  A    between atoms: C4_5  and  N1_6 
REMARK    3  A    between atoms: N1_6  and  C5_7 
REMARK    4  A    between atoms: C7_10  and  C8_11 
REMARK    5  A    between atoms: C9_12  and  C10_13 
REMARK    6  A    between atoms: C10_13  and  C11_14 
REMARK    7  A    between atoms: C11_14  and  C12_15 
ROOT
HETATM    1  C5  UNL     1      25.363   6.056  49.469  1.00  0.00     0.168 C 
HETATM    2  N2  UNL     1      25.230   4.803  49.609  1.00  0.00    -0.228 NA
HETATM    3  C6  UNL     1      24.508   4.407  50.758  1.00  0.00     0.047 C 
HETATM    4  C7  UNL     1      24.645   3.169  51.264  1.00  0.00     0.027 C 
HETATM    5  C18 UNL     1      23.590   5.429  51.383  1.00  0.00     0.141 C 
HETATM    6  S1  UNL     1      24.546   6.909  50.844  1.00  0.00    -0.086 SA
ENDROOT
BRANCH   4   7
HETATM    7  C8  UNL     1      23.908   2.747  52.446  1.00  0.00    -0.002 C 
HETATM    8  C9  UNL     1      24.021   1.557  52.987  1.00  0.00    -0.026 C 
BRANCH   8   9
HETATM    9  C10 UNL     1      24.854   0.419  52.578  1.00  0.00     0.032 C 
BRANCH   9  10
HETATM   10  C11 UNL     1      25.341  -0.390  53.773  1.00  0.00     0.042 C 
BRANCH  10  11
HETATM   11  C12 UNL     1      26.818  -0.459  53.799  1.00  0.00    -0.058 A 
HETATM   12  C13 UNL     1      27.483  -1.423  53.068  1.00  0.00     0.007 A 
HETATM   13  C14 UNL     1      28.869  -1.502  53.079  1.00  0.00     0.001 A 
HETATM   14  C15 UNL     1      29.530  -0.581  53.847  1.00  0.00     0.000 A 
HETATM   15  C16 UNL     1      28.874   0.391  54.584  1.00  0.00     0.001 A 
HETATM   16  C17 UNL     1      27.504   0.474  54.576  1.00  0.00     0.007 A 
ENDBRANCH  10  11
ENDBRANCH   9  10
ENDBRANCH   8   9
ENDBRANCH   4   7
BRANCH   1  17
HETATM   17  N1  UNL     1      26.056   6.712  48.384  1.00  0.00    -0.323 N 
HETATM   18  H3  UNL     1      25.503   7.024  47.556  1.00  0.00     0.169 HD
BRANCH  17  19
HETATM   19  C4  UNL     1      27.479   6.923  48.456  1.00  0.00     0.113 A 
HETATM   20  C3  UNL     1      28.377   5.764  48.217  1.00  0.00     0.142 A 
HETATM   21  C2  UNL     1      29.779   6.216  48.341  1.00  0.00     0.097 A 
HETATM   22  N4  UNL     1      30.131   7.578  48.647  1.00  0.00    -0.242 NA
HETATM   23  C19 UNL     1      29.214   8.472  48.827  1.00  0.00     0.235 A 
HETATM   24  N3  UNL     1      27.829   8.154  48.733  1.00  0.00    -0.228 NA
BRANCH  21  25
HETATM   25  C1  UNL     1      30.762   5.353  48.169  1.00  0.00     0.248 C 
HETATM   26  O1  UNL     1      31.774   4.637  48.363  1.00  0.00    -0.282 OA
ENDBRANCH  21  25
ENDBRANCH  17  19
ENDBRANCH   1  17
TORSDOF 7
ENDMDL
MODEL 6
REMARK VINA RESULT:      -7.1      1.390      1.690
REMARK  7 active torsions:
REMARK  status: ('A' for Active; 'I' for Inactive)
REMARK    1  A    between atoms: C1_2  and  C2_3 
REMARK    2  A    between atoms: C4_5  and  N1_6 
REMARK    3  A    between atoms: N1_6  and  C5_7 
REMARK    4  A    between atoms: C7_10  and  C8_11 
REMARK    5  A    between atoms: C9_12  and  C10_13 
REMARK    6  A    between atoms: C10_13  and  C11_14 
REMARK    7  A    between atoms: C11_14  and  C12_15 
ROOT
HETATM    1  C5  UNL     1      24.914   2.898  51.674  1.00  0.00     0.168 C 
HETATM    2  N2  UNL     1      24.500   2.485  50.549  1.00  0.00    -0.228 NA
HETATM    3  C6  UNL     1      23.168   2.842  50.237  1.00  0.00     0.047 C 
HETATM    4  C7  UNL     1      22.465   2.149  49.325  1.00  0.00     0.027 C 
HETATM    5  C18 UNL     1      22.580   4.022  50.972  1.00  0.00     0.141 C 
HETATM    6  S1  UNL     1      23.595   3.832  52.497  1.00  0.00    -0.086 SA
ENDROOT
BRANCH   4   7
HETATM    7  C8  UNL     1      21.093   2.505  48.994  1.00  0.00    -0.002 C 
HETATM    8  C9  UNL     1      20.043   1.930  49.531  1.00  0.00    -0.026 C 
BRANCH   8   9
HETATM    9  C10 UNL     1      19.973   0.856  50.529  1.00  0.00     0.032 C 
BRANCH   9  10
HETATM   10  C11 UNL     1      20.031   1.397  51.953  1.00  0.00     0.042 C 
BRANCH  10  11
HETATM   11  C12 UNL     1      20.613   0.397  52.875  1.00  0.00    -0.058 A 
HETATM   12  C13 UNL     1      21.928   0.505  53.279  1.00  0.00     0.007 A 
HETATM   13  C14 UNL     1      22.492  -0.422  54.144  1.00  0.00     0.001 A 
HETATM   14  C15 UNL     1      21.678  -1.439  54.568  1.00  0.00     0.000 A 
HETATM   15  C16 UNL     1      20.358  -1.559  54.170  1.00  0.00     0.001 A 
HETATM   16  C17 UNL     1      19.795  -0.643  53.315  1.00  0.00     0.007 A 
ENDBRANCH  10  11
ENDBRANCH   9  10
ENDBRANCH   8   9
ENDBRANCH   4   7
BRANCH   1  17
HETATM   17  N1  UNL     1      26.230   2.668  52.222  1.00  0.00    -0.323 N 
HETATM   18  H3  UNL     1      26.891   3.473  52.287  1.00  0.00     0.169 HD
BRANCH  17  19
HETATM   19  C4  UNL     1      26.609   1.351  52.665  1.00  0.00     0.113 A 
HETATM   20  C3  UNL     1      28.017   1.126  53.085  1.00  0.00     0.142 A 
HETATM   21  C2  UNL     1      28.170  -0.286  53.495  1.00  0.00     0.097 A 
HETATM   22  N4  UNL     1      27.080  -1.227  53.463  1.00  0.00    -0.242 NA
HETATM   23  C19 UNL     1      25.904  -0.860  53.066  1.00  0.00     0.235 A 
HETATM   24  N3  UNL     1      25.638   0.474  52.647  1.00  0.00    -0.228 NA
BRANCH  21  25
HETATM   25  C1  UNL     1      29.344  -0.723  53.911  1.00  0.00     0.248 C 
HETATM   26  O1  UNL     1      30.484  -1.245  53.941  1.00  0.00    -0.282 OA
ENDBRANCH  21  25
ENDBRANCH  17  19
ENDBRANCH   1  17
TORSDOF 7
ENDMDL
MODEL 7
REMARK VINA RESULT:      -7.1      3.299      5.944
REMARK  7 active torsions:
REMARK  status: ('A' for Active; 'I' for Inactive)
REMARK    1  A    between atoms: C1_2  and  C2_3 
REMARK    2  A    between atoms: C4_5  and  N1_6 
REMARK    3  A    between atoms: N1_6  and  C5_7 
REMARK    4  A    between atoms: C7_10  and  C8_11 
REMARK    5  A    between atoms: C9_12  and  C10_13 
REMARK    6  A    between atoms: C10_13  and  C11_14 
REMARK    7  A    between atoms: C11_14  and  C12_15 
ROOT
HETATM    1  C5  UNL     1      23.160   2.794  52.067  1.00  0.00     0.168 C 
HETATM    2  N2  UNL     1      22.663   3.924  52.357  1.00  0.00    -0.228 NA
HETATM    3  C6  UNL     1      22.293   4.714  51.244  1.00  0.00     0.047 C 
HETATM    4  C7  UNL     1      22.165   6.047  51.359  1.00  0.00     0.027 C 
HETATM    5  C18 UNL     1      22.057   3.997  49.936  1.00  0.00     0.141 C 
HETATM    6  S1  UNL     1      23.212   2.601  50.265  1.00  0.00    -0.086 SA
ENDROOT
BRANCH   4   7
HETATM    7  C8  UNL     1      21.785   6.873  50.222  1.00  0.00    -0.002 C 
HETATM    8  C9  UNL     1      22.619   7.661  49.585  1.00  0.00    -0.026 C 
BRANCH   8   9
HETATM    9  C10 UNL     1      24.046   7.905  49.829  1.00  0.00     0.032 C 
BRANCH   9  10
HETATM   10  C11 UNL     1      24.864   7.834  48.545  1.00  0.00     0.042 C 
BRANCH  10  11
HETATM   11  C12 UNL     1      25.858   6.741  48.613  1.00  0.00    -0.058 A 
HETATM   12  C13 UNL     1      27.150   6.946  48.171  1.00  0.00     0.007 A 
HETATM   13  C14 UNL     1      28.097   5.933  48.226  1.00  0.00     0.001 A 
HETATM   14  C15 UNL     1      27.682   4.732  48.738  1.00  0.00     0.000 A 
HETATM   15  C16 UNL     1      26.389   4.514  49.185  1.00  0.00     0.001 A 
HETATM   16  C17 UNL     1      25.449   5.513  49.132  1.00  0.00     0.007 A 
ENDBRANCH  10  11
ENDBRANCH   9  10
ENDBRANCH   8   9
ENDBRANCH   4   7
BRANCH   1  17
HETATM   17  N1  UNL     1      23.614   1.806  53.019  1.00  0.00    -0.323 N 
HETATM   18  H3  UNL     1      22.933   1.437  53.717  1.00  0.00     0.169 HD
BRANCH  17  19
HETATM   19  C4  UNL     1      24.981   1.352  52.993  1.00  0.00     0.113 A 
HETATM   20  C3  UNL     1      26.028   2.234  53.572  1.00  0.00     0.142 A 
HETATM   21  C2  UNL     1      27.339   1.566  53.435  1.00  0.00     0.097 A 
HETATM   22  N4  UNL     1      27.491   0.269  52.826  1.00  0.00    -0.242 NA
HETATM   23  C19 UNL     1      26.462  -0.369  52.369  1.00  0.00     0.235 A 
HETATM   24  N3  UNL     1      25.149   0.175  52.445  1.00  0.00    -0.228 NA
BRANCH  21  25
HETATM   25  C1  UNL     1      28.428   2.163  53.881  1.00  0.00     0.248 C 
HETATM   26  O1  UNL     1      29.430   2.463  54.574  1.00  0.00    -0.282 OA
ENDBRANCH  21  25
ENDBRANCH  17  19
ENDBRANCH   1  17
TORSDOF 7
ENDMDL
MODEL 8
REMARK VINA RESULT:      -7.0      5.211      8.506
REMARK  7 active torsions:
REMARK  status: ('A' for Active; 'I' for Inactive)
REMARK    1  A    between atoms: C1_2  and  C2_3 
REMARK    2  A    between atoms: C4_5  and  N1_6 
REMARK    3  A    between atoms: N1_6  and  C5_7 
REMARK    4  A    between atoms: C7_10  and  C8_11 
REMARK    5  A    between atoms: C9_12  and  C10_13 
REMARK    6  A    between atoms: C10_13  and  C11_14 
REMARK    7  A    between atoms: C11_14  and  C12_15 
ROOT
HETATM    1  C5  UNL     1      25.857   3.775  49.710  1.00  0.00     0.168 C 
HETATM    2  N2  UNL     1      27.096   3.960  49.512  1.00  0.00    -0.228 NA
HETATM    3  C6  UNL     1      27.424   5.194  48.903  1.00  0.00     0.047 C 
HETATM    4  C7  UNL     1      28.591   5.352  48.256  1.00  0.00     0.027 C 
HETATM    5  C18 UNL     1      26.410   6.307  49.011  1.00  0.00     0.141 C 
HETATM    6  S1  UNL     1      24.930   5.217  49.119  1.00  0.00    -0.086 SA
ENDROOT
BRANCH   4   7
HETATM    7  C8  UNL     1      28.942   6.617  47.625  1.00  0.00    -0.002 C 
HETATM    8  C9  UNL     1      30.129   7.170  47.716  1.00  0.00    -0.026 C 
BRANCH   8   9
HETATM    9  C10 UNL     1      31.327   6.701  48.423  1.00  0.00     0.032 C 
BRANCH   9  10
HETATM   10  C11 UNL     1      32.497   6.475  47.473  1.00  0.00     0.042 C 
BRANCH  10  11
HETATM   11  C12 UNL     1      32.849   5.040  47.402  1.00  0.00    -0.058 A 
HETATM   12  C13 UNL     1      34.096   4.607  47.807  1.00  0.00     0.007 A 
HETATM   13  C14 UNL     1      34.444   3.265  47.748  1.00  0.00     0.001 A 
HETATM   14  C15 UNL     1      33.492   2.404  47.270  1.00  0.00     0.000 A 
HETATM   15  C16 UNL     1      32.238   2.826  46.861  1.00  0.00     0.001 A 
HETATM   16  C17 UNL     1      31.888   4.152  46.918  1.00  0.00     0.007 A 
ENDBRANCH  10  11
ENDBRANCH   9  10
ENDBRANCH   8   9
ENDBRANCH   4   7
BRANCH   1  17
HETATM   17  N1  UNL     1      25.267   2.603  50.313  1.00  0.00    -0.323 N 
HETATM   18  H3  UNL     1      24.515   2.100  49.794  1.00  0.00     0.169 HD
BRANCH  17  19
HETATM   19  C4  UNL     1      25.716   2.150  51.605  1.00  0.00     0.113 A 
HETATM   20  C3  UNL     1      26.730   1.065  51.658  1.00  0.00     0.142 A 
HETATM   21  C2  UNL     1      27.035   0.769  53.074  1.00  0.00     0.097 A 
HETATM   22  N4  UNL     1      26.408   1.469  54.166  1.00  0.00    -0.242 NA
HETATM   23  C19 UNL     1      25.537   2.398  53.939  1.00  0.00     0.235 A 
HETATM   24  N3  UNL     1      25.163   2.768  52.617  1.00  0.00    -0.228 NA
BRANCH  21  25
HETATM   25  C1  UNL     1      27.915  -0.168  53.372  1.00  0.00     0.248 C 
HETATM   26  O1  UNL     1      28.487  -1.142  53.917  1.00  0.00    -0.282 OA
ENDBRANCH  21  25
ENDBRANCH  17  19
ENDBRANCH   1  17
TORSDOF 7
ENDMDL
MODEL 9
REMARK VINA RESULT:      -7.0      5.878      7.414
REMARK  7 active torsions:
REMARK  status: ('A' for Active; 'I' for Inactive)
REMARK    1  A    between atoms: C1_2  and  C2_3 
REMARK    2  A    between atoms: C4_5  and  N1_6 
REMARK    3  A    between atoms: N1_6  and  C5_7 
REMARK    4  A    between atoms: C7_10  and  C8_11 
REMARK    5  A    between atoms: C9_12  and  C10_13 
REMARK    6  A    between atoms: C10_13  and  C11_14 
REMARK    7  A    between atoms: C11_14  and  C12_15 
ROOT
HETATM    1  C5  UNL     1      28.979   7.444  48.278  1.00  0.00     0.168 C 
HETATM    2  N2  UNL     1      28.756   6.201  48.166  1.00  0.00    -0.228 NA
HETATM    3  C6  UNL     1      27.472   5.786  48.587  1.00  0.00     0.047 C 
HETATM    4  C7  UNL     1      27.240   4.507  48.928  1.00  0.00     0.027 C 
HETATM    5  C18 UNL     1      26.389   6.837  48.638  1.00  0.00     0.141 C 
HETATM    6  S1  UNL     1      27.511   8.261  48.961  1.00  0.00    -0.086 SA
ENDROOT
BRANCH   4   7
HETATM    7  C8  UNL     1      25.923   4.065  49.363  1.00  0.00    -0.002 C 
HETATM    8  C9  UNL     1      25.730   3.179  50.312  1.00  0.00    -0.026 C 
BRANCH   8   9
HETATM    9  C10 UNL     1      26.711   2.449  51.123  1.00  0.00     0.032 C 
BRANCH   9  10
HETATM   10  C11 UNL     1      26.061   1.344  51.946  1.00  0.00     0.042 C 
BRANCH  10  11
HETATM   11  C12 UNL     1      27.082   0.427  52.499  1.00  0.00    -0.058 A 
HETATM   12  C13 UNL     1      28.221   0.930  53.095  1.00  0.00     0.007 A 
HETATM   13  C14 UNL     1      29.189   0.086  53.620  1.00  0.00     0.001 A 
HETATM   14  C15 UNL     1      28.954  -1.260  53.512  1.00  0.00     0.000 A 
HETATM   15  C16 UNL     1      27.816  -1.776  52.916  1.00  0.00     0.001 A 
HETATM   16  C17 UNL     1      26.855  -0.945  52.396  1.00  0.00     0.007 A 
ENDBRANCH  10  11
ENDBRANCH   9  10
ENDBRANCH   8   9
ENDBRANCH   4   7
BRANCH   1  17
HETATM   17  N1  UNL     1      30.207   8.114  47.919  1.00  0.00    -0.323 N 
HETATM   18  H3  UNL     1      30.221   9.158  47.913  1.00  0.00     0.169 HD
BRANCH  17  19
HETATM   19  C4  UNL     1      31.377   7.347  47.578  1.00  0.00     0.113 A 
HETATM   20  C3  UNL     1      32.313   6.966  48.667  1.00  0.00     0.142 A 
HETATM   21  C2  UNL     1      33.428   6.191  48.085  1.00  0.00     0.097 A 
HETATM   22  N4  UNL     1      33.518   5.895  46.678  1.00  0.00    -0.242 NA
HETATM   23  C19 UNL     1      32.606   6.307  45.859  1.00  0.00     0.235 A 
HETATM   24  N3  UNL     1      31.485   7.063  46.304  1.00  0.00    -0.228 NA
BRANCH  21  25
HETATM   25  C1  UNL     1      34.391   5.741  48.867  1.00  0.00     0.248 C 
HETATM   26  O1  UNL     1      35.519   5.422  49.314  1.00  0.00    -0.282 OA
ENDBRANCH  21  25
ENDBRANCH  17  19
ENDBRANCH   1  17
TORSDOF 7
ENDMDL
