MODEL 1
REMARK VINA RESULT:      -7.8      0.000      0.000
REMARK  8 active torsions:
REMARK  status: ('A' for Active; 'I' for Inactive)
REMARK       I    between atoms: C2_2  and  N1_4 
REMARK    1  A    between atoms: N1_4  and  C4_6 
REMARK    2  A    between atoms: C4_6  and  C5_7 
REMARK    3  A    between atoms: C5_7  and  O2_8 
REMARK    4  A    between atoms: O2_8  and  C6_9 
REMARK    5  A    between atoms: C10_16  and  N4_17 
REMARK    6  A    between atoms: N4_17  and  C11_18 
REMARK    7  A    between atoms: C11_18  and  C12_19 
REMARK    8  A    between atoms: C12_19  and  C13_20 
ROOT
HETATM    1  C6  UNL     1      23.286  -0.091  53.489  1.00  0.00     0.092 A 
HETATM    2  C7  UNL     1      22.564  -1.131  54.145  1.00  0.00     0.089 A 
HETATM    3  S1  UNL     1      20.871  -0.570  54.165  1.00  0.00    -0.078 SA
HETATM    4  C8  UNL     1      21.212   1.013  53.303  1.00  0.00     0.115 A 
HETATM    5  N2  UNL     1      20.295   1.955  52.991  1.00  0.00    -0.234 NA
HETATM    6  C9  UNL     1      20.741   3.050  52.357  1.00  0.00     0.236 A 
HETATM    7  N3  UNL     1      22.035   3.106  52.096  1.00  0.00    -0.224 NA
HETATM    8  C10 UNL     1      22.917   2.162  52.415  1.00  0.00     0.140 A 
HETATM    9  C19 UNL     1      22.592   0.998  53.062  1.00  0.00     0.079 A 
ENDROOT
BRANCH   8  10
HETATM   10  N4  UNL     1      24.286   2.408  52.045  1.00  0.00    -0.374 N 
HETATM   11  H13 UNL     1      25.116   1.823  52.246  1.00  0.00     0.161 HD
BRANCH  10  12
HETATM   12  C11 UNL     1      24.652   3.596  51.296  1.00  0.00     0.126 C 
BRANCH  12  13
HETATM   13  C12 UNL     1      24.901   3.362  49.845  1.00  0.00     0.058 C 
BRANCH  13  14
HETATM   14  C13 UNL     1      25.668   4.478  49.280  1.00  0.00    -0.057 A 
HETATM   15  C14 UNL     1      25.176   5.716  48.919  1.00  0.00     0.007 A 
HETATM   16  C15 UNL     1      26.048   6.661  48.394  1.00  0.00     0.001 A 
HETATM   17  C16 UNL     1      27.384   6.374  48.236  1.00  0.00     0.000 A 
HETATM   18  C17 UNL     1      27.897   5.123  48.598  1.00  0.00     0.001 A 
HETATM   19  C18 UNL     1      27.014   4.189  49.119  1.00  0.00     0.007 A 
ENDBRANCH  13  14
ENDBRANCH  12  13
ENDBRANCH  10  12
ENDBRANCH   8  10
BRANCH   1  20
HETATM   20  O2  UNL     1      24.610  -0.147  53.275  1.00  0.00    -0.348 OA
BRANCH  20  21
HETATM   21  C5  UNL     1      25.601  -1.025  53.126  1.00  0.00     0.195 C 
BRANCH  21  22
HETATM   22  C4  UNL     1      26.948  -0.648  52.643  1.00  0.00     0.152 C 
BRANCH  22  23
HETATM   23  N1  UNL     1      27.733   0.277  53.357  1.00  0.00    -0.355 N 
HETATM   24  C2  UNL     1      27.959   1.645  52.947  1.00  0.00     0.215 C 
HETATM   25  C1  UNL     1      28.797   2.566  53.747  1.00  0.00     0.117 C 
HETATM   26  O1  UNL     1      27.501   2.176  51.928  1.00  0.00    -0.274 OA
HETATM   27  C3  UNL     1      28.376  -0.153  54.609  1.00  0.00     0.152 C 
ENDBRANCH  22  23
ENDBRANCH  21  22
ENDBRANCH  20  21
ENDBRANCH   1  20
TORSDOF 8
ENDMDL
MODEL 2
REMARK VINA RESULT:      -7.8      1.528      2.103
REMARK  8 active torsions:
REMARK  status: ('A' for Active; 'I' for Inactive)
REMARK       I    between atoms: C2_2  and  N1_4 
REMARK    1  A    between atoms: N1_4  and  C4_6 
REMARK    2  A    between atoms: C4_6  and  C5_7 
REMARK    3  A    between atoms: C5_7  and  O2_8 
REMARK    4  A    between atoms: O2_8  and  C6_9 
REMARK    5  A    between atoms: C10_16  and  N4_17 
REMARK    6  A    between atoms: N4_17  and  C11_18 
REMARK    7  A    between atoms: C11_18  and  C12_19 
REMARK    8  A    between atoms: C12_19  and  C13_20 
ROOT
HETATM    1  C6  UNL     1      22.806   1.137  52.621  1.00  0.00     0.092 A 
HETATM    2  C7  UNL     1      21.596   0.390  52.714  1.00  0.00     0.089 A 
HETATM    3  S1  UNL     1      20.300   1.579  52.416  1.00  0.00    -0.078 SA
HETATM    4  C8  UNL     1      21.433   3.003  52.185  1.00  0.00     0.115 A 
HETATM    5  N2  UNL     1      21.059   4.273  51.914  1.00  0.00    -0.234 NA
HETATM    6  C9  UNL     1      22.040   5.178  51.779  1.00  0.00     0.236 A 
HETATM    7  N3  UNL     1      23.280   4.745  51.923  1.00  0.00    -0.224 NA
HETATM    8  C10 UNL     1      23.619   3.486  52.190  1.00  0.00     0.140 A 
HETATM    9  C19 UNL     1      22.718   2.468  52.351  1.00  0.00     0.079 A 
ENDROOT
BRANCH   8  10
HETATM   10  N4  UNL     1      25.027   3.212  52.311  1.00  0.00    -0.374 N 
HETATM   11  H13 UNL     1      25.609   3.231  53.168  1.00  0.00     0.161 HD
BRANCH  10  12
HETATM   12  C11 UNL     1      25.819   2.857  51.149  1.00  0.00     0.126 C 
BRANCH  12  13
HETATM   13  C12 UNL     1      25.227   3.268  49.845  1.00  0.00     0.058 C 
BRANCH  13  14
HETATM   14  C13 UNL     1      25.989   4.383  49.274  1.00  0.00    -0.057 A 
HETATM   15  C14 UNL     1      27.339   4.395  48.983  1.00  0.00     0.007 A 
HETATM   16  C15 UNL     1      27.902   5.544  48.444  1.00  0.00     0.001 A 
HETATM   17  C16 UNL     1      27.132   6.657  48.199  1.00  0.00     0.000 A 
HETATM   18  C17 UNL     1      25.763   6.660  48.488  1.00  0.00     0.001 A 
HETATM   19  C18 UNL     1      25.214   5.506  49.028  1.00  0.00     0.007 A 
ENDBRANCH  13  14
ENDBRANCH  12  13
ENDBRANCH  10  12
ENDBRANCH   8  10
BRANCH   1  20
HETATM   20  O2  UNL     1      24.018   0.584  52.784  1.00  0.00    -0.348 OA
BRANCH  20  21
HETATM   21  C5  UNL     1      24.702  -0.187  53.629  1.00  0.00     0.195 C 
BRANCH  21  22
HETATM   22  C4  UNL     1      25.998   0.214  54.220  1.00  0.00     0.152 C 
BRANCH  22  23
HETATM   23  N1  UNL     1      27.198  -0.386  53.792  1.00  0.00    -0.355 N 
HETATM   24  C2  UNL     1      28.511  -0.023  54.278  1.00  0.00     0.215 C 
HETATM   25  C1  UNL     1      29.732  -0.697  53.785  1.00  0.00     0.117 C 
HETATM   26  O1  UNL     1      28.751   0.851  55.119  1.00  0.00    -0.274 OA
HETATM   27  C3  UNL     1      27.137  -1.457  52.786  1.00  0.00     0.152 C 
ENDBRANCH  22  23
ENDBRANCH  21  22
ENDBRANCH  20  21
ENDBRANCH   1  20
TORSDOF 8
ENDMDL
MODEL 3
REMARK VINA RESULT:      -7.6      2.029      5.535
REMARK  8 active torsions:
REMARK  status: ('A' for Active; 'I' for Inactive)
REMARK       I    between atoms: C2_2  and  N1_4 
REMARK    1  A    between atoms: N1_4  and  C4_6 
REMARK    2  A    between atoms: C4_6  and  C5_7 
REMARK    3  A    between atoms: C5_7  and  O2_8 
REMARK    4  A    between atoms: O2_8  and  C6_9 
REMARK    5  A    between atoms: C10_16  and  N4_17 
REMARK    6  A    between atoms: N4_17  and  C11_18 
REMARK    7  A    between atoms: C11_18  and  C12_19 
REMARK    8  A    between atoms: C12_19  and  C13_20 
ROOT
HETATM    1  C6  UNL     1      21.764   1.031  51.289  1.00  0.00     0.092 A 
HETATM    2  C7  UNL     1      20.490   1.266  50.696  1.00  0.00     0.089 A 
HETATM    3  S1  UNL     1      19.342   0.331  51.691  1.00  0.00    -0.078 SA
HETATM    4  C8  UNL     1      20.614  -0.320  52.841  1.00  0.00     0.115 A 
HETATM    5  N2  UNL     1      20.385  -1.142  53.889  1.00  0.00    -0.234 NA
HETATM    6  C9  UNL     1      21.450  -1.512  54.615  1.00  0.00     0.236 A 
HETATM    7  N3  UNL     1      22.625  -1.037  54.240  1.00  0.00    -0.224 NA
HETATM    8  C10 UNL     1      22.822  -0.228  53.203  1.00  0.00     0.140 A 
HETATM    9  C19 UNL     1      21.822   0.222  52.382  1.00  0.00     0.079 A 
ENDROOT
BRANCH   8  10
HETATM   10  N4  UNL     1      24.180   0.180  52.955  1.00  0.00    -0.374 N 
HETATM   11  H13 UNL     1      24.515   0.934  52.327  1.00  0.00     0.161 HD
BRANCH  10  12
HETATM   12  C11 UNL     1      25.289  -0.482  53.615  1.00  0.00     0.126 C 
BRANCH  12  13
HETATM   13  C12 UNL     1      26.220  -1.198  52.697  1.00  0.00     0.058 C 
BRANCH  13  14
HETATM   14  C13 UNL     1      27.610  -0.867  53.031  1.00  0.00    -0.057 A 
HETATM   15  C14 UNL     1      28.658  -1.756  53.167  1.00  0.00     0.007 A 
HETATM   16  C15 UNL     1      29.917  -1.268  53.489  1.00  0.00     0.001 A 
HETATM   17  C16 UNL     1      30.125   0.080  53.670  1.00  0.00     0.000 A 
HETATM   18  C17 UNL     1      29.073   0.992  53.534  1.00  0.00     0.001 A 
HETATM   19  C18 UNL     1      27.820   0.491  53.213  1.00  0.00     0.007 A 
ENDBRANCH  13  14
ENDBRANCH  12  13
ENDBRANCH  10  12
ENDBRANCH   8  10
BRANCH   1  20
HETATM   20  O2  UNL     1      22.898   1.574  50.819  1.00  0.00    -0.348 OA
BRANCH  20  21
HETATM   21  C5  UNL     1      23.327   2.542  50.010  1.00  0.00     0.195 C 
BRANCH  21  22
HETATM   22  C4  UNL     1      24.039   3.745  50.498  1.00  0.00     0.152 C 
BRANCH  22  23
HETATM   23  N1  UNL     1      25.017   4.372  49.702  1.00  0.00    -0.355 N 
HETATM   24  C2  UNL     1      26.413   3.997  49.678  1.00  0.00     0.215 C 
HETATM   25  C1  UNL     1      27.389   4.700  48.816  1.00  0.00     0.117 C 
HETATM   26  O1  UNL     1      26.927   3.091  50.345  1.00  0.00    -0.274 OA
HETATM   27  C3  UNL     1      24.614   5.485  48.828  1.00  0.00     0.152 C 
ENDBRANCH  22  23
ENDBRANCH  21  22
ENDBRANCH  20  21
ENDBRANCH   1  20
TORSDOF 8
ENDMDL
MODEL 4
REMARK VINA RESULT:      -7.6      2.082      4.866
REMARK  8 active torsions:
REMARK  status: ('A' for Active; 'I' for Inactive)
REMARK       I    between atoms: C2_2  and  N1_4 
REMARK    1  A    between atoms: N1_4  and  C4_6 
REMARK    2  A    between atoms: C4_6  and  C5_7 
REMARK    3  A    between atoms: C5_7  and  O2_8 
REMARK    4  A    between atoms: O2_8  and  C6_9 
REMARK    5  A    between atoms: C10_16  and  N4_17 
REMARK    6  A    between atoms: N4_17  and  C11_18 
REMARK    7  A    between atoms: C11_18  and  C12_19 
REMARK    8  A    between atoms: C12_19  and  C13_20 
ROOT
HETATM    1  C6  UNL     1      24.544   1.103  52.805  1.00  0.00     0.092 A 
HETATM    2  C7  UNL     1      23.994  -0.012  53.502  1.00  0.00     0.089 A 
HETATM    3  S1  UNL     1      25.376  -0.739  54.365  1.00  0.00    -0.078 SA
HETATM    4  C8  UNL     1      26.608   0.475  53.755  1.00  0.00     0.115 A 
HETATM    5  N2  UNL     1      27.925   0.484  54.059  1.00  0.00    -0.234 NA
HETATM    6  C9  UNL     1      28.667   1.457  53.511  1.00  0.00     0.236 A 
HETATM    7  N3  UNL     1      28.043   2.319  52.727  1.00  0.00    -0.224 NA
HETATM    8  C10 UNL     1      26.743   2.286  52.445  1.00  0.00     0.140 A 
HETATM    9  C19 UNL     1      25.876   1.346  52.937  1.00  0.00     0.079 A 
ENDROOT
BRANCH   8  10
HETATM   10  N4  UNL     1      26.250   3.314  51.566  1.00  0.00    -0.374 N 
HETATM   11  H13 UNL     1      25.709   4.161  51.817  1.00  0.00     0.161 HD
BRANCH  10  12
HETATM   12  C11 UNL     1      26.487   3.249  50.137  1.00  0.00     0.126 C 
BRANCH  12  13
HETATM   13  C12 UNL     1      25.695   4.222  49.331  1.00  0.00     0.058 C 
BRANCH  13  14
HETATM   14  C13 UNL     1      26.578   5.256  48.780  1.00  0.00    -0.057 A 
HETATM   15  C14 UNL     1      26.216   6.533  48.404  1.00  0.00     0.007 A 
HETATM   16  C15 UNL     1      27.186   7.388  47.897  1.00  0.00     0.001 A 
HETATM   17  C16 UNL     1      28.492   6.973  47.770  1.00  0.00     0.000 A 
HETATM   18  C17 UNL     1      28.874   5.681  48.148  1.00  0.00     0.001 A 
HETATM   19  C18 UNL     1      27.894   4.838  48.651  1.00  0.00     0.007 A 
ENDBRANCH  13  14
ENDBRANCH  12  13
ENDBRANCH  10  12
ENDBRANCH   8  10
BRANCH   1  20
HETATM   20  O2  UNL     1      23.806   1.916  52.033  1.00  0.00    -0.348 OA
BRANCH  20  21
HETATM   21  C5  UNL     1      22.638   1.960  51.393  1.00  0.00     0.195 C 
BRANCH  21  22
HETATM   22  C4  UNL     1      21.680   3.080  51.539  1.00  0.00     0.152 C 
BRANCH  22  23
HETATM   23  N1  UNL     1      21.950   4.335  50.960  1.00  0.00    -0.355 N 
HETATM   24  C2  UNL     1      22.922   5.277  51.469  1.00  0.00     0.215 C 
HETATM   25  C1  UNL     1      23.156   6.580  50.810  1.00  0.00     0.117 C 
HETATM   26  O1  UNL     1      23.634   5.108  52.466  1.00  0.00    -0.274 OA
HETATM   27  C3  UNL     1      21.206   4.736  49.756  1.00  0.00     0.152 C 
ENDBRANCH  22  23
ENDBRANCH  21  22
ENDBRANCH  20  21
ENDBRANCH   1  20
TORSDOF 8
ENDMDL
MODEL 5
REMARK VINA RESULT:      -7.5      2.042      4.902
REMARK  8 active torsions:
REMARK  status: ('A' for Active; 'I' for Inactive)
REMARK       I    between atoms: C2_2  and  N1_4 
REMARK    1  A    between atoms: N1_4  and  C4_6 
REMARK    2  A    between atoms: C4_6  and  C5_7 
REMARK    3  A    between atoms: C5_7  and  O2_8 
REMARK    4  A    between atoms: O2_8  and  C6_9 
REMARK    5  A    between atoms: C10_16  and  N4_17 
REMARK    6  A    between atoms: N4_17  and  C11_18 
REMARK    7  A    between atoms: C11_18  and  C12_19 
REMARK    8  A    between atoms: C12_19  and  C13_20 
ROOT
HETATM    1  C6  UNL     1      23.572   1.462  52.832  1.00  0.00     0.092 A 
HETATM    2  C7  UNL     1      22.504   0.673  53.351  1.00  0.00     0.089 A 
HETATM    3  S1  UNL     1      23.292  -0.781  54.020  1.00  0.00    -0.078 SA
HETATM    4  C8  UNL     1      24.996  -0.264  53.577  1.00  0.00     0.115 A 
HETATM    5  N2  UNL     1      26.123  -0.966  53.824  1.00  0.00    -0.234 NA
HETATM    6  C9  UNL     1      27.279  -0.419  53.421  1.00  0.00     0.236 A 
HETATM    7  N3  UNL     1      27.209   0.757  52.821  1.00  0.00    -0.224 NA
HETATM    8  C10 UNL     1      26.083   1.427  52.591  1.00  0.00     0.140 A 
HETATM    9  C19 UNL     1      24.839   0.980  52.950  1.00  0.00     0.079 A 
ENDROOT
BRANCH   8  10
HETATM   10  N4  UNL     1      26.215   2.695  51.922  1.00  0.00    -0.374 N 
HETATM   11  H13 UNL     1      26.117   3.643  52.327  1.00  0.00     0.161 HD
BRANCH  10  12
HETATM   12  C11 UNL     1      26.521   2.761  50.505  1.00  0.00     0.126 C 
BRANCH  12  13
HETATM   13  C12 UNL     1      25.621   3.650  49.717  1.00  0.00     0.058 C 
BRANCH  13  14
HETATM   14  C13 UNL     1      26.393   4.748  49.123  1.00  0.00    -0.057 A 
HETATM   15  C14 UNL     1      27.729   4.723  48.778  1.00  0.00     0.007 A 
HETATM   16  C15 UNL     1      28.303   5.859  48.224  1.00  0.00     0.001 A 
HETATM   17  C16 UNL     1      27.557   6.996  48.017  1.00  0.00     0.000 A 
HETATM   18  C17 UNL     1      26.201   7.036  48.361  1.00  0.00     0.001 A 
HETATM   19  C18 UNL     1      25.640   5.894  48.915  1.00  0.00     0.007 A 
ENDBRANCH  13  14
ENDBRANCH  12  13
ENDBRANCH  10  12
ENDBRANCH   8  10
BRANCH   1  20
HETATM   20  O2  UNL     1      23.379   2.651  52.242  1.00  0.00    -0.348 OA
BRANCH  20  21
HETATM   21  C5  UNL     1      22.475   3.625  52.142  1.00  0.00     0.195 C 
BRANCH  21  22
HETATM   22  C4  UNL     1      21.475   3.690  51.052  1.00  0.00     0.152 C 
BRANCH  22  23
HETATM   23  N1  UNL     1      21.868   3.537  49.709  1.00  0.00    -0.355 N 
HETATM   24  C2  UNL     1      22.079   2.262  49.059  1.00  0.00     0.215 C 
HETATM   25  C1  UNL     1      22.492   2.174  47.641  1.00  0.00     0.117 C 
HETATM   26  O1  UNL     1      21.946   1.153  49.591  1.00  0.00    -0.274 OA
HETATM   27  C3  UNL     1      22.084   4.740  48.890  1.00  0.00     0.152 C 
ENDBRANCH  22  23
ENDBRANCH  21  22
ENDBRANCH  20  21
ENDBRANCH   1  20
TORSDOF 8
ENDMDL
MODEL 6
REMARK VINA RESULT:      -7.3      2.162      5.212
REMARK  8 active torsions:
REMARK  status: ('A' for Active; 'I' for Inactive)
REMARK       I    between atoms: C2_2  and  N1_4 
REMARK    1  A    between atoms: N1_4  and  C4_6 
REMARK    2  A    between atoms: C4_6  and  C5_7 
REMARK    3  A    between atoms: C5_7  and  O2_8 
REMARK    4  A    between atoms: O2_8  and  C6_9 
REMARK    5  A    between atoms: C10_16  and  N4_17 
REMARK    6  A    between atoms: N4_17  and  C11_18 
REMARK    7  A    between atoms: C11_18  and  C12_19 
REMARK    8  A    between atoms: C12_19  and  C13_20 
ROOT
HETATM    1  C6  UNL     1      24.501   1.281  52.548  1.00  0.00     0.092 A 
HETATM    2  C7  UNL     1      23.757   0.244  53.184  1.00  0.00     0.089 A 
HETATM    3  S1  UNL     1      24.960  -0.664  54.137  1.00  0.00    -0.078 SA
HETATM    4  C8  UNL     1      26.385   0.380  53.642  1.00  0.00     0.115 A 
HETATM    5  N2  UNL     1      27.664   0.213  54.045  1.00  0.00    -0.234 NA
HETATM    6  C9  UNL     1      28.568   1.083  53.571  1.00  0.00     0.236 A 
HETATM    7  N3  UNL     1      28.125   2.023  52.755  1.00  0.00    -0.224 NA
HETATM    8  C10 UNL     1      26.858   2.165  52.375  1.00  0.00     0.140 A 
HETATM    9  C19 UNL     1      25.839   1.345  52.785  1.00  0.00     0.079 A 
ENDROOT
BRANCH   8  10
HETATM   10  N4  UNL     1      26.573   3.254  51.478  1.00  0.00    -0.374 N 
HETATM   11  H13 UNL     1      26.356   4.238  51.719  1.00  0.00     0.161 HD
BRANCH  10  12
HETATM   12  C11 UNL     1      26.564   3.053  50.042  1.00  0.00     0.126 C 
BRANCH  12  13
HETATM   13  C12 UNL     1      25.767   4.056  49.279  1.00  0.00     0.058 C 
BRANCH  13  14
HETATM   14  C13 UNL     1      26.615   5.191  48.900  1.00  0.00    -0.057 A 
HETATM   15  C14 UNL     1      26.241   6.520  48.857  1.00  0.00     0.007 A 
HETATM   16  C15 UNL     1      27.177   7.471  48.472  1.00  0.00     0.001 A 
HETATM   17  C16 UNL     1      28.460   7.102  48.139  1.00  0.00     0.000 A 
HETATM   18  C17 UNL     1      28.853   5.759  48.179  1.00  0.00     0.001 A 
HETATM   19  C18 UNL     1      27.907   4.820  48.564  1.00  0.00     0.007 A 
ENDBRANCH  13  14
ENDBRANCH  12  13
ENDBRANCH  10  12
ENDBRANCH   8  10
BRANCH   1  20
HETATM   20  O2  UNL     1      23.938   2.189  51.736  1.00  0.00    -0.348 OA
BRANCH  20  21
HETATM   21  C5  UNL     1      22.981   3.117  51.723  1.00  0.00     0.195 C 
BRANCH  21  22
HETATM   22  C4  UNL     1      21.807   3.052  50.824  1.00  0.00     0.152 C 
BRANCH  22  23
HETATM   23  N1  UNL     1      21.014   1.891  50.762  1.00  0.00    -0.355 N 
HETATM   24  C2  UNL     1      19.923   1.598  51.666  1.00  0.00     0.215 C 
HETATM   25  C1  UNL     1      19.129   0.356  51.543  1.00  0.00     0.117 C 
HETATM   26  O1  UNL     1      19.549   2.318  52.599  1.00  0.00    -0.274 OA
HETATM   27  C3  UNL     1      21.294   0.894  49.717  1.00  0.00     0.152 C 
ENDBRANCH  22  23
ENDBRANCH  21  22
ENDBRANCH  20  21
ENDBRANCH   1  20
TORSDOF 8
ENDMDL
MODEL 7
REMARK VINA RESULT:      -7.3      2.789      6.820
REMARK  8 active torsions:
REMARK  status: ('A' for Active; 'I' for Inactive)
REMARK       I    between atoms: C2_2  and  N1_4 
REMARK    1  A    between atoms: N1_4  and  C4_6 
REMARK    2  A    between atoms: C4_6  and  C5_7 
REMARK    3  A    between atoms: C5_7  and  O2_8 
REMARK    4  A    between atoms: O2_8  and  C6_9 
REMARK    5  A    between atoms: C10_16  and  N4_17 
REMARK    6  A    between atoms: N4_17  and  C11_18 
REMARK    7  A    between atoms: C11_18  and  C12_19 
REMARK    8  A    between atoms: C12_19  and  C13_20 
ROOT
HETATM    1  C6  UNL     1      24.062   4.535  50.819  1.00  0.00     0.092 A 
HETATM    2  C7  UNL     1      23.190   5.649  50.650  1.00  0.00     0.089 A 
HETATM    3  S1  UNL     1      24.053   6.741  49.535  1.00  0.00    -0.078 SA
HETATM    4  C8  UNL     1      25.524   5.661  49.351  1.00  0.00     0.115 A 
HETATM    5  N2  UNL     1      26.610   5.928  48.594  1.00  0.00    -0.234 NA
HETATM    6  C9  UNL     1      27.588   5.010  48.589  1.00  0.00     0.236 A 
HETATM    7  N3  UNL     1      27.398   3.929  49.325  1.00  0.00    -0.224 NA
HETATM    8  C10 UNL     1      26.317   3.691  50.063  1.00  0.00     0.140 A 
HETATM    9  C19 UNL     1      25.250   4.546  50.155  1.00  0.00     0.079 A 
ENDROOT
BRANCH   8  10
HETATM   10  N4  UNL     1      26.298   2.453  50.797  1.00  0.00    -0.374 N 
HETATM   11  H13 UNL     1      25.797   1.578  50.559  1.00  0.00     0.161 HD
BRANCH  10  12
HETATM   12  C11 UNL     1      27.041   2.310  52.035  1.00  0.00     0.126 C 
BRANCH  12  13
HETATM   13  C12 UNL     1      26.547   1.229  52.934  1.00  0.00     0.058 C 
BRANCH  13  14
HETATM   14  C13 UNL     1      27.572   0.191  53.084  1.00  0.00    -0.057 A 
HETATM   15  C14 UNL     1      28.883   0.378  53.474  1.00  0.00     0.007 A 
HETATM   16  C15 UNL     1      29.724  -0.723  53.563  1.00  0.00     0.001 A 
HETATM   17  C16 UNL     1      29.263  -1.986  53.271  1.00  0.00     0.000 A 
HETATM   18  C17 UNL     1      27.937  -2.192  52.874  1.00  0.00     0.001 A 
HETATM   19  C18 UNL     1      27.109  -1.082  52.788  1.00  0.00     0.007 A 
ENDBRANCH  13  14
ENDBRANCH  12  13
ENDBRANCH  10  12
ENDBRANCH   8  10
BRANCH   1  20
HETATM   20  O2  UNL     1      23.759   3.483  51.596  1.00  0.00    -0.348 OA
BRANCH  20  21
HETATM   21  C5  UNL     1      22.833   2.537  51.746  1.00  0.00     0.195 C 
BRANCH  21  22
HETATM   22  C4  UNL     1      22.979   1.408  52.691  1.00  0.00     0.152 C 
BRANCH  22  23
HETATM   23  N1  UNL     1      21.874   0.599  53.020  1.00  0.00    -0.355 N 
HETATM   24  C2  UNL     1      21.944  -0.581  53.852  1.00  0.00     0.215 C 
HETATM   25  C1  UNL     1      20.741  -1.386  54.159  1.00  0.00     0.117 C 
HETATM   26  O1  UNL     1      22.970  -1.031  54.377  1.00  0.00    -0.274 OA
HETATM   27  C3  UNL     1      20.548   0.960  52.493  1.00  0.00     0.152 C 
ENDBRANCH  22  23
ENDBRANCH  21  22
ENDBRANCH  20  21
ENDBRANCH   1  20
TORSDOF 8
ENDMDL
MODEL 8
REMARK VINA RESULT:      -7.2      2.753      6.151
REMARK  8 active torsions:
REMARK  status: ('A' for Active; 'I' for Inactive)
REMARK       I    between atoms: C2_2  and  N1_4 
REMARK    1  A    between atoms: N1_4  and  C4_6 
REMARK    2  A    between atoms: C4_6  and  C5_7 
REMARK    3  A    between atoms: C5_7  and  O2_8 
REMARK    4  A    between atoms: O2_8  and  C6_9 
REMARK    5  A    between atoms: C10_16  and  N4_17 
REMARK    6  A    between atoms: N4_17  and  C11_18 
REMARK    7  A    between atoms: C11_18  and  C12_19 
REMARK    8  A    between atoms: C12_19  and  C13_20 
ROOT
HETATM    1  C6  UNL     1      25.546   4.555  50.093  1.00  0.00     0.092 A 
HETATM    2  C7  UNL     1      26.436   5.065  49.103  1.00  0.00     0.089 A 
HETATM    3  S1  UNL     1      25.707   6.608  48.584  1.00  0.00    -0.078 SA
HETATM    4  C8  UNL     1      24.262   6.495  49.708  1.00  0.00     0.115 A 
HETATM    5  N2  UNL     1      23.269   7.405  49.811  1.00  0.00    -0.234 NA
HETATM    6  C9  UNL     1      22.295   7.143  50.695  1.00  0.00     0.236 A 
HETATM    7  N3  UNL     1      22.397   6.019  51.383  1.00  0.00    -0.224 NA
HETATM    8  C10 UNL     1      23.388   5.140  51.261  1.00  0.00     0.140 A 
HETATM    9  C19 UNL     1      24.441   5.288  50.398  1.00  0.00     0.079 A 
ENDROOT
BRANCH   8  10
HETATM   10  N4  UNL     1      23.319   3.973  52.102  1.00  0.00    -0.374 N 
HETATM   11  H13 UNL     1      23.938   3.720  52.893  1.00  0.00     0.161 HD
BRANCH  10  12
HETATM   12  C11 UNL     1      22.294   2.967  51.898  1.00  0.00     0.126 C 
BRANCH  12  13
HETATM   13  C12 UNL     1      22.814   1.603  51.600  1.00  0.00     0.058 C 
BRANCH  13  14
HETATM   14  C13 UNL     1      22.575   0.712  52.741  1.00  0.00    -0.057 A 
HETATM   15  C14 UNL     1      23.502  -0.104  53.357  1.00  0.00     0.007 A 
HETATM   16  C15 UNL     1      23.102  -0.887  54.431  1.00  0.00     0.001 A 
HETATM   17  C16 UNL     1      21.802  -0.855  54.880  1.00  0.00     0.000 A 
HETATM   18  C17 UNL     1      20.851  -0.033  54.265  1.00  0.00     0.001 A 
HETATM   19  C18 UNL     1      21.264   0.744  53.193  1.00  0.00     0.007 A 
ENDBRANCH  13  14
ENDBRANCH  12  13
ENDBRANCH  10  12
ENDBRANCH   8  10
BRANCH   1  20
HETATM   20  O2  UNL     1      25.757   3.395  50.733  1.00  0.00    -0.348 OA
BRANCH  20  21
HETATM   21  C5  UNL     1      26.709   2.489  50.953  1.00  0.00     0.195 C 
BRANCH  21  22
HETATM   22  C4  UNL     1      26.558   1.378  51.919  1.00  0.00     0.152 C 
BRANCH  22  23
HETATM   23  N1  UNL     1      27.456   1.234  52.994  1.00  0.00    -0.355 N 
HETATM   24  C2  UNL     1      27.598   0.032  53.785  1.00  0.00     0.215 C 
HETATM   25  C1  UNL     1      28.564  -0.050  54.902  1.00  0.00     0.117 C 
HETATM   26  O1  UNL     1      26.958  -1.014  53.626  1.00  0.00    -0.274 OA
HETATM   27  C3  UNL     1      28.319   2.370  53.355  1.00  0.00     0.152 C 
ENDBRANCH  22  23
ENDBRANCH  21  22
ENDBRANCH  20  21
ENDBRANCH   1  20
TORSDOF 8
ENDMDL
MODEL 9
REMARK VINA RESULT:      -7.1      2.913      5.677
REMARK  8 active torsions:
REMARK  status: ('A' for Active; 'I' for Inactive)
REMARK       I    between atoms: C2_2  and  N1_4 
REMARK    1  A    between atoms: N1_4  and  C4_6 
REMARK    2  A    between atoms: C4_6  and  C5_7 
REMARK    3  A    between atoms: C5_7  and  O2_8 
REMARK    4  A    between atoms: O2_8  and  C6_9 
REMARK    5  A    between atoms: C10_16  and  N4_17 
REMARK    6  A    between atoms: N4_17  and  C11_18 
REMARK    7  A    between atoms: C11_18  and  C12_19 
REMARK    8  A    between atoms: C12_19  and  C13_20 
ROOT
HETATM    1  C6  UNL     1      21.178   0.825  50.678  1.00  0.00     0.092 A 
HETATM    2  C7  UNL     1      19.822   0.776  50.243  1.00  0.00     0.089 A 
HETATM    3  S1  UNL     1      18.900   0.246  51.675  1.00  0.00    -0.078 SA
HETATM    4  C8  UNL     1      20.363   0.118  52.774  1.00  0.00     0.115 A 
HETATM    5  N2  UNL     1      20.345  -0.257  54.072  1.00  0.00    -0.234 NA
HETATM    6  C9  UNL     1      21.523  -0.289  54.711  1.00  0.00     0.236 A 
HETATM    7  N3  UNL     1      22.594   0.049  54.013  1.00  0.00    -0.224 NA
HETATM    8  C10 UNL     1      22.582   0.415  52.734  1.00  0.00     0.140 A 
HETATM    9  C19 UNL     1      21.448   0.489  51.968  1.00  0.00     0.079 A 
ENDROOT
BRANCH   8  10
HETATM   10  N4  UNL     1      23.855   0.746  52.148  1.00  0.00    -0.374 N 
HETATM   11  H13 UNL     1      24.049   1.057  51.180  1.00  0.00     0.161 HD
BRANCH  10  12
HETATM   12  C11 UNL     1      25.076   0.666  52.927  1.00  0.00     0.126 C 
BRANCH  12  13
HETATM   13  C12 UNL     1      25.639  -0.708  53.060  1.00  0.00     0.058 C 
BRANCH  13  14
HETATM   14  C13 UNL     1      27.090  -0.640  53.268  1.00  0.00    -0.057 A 
HETATM   15  C14 UNL     1      28.010  -1.628  52.980  1.00  0.00     0.007 A 
HETATM   16  C15 UNL     1      29.353  -1.395  53.243  1.00  0.00     0.001 A 
HETATM   17  C16 UNL     1      29.768  -0.199  53.782  1.00  0.00     0.000 A 
HETATM   18  C17 UNL     1      28.847   0.812  54.079  1.00  0.00     0.001 A 
HETATM   19  C18 UNL     1      27.508   0.565  53.812  1.00  0.00     0.007 A 
ENDBRANCH  13  14
ENDBRANCH  12  13
ENDBRANCH  10  12
ENDBRANCH   8  10
BRANCH   1  20
HETATM   20  O2  UNL     1      22.189   1.190  49.874  1.00  0.00    -0.348 OA
BRANCH  20  21
HETATM   21  C5  UNL     1      22.598   2.209  49.120  1.00  0.00     0.195 C 
BRANCH  21  22
HETATM   22  C4  UNL     1      22.280   3.621  49.430  1.00  0.00     0.152 C 
BRANCH  22  23
HETATM   23  N1  UNL     1      22.310   4.088  50.758  1.00  0.00    -0.355 N 
HETATM   24  C2  UNL     1      23.502   4.153  51.574  1.00  0.00     0.215 C 
HETATM   25  C1  UNL     1      23.463   4.657  52.965  1.00  0.00     0.117 C 
HETATM   26  O1  UNL     1      24.637   3.811  51.219  1.00  0.00    -0.274 OA
HETATM   27  C3  UNL     1      21.057   4.546  51.378  1.00  0.00     0.152 C 
ENDBRANCH  22  23
ENDBRANCH  21  22
ENDBRANCH  20  21
ENDBRANCH   1  20
TORSDOF 8
ENDMDL
