MODEL 1
REMARK VINA RESULT:      -7.9      0.000      0.000
REMARK  3 active torsions:
REMARK  status: ('A' for Active; 'I' for Inactive)
REMARK    1  A    between atoms: C2_2  and  O1_3 
REMARK    2  A    between atoms: O1_3  and  C3_4 
REMARK    3  A    between atoms: C5_7  and  C6_8 
ROOT
HETATM    1  C3  UNL     1      21.627   1.004  52.365  1.00  0.00     0.244 C 
HETATM    2  C4  UNL     1      21.351   2.494  52.333  1.00  0.00     0.225 C 
HETATM    3  O2  UNL     1      22.434   3.239  52.085  1.00  0.00    -0.345 OA
HETATM    4  C5  UNL     1      23.084   3.216  50.894  1.00  0.00     0.216 A 
HETATM    5  O3  UNL     1      23.202   4.580  50.526  1.00  0.00    -0.320 OA
HETATM    6  C9  UNL     1      24.375   5.151  50.176  1.00  0.00     0.139 A 
HETATM    7  C10 UNL     1      25.559   4.566  50.178  1.00  0.00     0.026 A 
HETATM    8  C11 UNL     1      25.522   3.149  50.609  1.00  0.00     0.032 A 
HETATM    9  C12 UNL     1      24.378   2.501  50.958  1.00  0.00     0.074 A 
HETATM   10  N1  UNL     1      25.034   1.251  51.302  1.00  0.00    -0.339 N 
HETATM   11  C13 UNL     1      25.511   0.993  52.618  1.00  0.00     0.141 A 
HETATM   12  N2  UNL     1      26.580   1.793  52.536  1.00  0.00    -0.224 NA
HETATM   13  C14 UNL     1      27.550   1.999  53.444  1.00  0.00     0.234 A 
HETATM   14  N3  UNL     1      27.484   1.331  54.612  1.00  0.00    -0.253 NA
HETATM   15  C15 UNL     1      26.419   0.516  54.732  1.00  0.00     0.133 A 
HETATM   16  C16 UNL     1      25.420   0.285  53.840  1.00  0.00     0.029 A 
HETATM   17  C17 UNL     1      24.404  -0.671  54.266  1.00  0.00     0.041 C 
HETATM   18  C18 UNL     1      23.089  -0.464  54.077  1.00  0.00     0.004 C 
HETATM   19  C19 UNL     1      22.175  -1.497  54.550  1.00  0.00     0.068 C 
HETATM   20  N4  UNL     1      22.493   0.645  53.462  1.00  0.00    -0.366 N 
HETATM   21  H17 UNL     1      25.139   0.624  50.493  1.00  0.00     0.167 HD
HETATM   22  H24 UNL     1      22.946   1.305  54.150  1.00  0.00     0.162 HD
ENDROOT
BRANCH   1  23
HETATM   23  O1  UNL     1      20.536   0.231  52.245  1.00  0.00    -0.365 OA
BRANCH  23  24
HETATM   24  C2  UNL     1      19.602   0.555  51.306  1.00  0.00     0.166 C 
HETATM   25  C1  UNL     1      18.339  -0.213  51.538  1.00  0.00     0.033 C 
ENDBRANCH  23  24
ENDBRANCH   1  23
BRANCH   4  26
HETATM   26  C6  UNL     1      22.293   2.612  49.726  1.00  0.00     0.055 A 
HETATM   27  C7  UNL     1      21.667   3.474  48.709  1.00  0.00     0.011 A 
HETATM   28  C8  UNL     1      22.944   2.831  48.319  1.00  0.00     0.011 A 
ENDBRANCH   4  26
TORSDOF 3
ENDMDL
MODEL 2
REMARK VINA RESULT:      -7.7      2.111      4.421
REMARK  3 active torsions:
REMARK  status: ('A' for Active; 'I' for Inactive)
REMARK    1  A    between atoms: C2_2  and  O1_3 
REMARK    2  A    between atoms: O1_3  and  C3_4 
REMARK    3  A    between atoms: C5_7  and  C6_8 
ROOT
HETATM    1  C3  UNL     1      22.235   4.010  51.175  1.00  0.00     0.244 C 
HETATM    2  C4  UNL     1      23.444   4.650  51.826  1.00  0.00     0.225 C 
HETATM    3  O2  UNL     1      24.284   3.773  52.386  1.00  0.00    -0.345 OA
HETATM    4  C5  UNL     1      25.002   2.878  51.662  1.00  0.00     0.216 A 
HETATM    5  O3  UNL     1      26.335   3.038  52.119  1.00  0.00    -0.320 OA
HETATM    6  C9  UNL     1      27.098   2.006  52.540  1.00  0.00     0.139 A 
HETATM    7  C10 UNL     1      26.720   0.746  52.643  1.00  0.00     0.026 A 
HETATM    8  C11 UNL     1      25.315   0.511  52.235  1.00  0.00     0.032 A 
HETATM    9  C12 UNL     1      24.491   1.495  51.783  1.00  0.00     0.074 A 
HETATM   10  N1  UNL     1      23.330   0.635  51.631  1.00  0.00    -0.339 N 
HETATM   11  C13 UNL     1      22.405   0.430  52.693  1.00  0.00     0.141 A 
HETATM   12  N2  UNL     1      23.193  -0.381  53.407  1.00  0.00    -0.224 NA
HETATM   13  C14 UNL     1      22.920  -1.022  54.557  1.00  0.00     0.234 A 
HETATM   14  N3  UNL     1      21.701  -0.860  55.106  1.00  0.00    -0.253 NA
HETATM   15  C15 UNL     1      20.879  -0.048  54.415  1.00  0.00     0.133 A 
HETATM   16  C16 UNL     1      21.119   0.617  53.254  1.00  0.00     0.029 A 
HETATM   17  C17 UNL     1      20.011   1.418  52.747  1.00  0.00     0.041 C 
HETATM   18  C18 UNL     1      20.178   2.660  52.257  1.00  0.00     0.004 C 
HETATM   19  C19 UNL     1      18.989   3.357  51.782  1.00  0.00     0.068 C 
HETATM   20  N4  UNL     1      21.385   3.363  52.145  1.00  0.00    -0.366 N 
HETATM   21  H17 UNL     1      23.291   0.183  50.707  1.00  0.00     0.167 HD
HETATM   22  H24 UNL     1      21.566   3.273  53.181  1.00  0.00     0.162 HD
ENDROOT
BRANCH   1  23
HETATM   23  O1  UNL     1      21.582   4.801  50.307  1.00  0.00    -0.365 OA
BRANCH  23  24
HETATM   24  C2  UNL     1      22.308   5.561  49.439  1.00  0.00     0.166 C 
HETATM   25  C1  UNL     1      22.479   4.844  48.137  1.00  0.00     0.033 C 
ENDBRANCH  23  24
ENDBRANCH   1  23
BRANCH   4  26
HETATM   26  C6  UNL     1      25.114   3.187  50.162  1.00  0.00     0.055 A 
HETATM   27  C7  UNL     1      26.031   4.228  49.670  1.00  0.00     0.011 A 
HETATM   28  C8  UNL     1      26.500   2.830  49.528  1.00  0.00     0.011 A 
ENDBRANCH   4  26
TORSDOF 3
ENDMDL
MODEL 3
REMARK VINA RESULT:      -7.6      1.787      4.835
REMARK  3 active torsions:
REMARK  status: ('A' for Active; 'I' for Inactive)
REMARK    1  A    between atoms: C2_2  and  O1_3 
REMARK    2  A    between atoms: O1_3  and  C3_4 
REMARK    3  A    between atoms: C5_7  and  C6_8 
ROOT
HETATM    1  C3  UNL     1      23.588   3.578  49.345  1.00  0.00     0.244 C 
HETATM    2  C4  UNL     1      22.538   2.663  48.747  1.00  0.00     0.225 C 
HETATM    3  O2  UNL     1      22.149   1.680  49.565  1.00  0.00    -0.345 OA
HETATM    4  C5  UNL     1      21.463   1.909  50.714  1.00  0.00     0.216 A 
HETATM    5  O3  UNL     1      20.348   1.035  50.642  1.00  0.00    -0.320 OA
HETATM    6  C9  UNL     1      20.019   0.178  51.633  1.00  0.00     0.139 A 
HETATM    7  C10 UNL     1      20.690  -0.016  52.753  1.00  0.00     0.026 A 
HETATM    8  C11 UNL     1      21.904   0.825  52.872  1.00  0.00     0.032 A 
HETATM    9  C12 UNL     1      22.289   1.724  51.926  1.00  0.00     0.074 A 
HETATM   10  N1  UNL     1      23.505   2.125  52.613  1.00  0.00    -0.339 N 
HETATM   11  C13 UNL     1      24.743   1.457  52.397  1.00  0.00     0.141 A 
HETATM   12  N2  UNL     1      24.435   0.365  53.105  1.00  0.00    -0.224 NA
HETATM   13  C14 UNL     1      25.202  -0.705  53.380  1.00  0.00     0.234 A 
HETATM   14  N3  UNL     1      26.461  -0.729  52.902  1.00  0.00    -0.253 NA
HETATM   15  C15 UNL     1      26.807   0.355  52.182  1.00  0.00     0.133 A 
HETATM   16  C16 UNL     1      26.062   1.451  51.881  1.00  0.00     0.029 A 
HETATM   17  C17 UNL     1      26.732   2.469  51.082  1.00  0.00     0.041 C 
HETATM   18  C18 UNL     1      26.136   3.089  50.048  1.00  0.00     0.004 C 
HETATM   19  C19 UNL     1      26.916   4.088  49.328  1.00  0.00     0.068 C 
HETATM   20  N4  UNL     1      24.829   2.882  49.586  1.00  0.00    -0.366 N 
HETATM   21  H17 UNL     1      23.349   2.895  53.277  1.00  0.00     0.167 HD
HETATM   22  H24 UNL     1      25.015   1.855  49.432  1.00  0.00     0.162 HD
ENDROOT
BRANCH   1  23
HETATM   23  O1  UNL     1      23.727   4.757  48.716  1.00  0.00    -0.365 OA
BRANCH  23  24
HETATM   24  C2  UNL     1      23.216   5.877  49.300  1.00  0.00     0.166 C 
HETATM   25  C1  UNL     1      23.910   6.153  50.596  1.00  0.00     0.033 C 
ENDBRANCH  23  24
ENDBRANCH   1  23
BRANCH   4  26
HETATM   26  C6  UNL     1      20.807   3.293  50.822  1.00  0.00     0.055 A 
HETATM   27  C7  UNL     1      19.803   3.577  51.860  1.00  0.00     0.011 A 
HETATM   28  C8  UNL     1      21.170   4.083  52.124  1.00  0.00     0.011 A 
ENDBRANCH   4  26
TORSDOF 3
ENDMDL
MODEL 4
REMARK VINA RESULT:      -7.3      1.988      4.515
REMARK  3 active torsions:
REMARK  status: ('A' for Active; 'I' for Inactive)
REMARK    1  A    between atoms: C2_2  and  O1_3 
REMARK    2  A    between atoms: O1_3  and  C3_4 
REMARK    3  A    between atoms: C5_7  and  C6_8 
ROOT
HETATM    1  C3  UNL     1      22.284  -0.060  53.076  1.00  0.00     0.244 C 
HETATM    2  C4  UNL     1      21.158   0.683  53.765  1.00  0.00     0.225 C 
HETATM    3  O2  UNL     1      20.714   1.745  53.084  1.00  0.00    -0.345 OA
HETATM    4  C5  UNL     1      20.071   1.636  51.894  1.00  0.00     0.216 A 
HETATM    5  O3  UNL     1      18.893   2.411  52.055  1.00  0.00    -0.320 OA
HETATM    6  C9  UNL     1      18.522   3.377  51.187  1.00  0.00     0.139 A 
HETATM    7  C10 UNL     1      19.200   3.776  50.127  1.00  0.00     0.026 A 
HETATM    8  C11 UNL     1      20.475   3.048  49.927  1.00  0.00     0.032 A 
HETATM    9  C12 UNL     1      20.905   2.051  50.746  1.00  0.00     0.074 A 
HETATM   10  N1  UNL     1      22.162   1.840  50.047  1.00  0.00    -0.339 N 
HETATM   11  C13 UNL     1      23.342   2.554  50.394  1.00  0.00     0.141 A 
HETATM   12  N2  UNL     1      22.970   3.713  49.840  1.00  0.00    -0.224 NA
HETATM   13  C14 UNL     1      23.661   4.862  49.743  1.00  0.00     0.234 A 
HETATM   14  N3  UNL     1      24.905   4.904  50.258  1.00  0.00    -0.253 NA
HETATM   15  C15 UNL     1      25.315   3.755  50.827  1.00  0.00     0.133 A 
HETATM   16  C16 UNL     1      24.646   2.578  50.945  1.00  0.00     0.029 A 
HETATM   17  C17 UNL     1      25.373   1.504  51.612  1.00  0.00     0.041 C 
HETATM   18  C18 UNL     1      24.803   0.702  52.528  1.00  0.00     0.004 C 
HETATM   19  C19 UNL     1      25.639  -0.334  53.123  1.00  0.00     0.068 C 
HETATM   20  N4  UNL     1      23.476   0.748  52.975  1.00  0.00    -0.366 N 
HETATM   21  H17 UNL     1      22.076   1.164  49.275  1.00  0.00     0.167 HD
HETATM   22  H24 UNL     1      23.583   1.752  53.279  1.00  0.00     0.162 HD
ENDROOT
BRANCH   1  23
HETATM   23  O1  UNL     1      22.496  -1.305  53.535  1.00  0.00    -0.365 OA
BRANCH  23  24
HETATM   24  C2  UNL     1      22.126  -1.605  54.812  1.00  0.00     0.166 C 
HETATM   25  C1  UNL     1      23.324  -1.643  55.707  1.00  0.00     0.033 C 
ENDBRANCH  23  24
ENDBRANCH   1  23
BRANCH   4  26
HETATM   26  C6  UNL     1      19.521   0.240  51.570  1.00  0.00     0.055 A 
HETATM   27  C7  UNL     1      18.165  -0.156  51.985  1.00  0.00     0.011 A 
HETATM   28  C8  UNL     1      18.321   0.232  50.564  1.00  0.00     0.011 A 
ENDBRANCH   4  26
TORSDOF 3
ENDMDL
MODEL 5
REMARK VINA RESULT:      -7.3      2.036      4.947
REMARK  3 active torsions:
REMARK  status: ('A' for Active; 'I' for Inactive)
REMARK    1  A    between atoms: C2_2  and  O1_3 
REMARK    2  A    between atoms: O1_3  and  C3_4 
REMARK    3  A    between atoms: C5_7  and  C6_8 
ROOT
HETATM    1  C3  UNL     1      20.671   2.382  50.306  1.00  0.00     0.244 C 
HETATM    2  C4  UNL     1      20.731   0.868  50.334  1.00  0.00     0.225 C 
HETATM    3  O2  UNL     1      21.824   0.381  50.932  1.00  0.00    -0.345 OA
HETATM    4  C5  UNL     1      22.063   0.532  52.259  1.00  0.00     0.216 A 
HETATM    5  O3  UNL     1      22.359  -0.777  52.718  1.00  0.00    -0.320 OA
HETATM    6  C9  UNL     1      23.467  -1.075  53.431  1.00  0.00     0.139 A 
HETATM    7  C10 UNL     1      24.438  -0.240  53.750  1.00  0.00     0.026 A 
HETATM    8  C11 UNL     1      24.224   1.139  53.252  1.00  0.00     0.032 A 
HETATM    9  C12 UNL     1      23.126   1.519  52.545  1.00  0.00     0.074 A 
HETATM   10  N1  UNL     1      23.567   2.890  52.345  1.00  0.00    -0.339 N 
HETATM   11  C13 UNL     1      24.349   3.268  51.219  1.00  0.00     0.141 A 
HETATM   12  N2  UNL     1      25.491   2.728  51.657  1.00  0.00    -0.224 NA
HETATM   13  C14 UNL     1      26.711   2.759  51.091  1.00  0.00     0.234 A 
HETATM   14  N3  UNL     1      26.856   3.412  49.922  1.00  0.00    -0.253 NA
HETATM   15  C15 UNL     1      25.725   3.969  49.447  1.00  0.00     0.133 A 
HETATM   16  C16 UNL     1      24.479   3.957  49.989  1.00  0.00     0.029 A 
HETATM   17  C17 UNL     1      23.456   4.667  49.230  1.00  0.00     0.041 C 
HETATM   18  C18 UNL     1      22.223   4.167  49.030  1.00  0.00     0.004 C 
HETATM   19  C19 UNL     1      21.292   4.976  48.252  1.00  0.00     0.068 C 
HETATM   20  N4  UNL     1      21.727   2.943  49.498  1.00  0.00    -0.366 N 
HETATM   21  H17 UNL     1      23.283   3.512  53.114  1.00  0.00     0.167 HD
HETATM   22  H24 UNL     1      22.499   2.412  49.012  1.00  0.00     0.162 HD
ENDROOT
BRANCH   1  23
HETATM   23  O1  UNL     1      19.453   2.889  50.055  1.00  0.00    -0.365 OA
BRANCH  23  24
HETATM   24  C2  UNL     1      18.768   3.485  51.071  1.00  0.00     0.166 C 
HETATM   25  C1  UNL     1      17.597   2.646  51.474  1.00  0.00     0.033 C 
ENDBRANCH  23  24
ENDBRANCH   1  23
BRANCH   4  26
HETATM   26  C6  UNL     1      20.844   0.924  53.106  1.00  0.00     0.055 A 
HETATM   27  C7  UNL     1      19.884  -0.092  53.569  1.00  0.00     0.011 A 
HETATM   28  C8  UNL     1      20.868   0.376  54.572  1.00  0.00     0.011 A 
ENDBRANCH   4  26
TORSDOF 3
ENDMDL
MODEL 6
REMARK VINA RESULT:      -7.2      1.100      1.232
REMARK  3 active torsions:
REMARK  status: ('A' for Active; 'I' for Inactive)
REMARK    1  A    between atoms: C2_2  and  O1_3 
REMARK    2  A    between atoms: O1_3  and  C3_4 
REMARK    3  A    between atoms: C5_7  and  C6_8 
ROOT
HETATM    1  C3  UNL     1      20.636   1.339  52.609  1.00  0.00     0.244 C 
HETATM    2  C4  UNL     1      20.418   2.837  52.689  1.00  0.00     0.225 C 
HETATM    3  O2  UNL     1      21.448   3.558  52.235  1.00  0.00    -0.345 OA
HETATM    4  C5  UNL     1      21.821   3.565  50.931  1.00  0.00     0.216 A 
HETATM    5  O3  UNL     1      21.909   4.940  50.593  1.00  0.00    -0.320 OA
HETATM    6  C9  UNL     1      22.998   5.489  50.013  1.00  0.00     0.139 A 
HETATM    7  C10 UNL     1      24.130   4.869  49.735  1.00  0.00     0.026 A 
HETATM    8  C11 UNL     1      24.133   3.437  50.114  1.00  0.00     0.032 A 
HETATM    9  C12 UNL     1      23.069   2.810  50.684  1.00  0.00     0.074 A 
HETATM   10  N1  UNL     1      23.736   1.527  50.833  1.00  0.00    -0.339 N 
HETATM   11  C13 UNL     1      24.478   1.200  52.001  1.00  0.00     0.141 A 
HETATM   12  N2  UNL     1      25.533   1.970  51.714  1.00  0.00    -0.224 NA
HETATM   13  C14 UNL     1      26.686   2.107  52.394  1.00  0.00     0.234 A 
HETATM   14  N3  UNL     1      26.850   1.394  53.524  1.00  0.00    -0.253 NA
HETATM   15  C15 UNL     1      25.806   0.607  53.847  1.00  0.00     0.133 A 
HETATM   16  C16 UNL     1      24.628   0.443  53.189  1.00  0.00     0.029 A 
HETATM   17  C17 UNL     1      23.694  -0.498  53.794  1.00  0.00     0.041 C 
HETATM   18  C18 UNL     1      22.378  -0.244  53.906  1.00  0.00     0.004 C 
HETATM   19  C19 UNL     1      21.551  -1.267  54.533  1.00  0.00     0.068 C 
HETATM   20  N4  UNL     1      21.706   0.908  53.476  1.00  0.00    -0.366 N 
HETATM   21  H17 UNL     1      23.637   0.931  49.999  1.00  0.00     0.167 HD
HETATM   22  H24 UNL     1      22.323   1.525  54.069  1.00  0.00     0.162 HD
ENDROOT
BRANCH   1  23
HETATM   23  O1  UNL     1      19.515   0.605  52.705  1.00  0.00    -0.365 OA
BRANCH  23  24
HETATM   24  C2  UNL     1      19.026   0.005  51.583  1.00  0.00     0.166 C 
HETATM   25  C1  UNL     1      17.646  -0.517  51.830  1.00  0.00     0.033 C 
ENDBRANCH  23  24
ENDBRANCH   1  23
BRANCH   4  26
HETATM   26  C6  UNL     1      20.771   3.035  49.945  1.00  0.00     0.055 A 
HETATM   27  C7  UNL     1      20.991   3.109  48.491  1.00  0.00     0.011 A 
HETATM   28  C8  UNL     1      21.228   1.788  49.116  1.00  0.00     0.011 A 
ENDBRANCH   4  26
TORSDOF 3
ENDMDL
MODEL 7
REMARK VINA RESULT:      -7.2      1.985      5.173
REMARK  3 active torsions:
REMARK  status: ('A' for Active; 'I' for Inactive)
REMARK    1  A    between atoms: C2_2  and  O1_3 
REMARK    2  A    between atoms: O1_3  and  C3_4 
REMARK    3  A    between atoms: C5_7  and  C6_8 
ROOT
HETATM    1  C3  UNL     1      24.047   1.149  53.042  1.00  0.00     0.244 C 
HETATM    2  C4  UNL     1      24.417   1.297  51.580  1.00  0.00     0.225 C 
HETATM    3  O2  UNL     1      23.407   1.708  50.806  1.00  0.00    -0.345 OA
HETATM    4  C5  UNL     1      22.855   2.943  50.913  1.00  0.00     0.216 A 
HETATM    5  O3  UNL     1      22.852   3.447  49.587  1.00  0.00    -0.320 OA
HETATM    6  C9  UNL     1      21.749   3.950  48.991  1.00  0.00     0.139 A 
HETATM    7  C10 UNL     1      20.535   3.996  49.508  1.00  0.00     0.026 A 
HETATM    8  C11 UNL     1      20.449   3.431  50.875  1.00  0.00     0.032 A 
HETATM    9  C12 UNL     1      21.519   2.925  51.546  1.00  0.00     0.074 A 
HETATM   10  N1  UNL     1      20.760   2.522  52.719  1.00  0.00    -0.339 N 
HETATM   11  C13 UNL     1      20.163   1.235  52.819  1.00  0.00     0.141 A 
HETATM   12  N2  UNL     1      19.156   1.484  51.975  1.00  0.00    -0.224 NA
HETATM   13  C14 UNL     1      18.130   0.687  51.628  1.00  0.00     0.234 A 
HETATM   14  N3  UNL     1      18.059  -0.540  52.179  1.00  0.00    -0.253 NA
HETATM   15  C15 UNL     1      19.058  -0.829  53.034  1.00  0.00     0.133 A 
HETATM   16  C16 UNL     1      20.110  -0.052  53.407  1.00  0.00     0.029 A 
HETATM   17  C17 UNL     1      21.026  -0.653  54.368  1.00  0.00     0.041 C 
HETATM   18  C18 UNL     1      22.363  -0.560  54.253  1.00  0.00     0.004 C 
HETATM   19  C19 UNL     1      23.170  -1.207  55.281  1.00  0.00     0.068 C 
HETATM   20  N4  UNL     1      23.075   0.102  53.244  1.00  0.00    -0.366 N 
HETATM   21  H17 UNL     1      20.682   3.275  53.417  1.00  0.00     0.167 HD
HETATM   22  H24 UNL     1      22.609  -0.478  52.495  1.00  0.00     0.162 HD
ENDROOT
BRANCH   1  23
HETATM   23  O1  UNL     1      25.095   1.101  53.882  1.00  0.00    -0.365 OA
BRANCH  23  24
HETATM   24  C2  UNL     1      26.138   0.276  53.582  1.00  0.00     0.166 C 
HETATM   25  C1  UNL     1      27.115   0.238  54.715  1.00  0.00     0.033 C 
ENDBRANCH  23  24
ENDBRANCH   1  23
BRANCH   4  26
HETATM   26  C6  UNL     1      23.700   3.976  51.671  1.00  0.00     0.055 A 
HETATM   27  C7  UNL     1      24.195   5.189  51.000  1.00  0.00     0.011 A 
HETATM   28  C8  UNL     1      23.006   5.366  51.865  1.00  0.00     0.011 A 
ENDBRANCH   4  26
TORSDOF 3
ENDMDL
MODEL 8
REMARK VINA RESULT:      -6.9      2.396      5.087
REMARK  3 active torsions:
REMARK  status: ('A' for Active; 'I' for Inactive)
REMARK    1  A    between atoms: C2_2  and  O1_3 
REMARK    2  A    between atoms: O1_3  and  C3_4 
REMARK    3  A    between atoms: C5_7  and  C6_8 
ROOT
HETATM    1  C3  UNL     1      20.735   3.863  49.893  1.00  0.00     0.244 C 
HETATM    2  C4  UNL     1      21.470   4.712  50.911  1.00  0.00     0.225 C 
HETATM    3  O2  UNL     1      22.144   4.003  51.821  1.00  0.00    -0.345 OA
HETATM    4  C5  UNL     1      23.221   3.240  51.507  1.00  0.00     0.216 A 
HETATM    5  O3  UNL     1      24.220   3.636  52.433  1.00  0.00    -0.320 OA
HETATM    6  C9  UNL     1      24.906   2.759  53.198  1.00  0.00     0.139 A 
HETATM    7  C10 UNL     1      24.720   1.453  53.245  1.00  0.00     0.026 A 
HETATM    8  C11 UNL     1      23.648   0.972  52.344  1.00  0.00     0.032 A 
HETATM    9  C12 UNL     1      22.928   1.790  51.530  1.00  0.00     0.074 A 
HETATM   10  N1  UNL     1      22.073   0.738  51.007  1.00  0.00    -0.339 N 
HETATM   11  C13 UNL     1      20.848   0.386  51.638  1.00  0.00     0.141 A 
HETATM   12  N2  UNL     1      21.404  -0.266  52.665  1.00  0.00    -0.224 NA
HETATM   13  C14 UNL     1      20.802  -0.933  53.666  1.00  0.00     0.234 A 
HETATM   14  N3  UNL     1      19.456  -0.981  53.682  1.00  0.00    -0.253 NA
HETATM   15  C15 UNL     1      18.859  -0.334  52.663  1.00  0.00     0.133 A 
HETATM   16  C16 UNL     1      19.432   0.350  51.638  1.00  0.00     0.029 A 
HETATM   17  C17 UNL     1      18.506   0.939  50.678  1.00  0.00     0.041 C 
HETATM   18  C18 UNL     1      18.657   2.185  50.194  1.00  0.00     0.004 C 
HETATM   19  C19 UNL     1      17.660   2.657  49.241  1.00  0.00     0.068 C 
HETATM   20  N4  UNL     1      19.682   3.088  50.505  1.00  0.00    -0.366 N 
HETATM   21  H17 UNL     1      22.476   0.275  50.180  1.00  0.00     0.167 HD
HETATM   22  H24 UNL     1      19.449   3.043  51.533  1.00  0.00     0.162 HD
ENDROOT
BRANCH   1  23
HETATM   23  O1  UNL     1      20.365   4.518  48.780  1.00  0.00    -0.365 OA
BRANCH  23  24
HETATM   24  C2  UNL     1      21.129   4.390  47.659  1.00  0.00     0.166 C 
HETATM   25  C1  UNL     1      21.477   2.954  47.426  1.00  0.00     0.033 C 
ENDBRANCH  23  24
ENDBRANCH   1  23
BRANCH   4  26
HETATM   26  C6  UNL     1      23.870   3.547  50.150  1.00  0.00     0.055 A 
HETATM   27  C7  UNL     1      24.954   4.536  50.034  1.00  0.00     0.011 A 
HETATM   28  C8  UNL     1      25.370   3.115  50.034  1.00  0.00     0.011 A 
ENDBRANCH   4  26
TORSDOF 3
ENDMDL
MODEL 9
REMARK VINA RESULT:      -6.9      2.707      5.335
REMARK  3 active torsions:
REMARK  status: ('A' for Active; 'I' for Inactive)
REMARK    1  A    between atoms: C2_2  and  O1_3 
REMARK    2  A    between atoms: O1_3  and  C3_4 
REMARK    3  A    between atoms: C5_7  and  C6_8 
ROOT
HETATM    1  C3  UNL     1      20.364   1.878  50.160  1.00  0.00     0.244 C 
HETATM    2  C4  UNL     1      21.533   0.956  49.877  1.00  0.00     0.225 C 
HETATM    3  O2  UNL     1      22.686   1.362  50.419  1.00  0.00    -0.345 OA
HETATM    4  C5  UNL     1      22.892   1.404  51.760  1.00  0.00     0.216 A 
HETATM    5  O3  UNL     1      24.116   0.714  51.953  1.00  0.00    -0.320 OA
HETATM    6  C9  UNL     1      25.153   1.232  52.647  1.00  0.00     0.139 A 
HETATM    7  C10 UNL     1      25.209   2.436  53.184  1.00  0.00     0.026 A 
HETATM    8  C11 UNL     1      23.982   3.239  52.972  1.00  0.00     0.032 A 
HETATM    9  C12 UNL     1      22.892   2.780  52.301  1.00  0.00     0.074 A 
HETATM   10  N1  UNL     1      22.137   4.017  52.413  1.00  0.00    -0.339 N 
HETATM   11  C13 UNL     1      22.233   5.045  51.434  1.00  0.00     0.141 A 
HETATM   12  N2  UNL     1      23.439   5.483  51.812  1.00  0.00    -0.224 NA
HETATM   13  C14 UNL     1      24.149   6.519  51.331  1.00  0.00     0.234 A 
HETATM   14  N3  UNL     1      23.616   7.249  50.332  1.00  0.00    -0.253 NA
HETATM   15  C15 UNL     1      22.401   6.837  49.923  1.00  0.00     0.133 A 
HETATM   16  C16 UNL     1      21.656   5.797  50.382  1.00  0.00     0.029 A 
HETATM   17  C17 UNL     1      20.364   5.613  49.733  1.00  0.00     0.041 C 
HETATM   18  C18 UNL     1      19.901   4.404  49.368  1.00  0.00     0.004 C 
HETATM   19  C19 UNL     1      18.593   4.355  48.725  1.00  0.00     0.068 C 
HETATM   20  N4  UNL     1      20.543   3.171  49.544  1.00  0.00    -0.366 N 
HETATM   21  H17 UNL     1      21.581   4.064  53.278  1.00  0.00     0.167 HD
HETATM   22  H24 UNL     1      21.386   3.499  49.002  1.00  0.00     0.162 HD
ENDROOT
BRANCH   1  23
HETATM   23  O1  UNL     1      19.156   1.328  49.954  1.00  0.00    -0.365 OA
BRANCH  23  24
HETATM   24  C2  UNL     1      18.291   1.234  51.003  1.00  0.00     0.166 C 
HETATM   25  C1  UNL     1      18.323  -0.145  51.583  1.00  0.00     0.033 C 
ENDBRANCH  23  24
ENDBRANCH   1  23
BRANCH   4  26
HETATM   26  C6  UNL     1      21.902   0.588  52.602  1.00  0.00     0.055 A 
HETATM   27  C7  UNL     1      22.144  -0.836  52.889  1.00  0.00     0.011 A 
HETATM   28  C8  UNL     1      22.464   0.110  53.983  1.00  0.00     0.011 A 
ENDBRANCH   4  26
TORSDOF 3
ENDMDL
