MODEL 1
REMARK VINA RESULT:      -7.4      0.000      0.000
REMARK  6 active torsions:
REMARK  status: ('A' for Active; 'I' for Inactive)
REMARK    1  A    between atoms: C7_7  and  N1_8 
REMARK    2  A    between atoms: N1_8  and  C8_9 
REMARK    3  A    between atoms: C12_15  and  O1_16 
REMARK    4  A    between atoms: O1_16  and  C13_17 
REMARK    5  A    between atoms: C13_17  and  C14_18 
REMARK    6  A    between atoms: C14_18  and  O2_19 
ROOT
HETATM    1  C1  UNL     1      28.713   5.309  48.162  1.00  0.00     0.018 C 
HETATM    2  C2  UNL     1      27.760   6.003  48.442  1.00  0.00    -0.078 C 
HETATM    3  C3  UNL     1      26.646   6.839  48.780  1.00  0.00     0.019 A 
HETATM    4  C4  UNL     1      26.235   7.924  48.039  1.00  0.00     0.021 A 
HETATM    5  C5  UNL     1      25.171   8.742  48.334  1.00  0.00     0.004 A 
HETATM    6  C6  UNL     1      24.448   8.443  49.488  1.00  0.00     0.029 A 
HETATM    7  C7  UNL     1      24.828   7.366  50.258  1.00  0.00     0.034 A 
HETATM    8  C22 UNL     1      25.919   6.546  49.934  1.00  0.00     0.050 A 
ENDROOT
BRANCH   7   9
HETATM    9  N1  UNL     1      24.084   7.044  51.445  1.00  0.00    -0.349 N 
HETATM   10  H5  UNL     1      24.092   7.579  52.368  1.00  0.00     0.167 HD
BRANCH   9  11
HETATM   11  C8  UNL     1      23.228   5.883  51.423  1.00  0.00     0.075 C 
HETATM   12  N2  UNL     1      22.595   5.582  50.438  1.00  0.00    -0.271 NA
HETATM   13  C9  UNL     1      21.809   5.041  49.505  1.00  0.00     0.379 C 
HETATM   14  N3  UNL     1      21.294   3.839  49.163  1.00  0.00    -0.263 NA
HETATM   15  C10 UNL     1      21.639   2.695  50.013  1.00  0.00     0.065 A 
HETATM   16  C11 UNL     1      21.031   1.843  50.800  1.00  0.00     0.071 A 
HETATM   17  C20 UNL     1      23.109   2.688  50.039  1.00  0.00     0.007 A 
HETATM   18  C12 UNL     1      22.118   1.155  51.476  1.00  0.00     0.105 A 
HETATM   19  C16 UNL     1      23.261   1.650  51.041  1.00  0.00     0.110 A 
HETATM   20  O3  UNL     1      24.568   1.304  51.435  1.00  0.00    -0.346 OA
HETATM   21  C17 UNL     1      25.026   1.830  52.701  1.00  0.00     0.202 C 
HETATM   22  C18 UNL     1      24.074   2.887  53.233  1.00  0.00     0.195 C 
HETATM   23  O4  UNL     1      23.988   3.914  52.357  1.00  0.00    -0.382 OA
HETATM   24  C19 UNL     1      23.106   4.930  52.597  1.00  0.00     0.237 C 
HETATM   25  C21 UNL     1      24.083   3.290  49.381  1.00  0.00     0.049 C 
BRANCH  18  26
HETATM   26  O1  UNL     1      21.994   0.149  52.422  1.00  0.00    -0.346 OA
BRANCH  26  27
HETATM   27  C13 UNL     1      20.955   0.036  53.359  1.00  0.00     0.201 C 
BRANCH  27  28
HETATM   28  C14 UNL     1      21.536  -0.453  54.690  1.00  0.00     0.193 C 
BRANCH  28  29
HETATM   29  O2  UNL     1      22.627  -1.252  54.487  1.00  0.00    -0.394 OA
HETATM   30  C15 UNL     1      23.513  -1.328  55.542  1.00  0.00     0.201 C 
ENDBRANCH  28  29
ENDBRANCH  27  28
ENDBRANCH  26  27
ENDBRANCH  18  26
ENDBRANCH   9  11
ENDBRANCH   7   9
TORSDOF 6
ENDMDL
MODEL 2
REMARK VINA RESULT:      -7.2      3.195      6.634
REMARK  6 active torsions:
REMARK  status: ('A' for Active; 'I' for Inactive)
REMARK    1  A    between atoms: C7_7  and  N1_8 
REMARK    2  A    between atoms: N1_8  and  C8_9 
REMARK    3  A    between atoms: C12_15  and  O1_16 
REMARK    4  A    between atoms: O1_16  and  C13_17 
REMARK    5  A    between atoms: C13_17  and  C14_18 
REMARK    6  A    between atoms: C14_18  and  O2_19 
ROOT
HETATM    1  C1  UNL     1      28.703  -1.694  53.102  1.00  0.00     0.018 C 
HETATM    2  C2  UNL     1      27.842  -0.842  53.148  1.00  0.00    -0.078 C 
HETATM    3  C3  UNL     1      26.825   0.165  53.223  1.00  0.00     0.019 A 
HETATM    4  C4  UNL     1      27.069   1.500  53.456  1.00  0.00     0.021 A 
HETATM    5  C5  UNL     1      26.119   2.490  53.531  1.00  0.00     0.004 A 
HETATM    6  C6  UNL     1      24.792   2.102  53.356  1.00  0.00     0.029 A 
HETATM    7  C7  UNL     1      24.504   0.775  53.123  1.00  0.00     0.034 A 
HETATM    8  C22 UNL     1      25.495  -0.216  53.050  1.00  0.00     0.050 A 
ENDROOT
BRANCH   7   9
HETATM    9  N1  UNL     1      23.140   0.366  52.933  1.00  0.00    -0.349 N 
HETATM   10  H5  UNL     1      22.656  -0.472  53.384  1.00  0.00     0.167 HD
BRANCH   9  11
HETATM   11  C8  UNL     1      22.309   1.145  52.047  1.00  0.00     0.075 C 
HETATM   12  N2  UNL     1      21.334   1.735  52.451  1.00  0.00    -0.271 NA
HETATM   13  C9  UNL     1      20.232   2.464  52.635  1.00  0.00     0.379 C 
HETATM   14  N3  UNL     1      19.588   3.515  52.081  1.00  0.00    -0.263 NA
HETATM   15  C10 UNL     1      20.201   4.130  50.899  1.00  0.00     0.065 A 
HETATM   16  C11 UNL     1      19.921   4.308  49.632  1.00  0.00     0.071 A 
HETATM   17  C20 UNL     1      21.565   4.472  51.330  1.00  0.00     0.007 A 
HETATM   18  C12 UNL     1      21.164   4.804  49.066  1.00  0.00     0.105 A 
HETATM   19  C16 UNL     1      22.063   4.877  50.029  1.00  0.00     0.110 A 
HETATM   20  O3  UNL     1      23.409   5.280  49.937  1.00  0.00    -0.346 OA
HETATM   21  C17 UNL     1      24.339   4.320  49.385  1.00  0.00     0.202 C 
HETATM   22  C18 UNL     1      23.700   2.948  49.259  1.00  0.00     0.195 C 
HETATM   23  O4  UNL     1      23.312   2.505  50.476  1.00  0.00    -0.382 OA
HETATM   24  C19 UNL     1      22.624   1.328  50.575  1.00  0.00     0.237 C 
HETATM   25  C21 UNL     1      22.225   4.526  52.473  1.00  0.00     0.049 C 
BRANCH  18  26
HETATM   26  O1  UNL     1      21.387   5.145  47.740  1.00  0.00    -0.346 OA
BRANCH  26  27
HETATM   27  C13 UNL     1      20.866   4.468  46.627  1.00  0.00     0.201 C 
BRANCH  27  28
HETATM   28  C14 UNL     1      22.001   3.714  45.927  1.00  0.00     0.193 C 
BRANCH  28  29
HETATM   29  O2  UNL     1      21.760   3.598  44.585  1.00  0.00    -0.394 OA
HETATM   30  C15 UNL     1      20.869   4.510  44.059  1.00  0.00     0.201 C 
ENDBRANCH  28  29
ENDBRANCH  27  28
ENDBRANCH  26  27
ENDBRANCH  18  26
ENDBRANCH   9  11
ENDBRANCH   7   9
TORSDOF 6
ENDMDL
MODEL 3
REMARK VINA RESULT:      -7.2      3.620      6.121
REMARK  6 active torsions:
REMARK  status: ('A' for Active; 'I' for Inactive)
REMARK    1  A    between atoms: C7_7  and  N1_8 
REMARK    2  A    between atoms: N1_8  and  C8_9 
REMARK    3  A    between atoms: C12_15  and  O1_16 
REMARK    4  A    between atoms: O1_16  and  C13_17 
REMARK    5  A    between atoms: C13_17  and  C14_18 
REMARK    6  A    between atoms: C14_18  and  O2_19 
ROOT
HETATM    1  C1  UNL     1      30.209  -1.713  53.819  1.00  0.00     0.018 C 
HETATM    2  C2  UNL     1      29.370  -0.862  53.612  1.00  0.00    -0.078 C 
HETATM    3  C3  UNL     1      28.375   0.145  53.388  1.00  0.00     0.019 A 
HETATM    4  C4  UNL     1      28.567   1.490  53.608  1.00  0.00     0.021 A 
HETATM    5  C5  UNL     1      27.636   2.479  53.400  1.00  0.00     0.004 A 
HETATM    6  C6  UNL     1      26.388   2.079  52.926  1.00  0.00     0.029 A 
HETATM    7  C7  UNL     1      26.155   0.741  52.694  1.00  0.00     0.034 A 
HETATM    8  C22 UNL     1      27.124  -0.249  52.914  1.00  0.00     0.050 A 
ENDROOT
BRANCH   7   9
HETATM    9  N1  UNL     1      24.874   0.320  52.197  1.00  0.00    -0.349 N 
HETATM   10  H5  UNL     1      24.585  -0.675  51.940  1.00  0.00     0.167 HD
BRANCH   9  11
HETATM   11  C8  UNL     1      23.849   1.317  52.012  1.00  0.00     0.075 C 
HETATM   12  N2  UNL     1      23.812   2.010  51.022  1.00  0.00    -0.271 NA
HETATM   13  C9  UNL     1      23.550   2.885  50.048  1.00  0.00     0.379 C 
HETATM   14  N3  UNL     1      22.503   3.559  49.523  1.00  0.00    -0.263 NA
HETATM   15  C10 UNL     1      21.190   3.340  50.138  1.00  0.00     0.065 A 
HETATM   16  C11 UNL     1      20.287   4.030  50.789  1.00  0.00     0.071 A 
HETATM   17  C20 UNL     1      21.000   1.882  50.088  1.00  0.00     0.007 A 
HETATM   18  C12 UNL     1      19.361   3.022  51.276  1.00  0.00     0.105 A 
HETATM   19  C16 UNL     1      19.785   1.837  50.879  1.00  0.00     0.110 A 
HETATM   20  O3  UNL     1      19.217   0.575  51.139  1.00  0.00    -0.346 OA
HETATM   21  C17 UNL     1      19.443   0.018  52.455  1.00  0.00     0.202 C 
HETATM   22  C18 UNL     1      20.492   0.812  53.213  1.00  0.00     0.195 C 
HETATM   23  O4  UNL     1      21.665   0.790  52.540  1.00  0.00    -0.382 OA
HETATM   24  C19 UNL     1      22.719   1.528  53.002  1.00  0.00     0.237 C 
HETATM   25  C21 UNL     1      21.590   0.858  49.499  1.00  0.00     0.049 C 
BRANCH  18  26
HETATM   26  O1  UNL     1      18.221   3.247  52.033  1.00  0.00    -0.346 OA
BRANCH  26  27
HETATM   27  C13 UNL     1      16.906   3.251  51.542  1.00  0.00     0.201 C 
BRANCH  27  28
HETATM   28  C14 UNL     1      16.123   4.376  52.227  1.00  0.00     0.193 C 
BRANCH  28  29
HETATM   29  O2  UNL     1      15.081   3.876  52.958  1.00  0.00    -0.394 OA
HETATM   30  C15 UNL     1      14.771   2.552  52.726  1.00  0.00     0.201 C 
ENDBRANCH  28  29
ENDBRANCH  27  28
ENDBRANCH  26  27
ENDBRANCH  18  26
ENDBRANCH   9  11
ENDBRANCH   7   9
TORSDOF 6
ENDMDL
MODEL 4
REMARK VINA RESULT:      -7.2      3.612      6.707
REMARK  6 active torsions:
REMARK  status: ('A' for Active; 'I' for Inactive)
REMARK    1  A    between atoms: C7_7  and  N1_8 
REMARK    2  A    between atoms: N1_8  and  C8_9 
REMARK    3  A    between atoms: C12_15  and  O1_16 
REMARK    4  A    between atoms: O1_16  and  C13_17 
REMARK    5  A    between atoms: C13_17  and  C14_18 
REMARK    6  A    between atoms: C14_18  and  O2_19 
ROOT
HETATM    1  C1  UNL     1      28.590  -2.682  52.977  1.00  0.00     0.018 C 
HETATM    2  C2  UNL     1      28.396  -1.499  53.160  1.00  0.00    -0.078 C 
HETATM    3  C3  UNL     1      28.168  -0.104  53.397  1.00  0.00     0.019 A 
HETATM    4  C4  UNL     1      29.164   0.815  53.639  1.00  0.00     0.021 A 
HETATM    5  C5  UNL     1      28.980   2.158  53.866  1.00  0.00     0.004 A 
HETATM    6  C6  UNL     1      27.667   2.624  53.851  1.00  0.00     0.029 A 
HETATM    7  C7  UNL     1      26.641   1.736  53.614  1.00  0.00     0.034 A 
HETATM    8  C22 UNL     1      26.856   0.369  53.383  1.00  0.00     0.050 A 
ENDROOT
BRANCH   7   9
HETATM    9  N1  UNL     1      25.284   2.209  53.587  1.00  0.00    -0.349 N 
HETATM   10  H5  UNL     1      24.811   2.832  54.313  1.00  0.00     0.167 HD
BRANCH   9  11
HETATM   11  C8  UNL     1      24.444   1.818  52.481  1.00  0.00     0.075 C 
HETATM   12  N2  UNL     1      23.541   1.028  52.621  1.00  0.00    -0.271 NA
HETATM   13  C9  UNL     1      22.502   0.197  52.508  1.00  0.00     0.379 C 
HETATM   14  N3  UNL     1      21.408   0.015  51.737  1.00  0.00    -0.263 NA
HETATM   15  C10 UNL     1      21.189   0.972  50.648  1.00  0.00     0.065 A 
HETATM   16  C11 UNL     1      21.135   0.970  49.339  1.00  0.00     0.071 A 
HETATM   17  C20 UNL     1      21.197   2.286  51.308  1.00  0.00     0.007 A 
HETATM   18  C12 UNL     1      21.116   2.380  48.988  1.00  0.00     0.105 A 
HETATM   19  C16 UNL     1      21.160   3.089  50.100  1.00  0.00     0.110 A 
HETATM   20  O3  UNL     1      21.186   4.490  50.241  1.00  0.00    -0.346 OA
HETATM   21  C17 UNL     1      22.449   5.146  49.983  1.00  0.00     0.202 C 
HETATM   22  C18 UNL     1      23.577   4.137  49.866  1.00  0.00     0.195 C 
HETATM   23  O4  UNL     1      23.695   3.438  51.018  1.00  0.00    -0.382 OA
HETATM   24  C19 UNL     1      24.590   2.408  51.090  1.00  0.00     0.237 C 
HETATM   25  C21 UNL     1      21.161   2.736  52.550  1.00  0.00     0.049 C 
BRANCH  18  26
HETATM   26  O1  UNL     1      21.064   2.910  47.708  1.00  0.00    -0.346 OA
BRANCH  26  27
HETATM   27  C13 UNL     1      22.163   3.078  46.851  1.00  0.00     0.201 C 
BRANCH  27  28
HETATM   28  C14 UNL     1      21.836   4.174  45.832  1.00  0.00     0.193 C 
BRANCH  28  29
HETATM   29  O2  UNL     1      21.779   3.665  44.563  1.00  0.00    -0.394 OA
HETATM   30  C15 UNL     1      20.565   3.798  43.922  1.00  0.00     0.201 C 
ENDBRANCH  28  29
ENDBRANCH  27  28
ENDBRANCH  26  27
ENDBRANCH  18  26
ENDBRANCH   9  11
ENDBRANCH   7   9
TORSDOF 6
ENDMDL
MODEL 5
REMARK VINA RESULT:      -7.2      3.139      6.039
REMARK  6 active torsions:
REMARK  status: ('A' for Active; 'I' for Inactive)
REMARK    1  A    between atoms: C7_7  and  N1_8 
REMARK    2  A    between atoms: N1_8  and  C8_9 
REMARK    3  A    between atoms: C12_15  and  O1_16 
REMARK    4  A    between atoms: O1_16  and  C13_17 
REMARK    5  A    between atoms: C13_17  and  C14_18 
REMARK    6  A    between atoms: C14_18  and  O2_19 
ROOT
HETATM    1  C1  UNL     1      22.783  -1.251  54.840  1.00  0.00     0.018 C 
HETATM    2  C2  UNL     1      23.560  -0.636  54.142  1.00  0.00    -0.078 C 
HETATM    3  C3  UNL     1      24.492   0.093  53.333  1.00  0.00     0.019 A 
HETATM    4  C4  UNL     1      25.618  -0.454  52.760  1.00  0.00     0.021 A 
HETATM    5  C5  UNL     1      26.528   0.215  51.979  1.00  0.00     0.004 A 
HETATM    6  C6  UNL     1      26.285   1.568  51.749  1.00  0.00     0.029 A 
HETATM    7  C7  UNL     1      25.170   2.155  52.305  1.00  0.00     0.034 A 
HETATM    8  C22 UNL     1      24.255   1.447  53.100  1.00  0.00     0.050 A 
ENDROOT
BRANCH   7   9
HETATM    9  N1  UNL     1      24.906   3.547  52.067  1.00  0.00    -0.349 N 
HETATM   10  H5  UNL     1      25.473   4.375  52.429  1.00  0.00     0.167 HD
BRANCH   9  11
HETATM   11  C8  UNL     1      23.762   3.900  51.261  1.00  0.00     0.075 C 
HETATM   12  N2  UNL     1      23.779   3.789  50.058  1.00  0.00    -0.271 NA
HETATM   13  C9  UNL     1      23.542   3.763  48.744  1.00  0.00     0.379 C 
HETATM   14  N3  UNL     1      22.501   3.661  47.888  1.00  0.00    -0.263 NA
HETATM   15  C10 UNL     1      21.162   3.534  48.472  1.00  0.00     0.065 A 
HETATM   16  C11 UNL     1      20.041   4.211  48.506  1.00  0.00     0.071 A 
HETATM   17  C20 UNL     1      21.263   2.376  49.372  1.00  0.00     0.007 A 
HETATM   18  C12 UNL     1      19.248   3.524  49.510  1.00  0.00     0.105 A 
HETATM   19  C16 UNL     1      19.954   2.513  49.981  1.00  0.00     0.110 A 
HETATM   20  O3  UNL     1      19.596   1.592  50.985  1.00  0.00    -0.346 OA
HETATM   21  C17 UNL     1      19.676   2.055  52.352  1.00  0.00     0.202 C 
HETATM   22  C18 UNL     1      20.398   3.388  52.438  1.00  0.00     0.195 C 
HETATM   23  O4  UNL     1      21.658   3.263  51.962  1.00  0.00    -0.382 OA
HETATM   24  C19 UNL     1      22.450   4.372  51.858  1.00  0.00     0.237 C 
HETATM   25  C21 UNL     1      22.134   1.408  49.597  1.00  0.00     0.049 C 
BRANCH  18  26
HETATM   26  O1  UNL     1      17.966   3.859  49.920  1.00  0.00    -0.346 OA
BRANCH  26  27
HETATM   27  C13 UNL     1      16.817   3.078  49.720  1.00  0.00     0.201 C 
BRANCH  27  28
HETATM   28  C14 UNL     1      16.182   2.770  51.079  1.00  0.00     0.193 C 
BRANCH  28  29
HETATM   29  O2  UNL     1      16.443   3.764  51.982  1.00  0.00    -0.394 OA
HETATM   30  C15 UNL     1      15.410   4.073  52.842  1.00  0.00     0.201 C 
ENDBRANCH  28  29
ENDBRANCH  27  28
ENDBRANCH  26  27
ENDBRANCH  18  26
ENDBRANCH   9  11
ENDBRANCH   7   9
TORSDOF 6
ENDMDL
MODEL 6
REMARK VINA RESULT:      -7.0      1.436      2.109
REMARK  6 active torsions:
REMARK  status: ('A' for Active; 'I' for Inactive)
REMARK    1  A    between atoms: C7_7  and  N1_8 
REMARK    2  A    between atoms: N1_8  and  C8_9 
REMARK    3  A    between atoms: C12_15  and  O1_16 
REMARK    4  A    between atoms: O1_16  and  C13_17 
REMARK    5  A    between atoms: C13_17  and  C14_18 
REMARK    6  A    between atoms: C14_18  and  O2_19 
ROOT
HETATM    1  C1  UNL     1      28.986   7.682  46.931  1.00  0.00     0.018 C 
HETATM    2  C2  UNL     1      28.291   6.984  47.637  1.00  0.00    -0.078 C 
HETATM    3  C3  UNL     1      27.458   6.151  48.454  1.00  0.00     0.019 A 
HETATM    4  C4  UNL     1      27.610   4.789  48.585  1.00  0.00     0.021 A 
HETATM    5  C5  UNL     1      26.832   3.965  49.361  1.00  0.00     0.004 A 
HETATM    6  C6  UNL     1      25.798   4.566  50.077  1.00  0.00     0.029 A 
HETATM    7  C7  UNL     1      25.611   5.927  49.973  1.00  0.00     0.034 A 
HETATM    8  C22 UNL     1      26.421   6.747  49.173  1.00  0.00     0.050 A 
ENDROOT
BRANCH   7   9
HETATM    9  N1  UNL     1      24.554   6.558  50.713  1.00  0.00    -0.349 N 
HETATM   10  H5  UNL     1      24.605   7.490  51.231  1.00  0.00     0.167 HD
BRANCH   9  11
HETATM   11  C8  UNL     1      23.277   5.890  50.789  1.00  0.00     0.075 C 
HETATM   12  N2  UNL     1      22.518   5.870  49.849  1.00  0.00    -0.271 NA
HETATM   13  C9  UNL     1      21.518   5.703  48.980  1.00  0.00     0.379 C 
HETATM   14  N3  UNL     1      20.510   4.841  48.723  1.00  0.00    -0.263 NA
HETATM   15  C10 UNL     1      20.372   3.686  49.616  1.00  0.00     0.065 A 
HETATM   16  C11 UNL     1      19.502   3.209  50.471  1.00  0.00     0.071 A 
HETATM   17  C20 UNL     1      21.690   3.034  49.579  1.00  0.00     0.007 A 
HETATM   18  C12 UNL     1      20.219   2.133  51.135  1.00  0.00     0.105 A 
HETATM   19  C16 UNL     1      21.434   2.063  50.626  1.00  0.00     0.110 A 
HETATM   20  O3  UNL     1      22.480   1.190  50.981  1.00  0.00    -0.346 OA
HETATM   21  C17 UNL     1      23.199   1.497  52.197  1.00  0.00     0.202 C 
HETATM   22  C18 UNL     1      22.839   2.878  52.714  1.00  0.00     0.195 C 
HETATM   23  O4  UNL     1      23.156   3.814  51.790  1.00  0.00    -0.382 OA
HETATM   24  C19 UNL     1      22.824   5.120  52.015  1.00  0.00     0.237 C 
HETATM   25  C21 UNL     1      22.787   3.129  48.849  1.00  0.00     0.049 C 
BRANCH  18  26
HETATM   26  O1  UNL     1      19.726   1.310  52.137  1.00  0.00    -0.346 OA
BRANCH  26  27
HETATM   27  C13 UNL     1      19.611  -0.086  52.059  1.00  0.00     0.201 C 
BRANCH  27  28
HETATM   28  C14 UNL     1      19.785  -0.679  53.461  1.00  0.00     0.193 C 
BRANCH  28  29
HETATM   29  O2  UNL     1      20.843  -0.105  54.110  1.00  0.00    -0.394 OA
HETATM   30  C15 UNL     1      21.718  -0.983  54.715  1.00  0.00     0.201 C 
ENDBRANCH  28  29
ENDBRANCH  27  28
ENDBRANCH  26  27
ENDBRANCH  18  26
ENDBRANCH   9  11
ENDBRANCH   7   9
TORSDOF 6
ENDMDL
MODEL 7
REMARK VINA RESULT:      -6.9      2.540      3.530
REMARK  6 active torsions:
REMARK  status: ('A' for Active; 'I' for Inactive)
REMARK    1  A    between atoms: C7_7  and  N1_8 
REMARK    2  A    between atoms: N1_8  and  C8_9 
REMARK    3  A    between atoms: C12_15  and  O1_16 
REMARK    4  A    between atoms: O1_16  and  C13_17 
REMARK    5  A    between atoms: C13_17  and  C14_18 
REMARK    6  A    between atoms: C14_18  and  O2_19 
ROOT
HETATM    1  C1  UNL     1      28.003   7.419  47.557  1.00  0.00     0.018 C 
HETATM    2  C2  UNL     1      27.412   6.583  48.207  1.00  0.00    -0.078 C 
HETATM    3  C3  UNL     1      26.705   5.588  48.957  1.00  0.00     0.019 A 
HETATM    4  C4  UNL     1      27.071   4.263  49.029  1.00  0.00     0.021 A 
HETATM    5  C5  UNL     1      26.417   3.286  49.740  1.00  0.00     0.004 A 
HETATM    6  C6  UNL     1      25.283   3.677  50.450  1.00  0.00     0.029 A 
HETATM    7  C7  UNL     1      24.882   4.994  50.404  1.00  0.00     0.034 A 
HETATM    8  C22 UNL     1      25.569   5.973  49.669  1.00  0.00     0.050 A 
ENDROOT
BRANCH   7   9
HETATM    9  N1  UNL     1      23.720   5.409  51.139  1.00  0.00    -0.349 N 
HETATM   10  H5  UNL     1      23.679   6.154  51.903  1.00  0.00     0.167 HD
BRANCH   9  11
HETATM   11  C8  UNL     1      22.459   4.774  50.843  1.00  0.00     0.075 C 
HETATM   12  N2  UNL     1      21.989   4.790  49.729  1.00  0.00    -0.271 NA
HETATM   13  C9  UNL     1      21.267   4.663  48.614  1.00  0.00     0.379 C 
HETATM   14  N3  UNL     1      20.352   3.832  48.068  1.00  0.00    -0.263 NA
HETATM   15  C10 UNL     1      19.948   2.667  48.861  1.00  0.00     0.065 A 
HETATM   16  C11 UNL     1      18.865   2.199  49.431  1.00  0.00     0.071 A 
HETATM   17  C20 UNL     1      21.211   1.981  49.175  1.00  0.00     0.007 A 
HETATM   18  C12 UNL     1      19.347   1.094  50.242  1.00  0.00     0.105 A 
HETATM   19  C16 UNL     1      20.654   1.000  50.088  1.00  0.00     0.110 A 
HETATM   20  O3  UNL     1      21.542   0.094  50.699  1.00  0.00    -0.346 OA
HETATM   21  C17 UNL     1      21.902   0.362  52.073  1.00  0.00     0.202 C 
HETATM   22  C18 UNL     1      21.441   1.744  52.501  1.00  0.00     0.195 C 
HETATM   23  O4  UNL     1      22.022   2.686  51.723  1.00  0.00    -0.382 OA
HETATM   24  C19 UNL     1      21.667   3.997  51.878  1.00  0.00     0.237 C 
HETATM   25  C21 UNL     1      22.468   2.059  48.780  1.00  0.00     0.049 C 
BRANCH  18  26
HETATM   26  O1  UNL     1      18.579   0.268  51.049  1.00  0.00    -0.346 OA
BRANCH  26  27
HETATM   27  C13 UNL     1      17.261  -0.132  50.784  1.00  0.00     0.201 C 
BRANCH  27  28
HETATM   28  C14 UNL     1      16.325   0.531  51.799  1.00  0.00     0.193 C 
BRANCH  28  29
HETATM   29  O2  UNL     1      15.833  -0.386  52.687  1.00  0.00    -0.394 OA
HETATM   30  C15 UNL     1      16.062  -1.708  52.367  1.00  0.00     0.201 C 
ENDBRANCH  28  29
ENDBRANCH  27  28
ENDBRANCH  26  27
ENDBRANCH  18  26
ENDBRANCH   9  11
ENDBRANCH   7   9
TORSDOF 6
ENDMDL
MODEL 8
REMARK VINA RESULT:      -6.8      3.219      7.519
REMARK  6 active torsions:
REMARK  status: ('A' for Active; 'I' for Inactive)
REMARK    1  A    between atoms: C7_7  and  N1_8 
REMARK    2  A    between atoms: N1_8  and  C8_9 
REMARK    3  A    between atoms: C12_15  and  O1_16 
REMARK    4  A    between atoms: O1_16  and  C13_17 
REMARK    5  A    between atoms: C13_17  and  C14_18 
REMARK    6  A    between atoms: C14_18  and  O2_19 
ROOT
HETATM    1  C1  UNL     1      27.649  -2.394  52.688  1.00  0.00     0.018 C 
HETATM    2  C2  UNL     1      27.029  -1.354  52.651  1.00  0.00    -0.078 C 
HETATM    3  C3  UNL     1      26.283  -0.131  52.593  1.00  0.00     0.019 A 
HETATM    4  C4  UNL     1      25.063   0.064  53.201  1.00  0.00     0.021 A 
HETATM    5  C5  UNL     1      24.325   1.222  53.167  1.00  0.00     0.004 A 
HETATM    6  C6  UNL     1      24.862   2.291  52.452  1.00  0.00     0.029 A 
HETATM    7  C7  UNL     1      26.081   2.136  51.827  1.00  0.00     0.034 A 
HETATM    8  C22 UNL     1      26.815   0.941  51.878  1.00  0.00     0.050 A 
ENDROOT
BRANCH   7   9
HETATM    9  N1  UNL     1      26.647   3.234  51.094  1.00  0.00    -0.349 N 
HETATM   10  H5  UNL     1      27.610   3.671  51.242  1.00  0.00     0.167 HD
BRANCH   9  11
HETATM   11  C8  UNL     1      25.862   3.834  50.043  1.00  0.00     0.075 C 
HETATM   12  N2  UNL     1      24.853   3.313  49.632  1.00  0.00    -0.271 NA
HETATM   13  C9  UNL     1      23.726   2.955  49.011  1.00  0.00     0.379 C 
HETATM   14  N3  UNL     1      22.689   3.518  48.354  1.00  0.00    -0.263 NA
HETATM   15  C10 UNL     1      22.696   4.978  48.217  1.00  0.00     0.065 A 
HETATM   16  C11 UNL     1      22.756   5.872  47.261  1.00  0.00     0.071 A 
HETATM   17  C20 UNL     1      22.822   5.475  49.596  1.00  0.00     0.007 A 
HETATM   18  C12 UNL     1      22.957   7.126  47.967  1.00  0.00     0.105 A 
HETATM   19  C16 UNL     1      22.998   6.875  49.262  1.00  0.00     0.110 A 
HETATM   20  O3  UNL     1      23.199   7.783  50.320  1.00  0.00    -0.346 OA
HETATM   21  C17 UNL     1      24.555   8.231  50.543  1.00  0.00     0.202 C 
HETATM   22  C18 UNL     1      25.545   7.408  49.738  1.00  0.00     0.195 C 
HETATM   23  O4  UNL     1      25.467   6.107  50.100  1.00  0.00    -0.382 OA
HETATM   24  C19 UNL     1      26.206   5.176  49.425  1.00  0.00     0.237 C 
HETATM   25  C21 UNL     1      22.738   4.963  50.811  1.00  0.00     0.049 C 
BRANCH  18  26
HETATM   26  O1  UNL     1      23.088   8.382  47.394  1.00  0.00    -0.346 OA
BRANCH  26  27
HETATM   27  C13 UNL     1      24.077   8.757  46.472  1.00  0.00     0.201 C 
BRANCH  27  28
HETATM   28  C14 UNL     1      24.866   9.940  47.041  1.00  0.00     0.193 C 
BRANCH  28  29
HETATM   29  O2  UNL     1      26.212   9.751  46.892  1.00  0.00    -0.394 OA
HETATM   30  C15 UNL     1      26.585   8.563  46.298  1.00  0.00     0.201 C 
ENDBRANCH  28  29
ENDBRANCH  27  28
ENDBRANCH  26  27
ENDBRANCH  18  26
ENDBRANCH   9  11
ENDBRANCH   7   9
TORSDOF 6
ENDMDL
MODEL 9
REMARK VINA RESULT:      -6.8      9.164     12.250
REMARK  6 active torsions:
REMARK  status: ('A' for Active; 'I' for Inactive)
REMARK    1  A    between atoms: C7_7  and  N1_8 
REMARK    2  A    between atoms: N1_8  and  C8_9 
REMARK    3  A    between atoms: C12_15  and  O1_16 
REMARK    4  A    between atoms: O1_16  and  C13_17 
REMARK    5  A    between atoms: C13_17  and  C14_18 
REMARK    6  A    between atoms: C14_18  and  O2_19 
ROOT
HETATM    1  C1  UNL     1      34.053   0.993  39.219  1.00  0.00     0.018 C 
HETATM    2  C2  UNL     1      33.706   2.024  39.754  1.00  0.00    -0.078 C 
HETATM    3  C3  UNL     1      33.309   3.254  40.373  1.00  0.00     0.019 A 
HETATM    4  C4  UNL     1      32.379   4.124  39.847  1.00  0.00     0.021 A 
HETATM    5  C5  UNL     1      31.974   5.307  40.416  1.00  0.00     0.004 A 
HETATM    6  C6  UNL     1      32.560   5.654  41.632  1.00  0.00     0.029 A 
HETATM    7  C7  UNL     1      33.497   4.812  42.191  1.00  0.00     0.034 A 
HETATM    8  C22 UNL     1      33.892   3.608  41.589  1.00  0.00     0.050 A 
ENDROOT
BRANCH   7   9
HETATM    9  N1  UNL     1      34.101   5.156  43.448  1.00  0.00    -0.349 N 
HETATM   10  H5  UNL     1      35.142   5.290  43.641  1.00  0.00     0.167 HD
BRANCH   9  11
HETATM   11  C8  UNL     1      33.242   5.346  44.592  1.00  0.00     0.075 C 
HETATM   12  N2  UNL     1      32.959   4.431  45.329  1.00  0.00    -0.271 NA
HETATM   13  C9  UNL     1      32.501   3.611  46.277  1.00  0.00     0.379 C 
HETATM   14  N3  UNL     1      32.068   3.656  47.557  1.00  0.00    -0.263 NA
HETATM   15  C10 UNL     1      32.049   4.967  48.212  1.00  0.00     0.065 A 
HETATM   16  C11 UNL     1      31.171   5.795  48.721  1.00  0.00     0.071 A 
HETATM   17  C20 UNL     1      33.425   5.468  48.069  1.00  0.00     0.007 A 
HETATM   18  C12 UNL     1      31.933   7.008  48.964  1.00  0.00     0.105 A 
HETATM   19  C16 UNL     1      33.180   6.801  48.585  1.00  0.00     0.110 A 
HETATM   20  O3  UNL     1      34.261   7.704  48.613  1.00  0.00    -0.346 OA
HETATM   21  C17 UNL     1      34.298   8.707  47.572  1.00  0.00     0.202 C 
HETATM   22  C18 UNL     1      33.279   8.408  46.486  1.00  0.00     0.195 C 
HETATM   23  O4  UNL     1      33.544   7.207  45.922  1.00  0.00    -0.382 OA
HETATM   24  C19 UNL     1      32.686   6.702  44.986  1.00  0.00     0.237 C 
HETATM   25  C21 UNL     1      34.593   4.972  47.700  1.00  0.00     0.049 C 
BRANCH  18  26
HETATM   26  O1  UNL     1      31.449   8.192  49.500  1.00  0.00    -0.346 OA
BRANCH  26  27
HETATM   27  C13 UNL     1      30.287   8.859  49.082  1.00  0.00     0.201 C 
BRANCH  27  28
HETATM   28  C14 UNL     1      30.679  10.211  48.480  1.00  0.00     0.193 C 
BRANCH  28  29
HETATM   29  O2  UNL     1      30.862  11.152  49.456  1.00  0.00    -0.394 OA
HETATM   30  C15 UNL     1      30.545  12.447  49.103  1.00  0.00     0.201 C 
ENDBRANCH  28  29
ENDBRANCH  27  28
ENDBRANCH  26  27
ENDBRANCH  18  26
ENDBRANCH   9  11
ENDBRANCH   7   9
TORSDOF 6
ENDMDL
