MODEL 1
REMARK VINA RESULT:      -8.5      0.000      0.000
REMARK  5 active torsions:
REMARK  status: ('A' for Active; 'I' for Inactive)
REMARK    1  A    between atoms: C2_2  and  C3_3 
REMARK       I    between atoms: C3_3  and  N1_5 
REMARK    2  A    between atoms: N1_5  and  C4_6 
REMARK    3  A    between atoms: C7_9  and  N2_10 
REMARK    4  A    between atoms: N2_10  and  C8_11 
REMARK    5  A    between atoms: C18_24  and  O2_25 
ROOT
HETATM    1  C4  UNL     1      24.904   3.564  50.718  1.00  0.00     0.069 A 
HETATM    2  C5  UNL     1      25.334   2.813  51.809  1.00  0.00     0.048 A 
HETATM    3  C6  UNL     1      24.528   1.767  52.272  1.00  0.00     0.023 A 
HETATM    4  C7  UNL     1      24.913   0.982  53.361  1.00  0.00     0.067 A 
HETATM    5  C13 UNL     1      24.050  -0.025  53.739  1.00  0.00     0.089 A 
HETATM    6  C14 UNL     1      24.476  -0.811  54.862  1.00  0.00     0.103 C 
HETATM    7  N3  UNL     1      24.814  -1.467  55.779  1.00  0.00    -0.191 NA
HETATM    8  C15 UNL     1      22.863  -0.245  53.072  1.00  0.00     0.142 A 
HETATM    9  N4  UNL     1      22.525   0.532  52.025  1.00  0.00    -0.259 NA
HETATM   10  C16 UNL     1      23.322   1.518  51.619  1.00  0.00     0.071 A 
HETATM   11  C17 UNL     1      22.911   2.285  50.527  1.00  0.00     0.071 A 
HETATM   12  C18 UNL     1      23.712   3.316  50.075  1.00  0.00     0.097 A 
ENDROOT
BRANCH   4  13
HETATM   13  N2  UNL     1      26.159   1.332  53.946  1.00  0.00    -0.356 N 
HETATM   14  H6  UNL     1      25.801   2.075  54.585  1.00  0.00     0.166 HD
BRANCH  13  15
HETATM   15  C8  UNL     1      27.492   0.932  53.833  1.00  0.00     0.028 A 
HETATM   16  C9  UNL     1      28.570   1.692  53.723  1.00  0.00     0.026 A 
HETATM   17  C10 UNL     1      29.759   0.848  53.632  1.00  0.00    -0.001 A 
HETATM   18  C11 UNL     1      29.339  -0.418  53.693  1.00  0.00    -0.005 A 
HETATM   19  C12 UNL     1      27.852  -0.511  53.827  1.00  0.00     0.130 A 
HETATM   20 BR1  UNL     1      27.035  -1.387  52.339  1.00  0.00    -0.080 Br
ENDBRANCH  13  15
ENDBRANCH   4  13
BRANCH   1  21
HETATM   21  N1  UNL     1      25.817   4.603  50.340  1.00  0.00    -0.321 N 
HETATM   22  C3  UNL     1      26.747   4.073  49.395  1.00  0.00     0.245 C 
HETATM   23  O1  UNL     1      26.491   2.856  49.173  1.00  0.00    -0.268 OA
HETATM   24  H4  UNL     1      25.887   5.619  50.640  1.00  0.00     0.169 HD
BRANCH  22  25
HETATM   25  C2  UNL     1      27.819   4.886  48.807  1.00  0.00     0.064 C 
HETATM   26  C1  UNL     1      27.671   6.089  48.325  1.00  0.00     0.017 C 
ENDBRANCH  22  25
ENDBRANCH   1  21
BRANCH  12  27
HETATM   27  O2  UNL     1      23.358   4.113  48.995  1.00  0.00    -0.354 OA
HETATM   28  C19 UNL     1      22.522   3.662  47.950  1.00  0.00     0.210 C 
ENDBRANCH  12  27
TORSDOF 5
ENDMDL
MODEL 2
REMARK VINA RESULT:      -8.4      2.678      6.036
REMARK  5 active torsions:
REMARK  status: ('A' for Active; 'I' for Inactive)
REMARK    1  A    between atoms: C2_2  and  C3_3 
REMARK       I    between atoms: C3_3  and  N1_5 
REMARK    2  A    between atoms: N1_5  and  C4_6 
REMARK    3  A    between atoms: C7_9  and  N2_10 
REMARK    4  A    between atoms: N2_10  and  C8_11 
REMARK    5  A    between atoms: C18_24  and  O2_25 
ROOT
HETATM    1  C4  UNL     1      25.435   1.112  53.501  1.00  0.00     0.069 A 
HETATM    2  C5  UNL     1      25.187   2.173  52.633  1.00  0.00     0.048 A 
HETATM    3  C6  UNL     1      23.992   2.190  51.906  1.00  0.00     0.023 A 
HETATM    4  C7  UNL     1      23.695   3.230  51.023  1.00  0.00     0.067 A 
HETATM    5  C13 UNL     1      22.491   3.154  50.355  1.00  0.00     0.089 A 
HETATM    6  C14 UNL     1      22.217   4.240  49.455  1.00  0.00     0.103 C 
HETATM    7  N3  UNL     1      21.977   5.124  48.717  1.00  0.00    -0.191 NA
HETATM    8  C15 UNL     1      21.623   2.100  50.548  1.00  0.00     0.142 A 
HETATM    9  N4  UNL     1      21.944   1.114  51.408  1.00  0.00    -0.259 NA
HETATM   10  C16 UNL     1      23.094   1.138  52.080  1.00  0.00     0.071 A 
HETATM   11  C17 UNL     1      23.364   0.085  52.956  1.00  0.00     0.071 A 
HETATM   12  C18 UNL     1      24.545   0.075  53.671  1.00  0.00     0.097 A 
ENDROOT
BRANCH   4  13
HETATM   13  N2  UNL     1      24.686   4.242  50.927  1.00  0.00    -0.356 N 
HETATM   14  H6  UNL     1      24.478   4.718  51.831  1.00  0.00     0.166 HD
BRANCH  13  15
HETATM   15  C8  UNL     1      25.679   4.621  50.020  1.00  0.00     0.028 A 
HETATM   16  C9  UNL     1      26.798   3.984  49.718  1.00  0.00     0.026 A 
HETATM   17  C10 UNL     1      27.541   4.745  48.716  1.00  0.00    -0.001 A 
HETATM   18  C11 UNL     1      26.820   5.837  48.448  1.00  0.00    -0.005 A 
HETATM   19  C12 UNL     1      25.555   5.884  49.246  1.00  0.00     0.130 A 
HETATM   20 BR1  UNL     1      25.492   7.380  50.431  1.00  0.00    -0.080 Br
ENDBRANCH  13  15
ENDBRANCH   4  13
BRANCH   1  21
HETATM   21  N1  UNL     1      26.689   1.213  54.189  1.00  0.00    -0.321 N 
HETATM   22  C3  UNL     1      27.695   0.580  53.398  1.00  0.00     0.245 C 
HETATM   23  O1  UNL     1      27.187   0.124  52.335  1.00  0.00    -0.268 OA
HETATM   24  H4  UNL     1      26.946   1.653  55.119  1.00  0.00     0.169 HD
BRANCH  22  25
HETATM   25  C2  UNL     1      29.099   0.510  53.823  1.00  0.00     0.064 C 
HETATM   26  C1  UNL     1      29.897  -0.502  53.617  1.00  0.00     0.017 C 
ENDBRANCH  22  25
ENDBRANCH   1  21
BRANCH  12  27
HETATM   27  O2  UNL     1      24.870  -0.943  54.556  1.00  0.00    -0.354 OA
HETATM   28  C19 UNL     1      24.062  -1.283  55.665  1.00  0.00     0.210 C 
ENDBRANCH  12  27
TORSDOF 5
ENDMDL
MODEL 3
REMARK VINA RESULT:      -8.3      1.855      2.376
REMARK  5 active torsions:
REMARK  status: ('A' for Active; 'I' for Inactive)
REMARK    1  A    between atoms: C2_2  and  C3_3 
REMARK       I    between atoms: C3_3  and  N1_5 
REMARK    2  A    between atoms: N1_5  and  C4_6 
REMARK    3  A    between atoms: C7_9  and  N2_10 
REMARK    4  A    between atoms: N2_10  and  C8_11 
REMARK    5  A    between atoms: C18_24  and  O2_25 
ROOT
HETATM    1  C4  UNL     1      23.068   2.944  50.335  1.00  0.00     0.069 A 
HETATM    2  C5  UNL     1      23.476   1.911  51.176  1.00  0.00     0.048 A 
HETATM    3  C6  UNL     1      22.590   1.438  52.149  1.00  0.00     0.023 A 
HETATM    4  C7  UNL     1      22.949   0.403  53.015  1.00  0.00     0.067 A 
HETATM    5  C13 UNL     1      22.004   0.008  53.938  1.00  0.00     0.089 A 
HETATM    6  C14 UNL     1      22.406  -1.057  54.814  1.00  0.00     0.103 C 
HETATM    7  N3  UNL     1      22.721  -1.931  55.535  1.00  0.00    -0.191 NA
HETATM    8  C15 UNL     1      20.763   0.606  54.002  1.00  0.00     0.142 A 
HETATM    9  N4  UNL     1      20.451   1.601  53.149  1.00  0.00    -0.259 NA
HETATM   10  C16 UNL     1      21.328   2.022  52.238  1.00  0.00     0.071 A 
HETATM   11  C17 UNL     1      20.940   3.057  51.385  1.00  0.00     0.071 A 
HETATM   12  C18 UNL     1      21.820   3.519  50.426  1.00  0.00     0.097 A 
ENDROOT
BRANCH   4  13
HETATM   13  N2  UNL     1      24.261  -0.109  52.831  1.00  0.00    -0.356 N 
HETATM   14  H6  UNL     1      24.066  -0.667  51.972  1.00  0.00     0.166 HD
BRANCH  13  15
HETATM   15  C8  UNL     1      25.498  -0.011  53.471  1.00  0.00     0.028 A 
HETATM   16  C9  UNL     1      25.749   0.023  54.770  1.00  0.00     0.026 A 
HETATM   17  C10 UNL     1      27.190   0.131  54.989  1.00  0.00    -0.001 A 
HETATM   18  C11 UNL     1      27.763   0.157  53.783  1.00  0.00    -0.005 A 
HETATM   19  C12 UNL     1      26.755   0.071  52.681  1.00  0.00     0.130 A 
HETATM   20 BR1  UNL     1      26.740   1.631  51.579  1.00  0.00    -0.080 Br
ENDBRANCH  13  15
ENDBRANCH   4  13
BRANCH   1  21
HETATM   21  N1  UNL     1      24.064   3.338  49.382  1.00  0.00    -0.321 N 
HETATM   22  C3  UNL     1      24.845   4.392  49.945  1.00  0.00     0.245 C 
HETATM   23  O1  UNL     1      24.431   4.663  51.108  1.00  0.00    -0.268 OA
HETATM   24  H4  UNL     1      24.278   2.984  48.405  1.00  0.00     0.169 HD
BRANCH  22  25
HETATM   25  C2  UNL     1      25.955   5.021  49.219  1.00  0.00     0.064 C 
HETATM   26  C1  UNL     1      27.112   4.465  48.985  1.00  0.00     0.017 C 
ENDBRANCH  22  25
ENDBRANCH   1  21
BRANCH  12  27
HETATM   27  O2  UNL     1      21.493   4.544  49.550  1.00  0.00    -0.354 OA
HETATM   28  C19 UNL     1      21.287   5.878  49.971  1.00  0.00     0.210 C 
ENDBRANCH  12  27
TORSDOF 5
ENDMDL
MODEL 4
REMARK VINA RESULT:      -8.2      3.284      6.103
REMARK  5 active torsions:
REMARK  status: ('A' for Active; 'I' for Inactive)
REMARK    1  A    between atoms: C2_2  and  C3_3 
REMARK       I    between atoms: C3_3  and  N1_5 
REMARK    2  A    between atoms: N1_5  and  C4_6 
REMARK    3  A    between atoms: C7_9  and  N2_10 
REMARK    4  A    between atoms: N2_10  and  C8_11 
REMARK    5  A    between atoms: C18_24  and  O2_25 
ROOT
HETATM    1  C4  UNL     1      25.439   0.804  52.691  1.00  0.00     0.069 A 
HETATM    2  C5  UNL     1      24.458   1.733  52.351  1.00  0.00     0.048 A 
HETATM    3  C6  UNL     1      23.116   1.420  52.590  1.00  0.00     0.023 A 
HETATM    4  C7  UNL     1      22.094   2.315  52.268  1.00  0.00     0.067 A 
HETATM    5  C13 UNL     1      20.804   1.913  52.544  1.00  0.00     0.089 A 
HETATM    6  C14 UNL     1      19.778   2.857  52.201  1.00  0.00     0.103 C 
HETATM    7  N3  UNL     1      18.927   3.622  51.928  1.00  0.00    -0.191 NA
HETATM    8  C15 UNL     1      20.537   0.684  53.110  1.00  0.00     0.142 A 
HETATM    9  N4  UNL     1      21.549  -0.154  53.407  1.00  0.00    -0.259 NA
HETATM   10  C16 UNL     1      22.813   0.185  53.161  1.00  0.00     0.071 A 
HETATM   11  C17 UNL     1      23.813  -0.730  53.494  1.00  0.00     0.071 A 
HETATM   12  C18 UNL     1      25.137  -0.414  53.255  1.00  0.00     0.097 A 
ENDROOT
BRANCH   4  13
HETATM   13  N2  UNL     1      22.524   3.538  51.688  1.00  0.00    -0.356 N 
HETATM   14  H6  UNL     1      22.757   4.031  52.577  1.00  0.00     0.166 HD
BRANCH  13  15
HETATM   15  C8  UNL     1      22.657   4.072  50.404  1.00  0.00     0.028 A 
HETATM   16  C9  UNL     1      22.843   3.428  49.264  1.00  0.00     0.026 A 
HETATM   17  C10 UNL     1      22.927   4.387  48.166  1.00  0.00    -0.001 A 
HETATM   18  C11 UNL     1      22.783   5.602  48.702  1.00  0.00    -0.005 A 
HETATM   19  C12 UNL     1      22.596   5.541  50.185  1.00  0.00     0.130 A 
HETATM   20 BR1  UNL     1      24.006   6.409  51.137  1.00  0.00    -0.080 Br
ENDBRANCH  13  15
ENDBRANCH   4  13
BRANCH   1  21
HETATM   21  N1  UNL     1      26.773   1.244  52.399  1.00  0.00    -0.321 N 
HETATM   22  C3  UNL     1      27.286   1.933  53.539  1.00  0.00     0.245 C 
HETATM   23  O1  UNL     1      26.422   1.952  54.459  1.00  0.00    -0.268 OA
HETATM   24  H4  UNL     1      27.373   1.135  51.531  1.00  0.00     0.169 HD
BRANCH  22  25
HETATM   25  C2  UNL     1      28.636   2.511  53.564  1.00  0.00     0.064 C 
HETATM   26  C1  UNL     1      29.593   2.150  54.374  1.00  0.00     0.017 C 
ENDBRANCH  22  25
ENDBRANCH   1  21
BRANCH  12  27
HETATM   27  O2  UNL     1      26.175  -1.282  53.564  1.00  0.00    -0.354 OA
HETATM   28  C19 UNL     1      26.832  -2.070  52.592  1.00  0.00     0.210 C 
ENDBRANCH  12  27
TORSDOF 5
ENDMDL
MODEL 5
REMARK VINA RESULT:      -8.1      2.424      5.350
REMARK  5 active torsions:
REMARK  status: ('A' for Active; 'I' for Inactive)
REMARK    1  A    between atoms: C2_2  and  C3_3 
REMARK       I    between atoms: C3_3  and  N1_5 
REMARK    2  A    between atoms: N1_5  and  C4_6 
REMARK    3  A    between atoms: C7_9  and  N2_10 
REMARK    4  A    between atoms: N2_10  and  C8_11 
REMARK    5  A    between atoms: C18_24  and  O2_25 
ROOT
HETATM    1  C4  UNL     1      26.321   1.340  52.027  1.00  0.00     0.069 A 
HETATM    2  C5  UNL     1      25.003   0.896  52.091  1.00  0.00     0.048 A 
HETATM    3  C6  UNL     1      24.595   0.139  53.195  1.00  0.00     0.023 A 
HETATM    4  C7  UNL     1      23.284  -0.330  53.308  1.00  0.00     0.067 A 
HETATM    5  C13 UNL     1      22.981  -1.066  54.434  1.00  0.00     0.089 A 
HETATM    6  C14 UNL     1      21.626  -1.533  54.518  1.00  0.00     0.103 C 
HETATM    7  N3  UNL     1      20.518  -1.919  54.603  1.00  0.00    -0.191 NA
HETATM    8  C15 UNL     1      23.929  -1.326  55.402  1.00  0.00     0.142 A 
HETATM    9  N4  UNL     1      25.184  -0.857  55.259  1.00  0.00    -0.259 NA
HETATM   10  C16 UNL     1      25.529  -0.141  54.190  1.00  0.00     0.071 A 
HETATM   11  C17 UNL     1      26.846   0.315  54.105  1.00  0.00     0.071 A 
HETATM   12  C18 UNL     1      27.242   1.062  53.013  1.00  0.00     0.097 A 
ENDROOT
BRANCH   4  13
HETATM   13  N2  UNL     1      22.425   0.015  52.231  1.00  0.00    -0.356 N 
HETATM   14  H6  UNL     1      22.796  -0.673  51.540  1.00  0.00     0.166 HD
BRANCH  13  15
HETATM   15  C8  UNL     1      21.390   0.923  51.996  1.00  0.00     0.028 A 
HETATM   16  C9  UNL     1      20.100   0.778  52.248  1.00  0.00     0.026 A 
HETATM   17  C10 UNL     1      19.381   1.983  51.841  1.00  0.00    -0.001 A 
HETATM   18  C11 UNL     1      20.291   2.827  51.349  1.00  0.00    -0.005 A 
HETATM   19  C12 UNL     1      21.671   2.251  51.390  1.00  0.00     0.130 A 
HETATM   20 BR1  UNL     1      22.427   2.034  49.650  1.00  0.00    -0.080 Br
ENDBRANCH  13  15
ENDBRANCH   4  13
BRANCH   1  21
HETATM   21  N1  UNL     1      26.614   2.105  50.851  1.00  0.00    -0.321 N 
HETATM   22  C3  UNL     1      25.852   3.312  50.889  1.00  0.00     0.245 C 
HETATM   23  O1  UNL     1      25.152   3.348  51.940  1.00  0.00    -0.268 OA
HETATM   24  H4  UNL     1      27.261   1.913  50.032  1.00  0.00     0.169 HD
BRANCH  22  25
HETATM   25  C2  UNL     1      25.924   4.320  49.824  1.00  0.00     0.064 C 
HETATM   26  C1  UNL     1      26.946   4.510  49.036  1.00  0.00     0.017 C 
ENDBRANCH  22  25
ENDBRANCH   1  21
BRANCH  12  27
HETATM   27  O2  UNL     1      28.536   1.543  52.871  1.00  0.00    -0.354 OA
HETATM   28  C19 UNL     1      29.127   2.438  53.792  1.00  0.00     0.210 C 
ENDBRANCH  12  27
TORSDOF 5
ENDMDL
MODEL 6
REMARK VINA RESULT:      -7.8      3.078      6.158
REMARK  5 active torsions:
REMARK  status: ('A' for Active; 'I' for Inactive)
REMARK    1  A    between atoms: C2_2  and  C3_3 
REMARK       I    between atoms: C3_3  and  N1_5 
REMARK    2  A    between atoms: N1_5  and  C4_6 
REMARK    3  A    between atoms: C7_9  and  N2_10 
REMARK    4  A    between atoms: N2_10  and  C8_11 
REMARK    5  A    between atoms: C18_24  and  O2_25 
ROOT
HETATM    1  C4  UNL     1      25.050   2.105  53.415  1.00  0.00     0.069 A 
HETATM    2  C5  UNL     1      24.451   3.254  52.904  1.00  0.00     0.048 A 
HETATM    3  C6  UNL     1      23.243   3.136  52.207  1.00  0.00     0.023 A 
HETATM    4  C7  UNL     1      22.601   4.257  51.675  1.00  0.00     0.067 A 
HETATM    5  C13 UNL     1      21.415   4.036  51.006  1.00  0.00     0.089 A 
HETATM    6  C14 UNL     1      20.782   5.209  50.472  1.00  0.00     0.103 C 
HETATM    7  N3  UNL     1      20.250   6.161  50.032  1.00  0.00    -0.191 NA
HETATM    8  C15 UNL     1      20.890   2.768  50.869  1.00  0.00     0.142 A 
HETATM    9  N4  UNL     1      21.538   1.710  51.395  1.00  0.00    -0.259 NA
HETATM   10  C16 UNL     1      22.686   1.868  52.051  1.00  0.00     0.071 A 
HETATM   11  C17 UNL     1      23.305   0.730  52.572  1.00  0.00     0.071 A 
HETATM   12  C18 UNL     1      24.497   0.853  53.259  1.00  0.00     0.097 A 
ENDROOT
BRANCH   4  13
HETATM   13  N2  UNL     1      23.265   5.493  51.893  1.00  0.00    -0.356 N 
HETATM   14  H6  UNL     1      23.157   5.520  52.930  1.00  0.00     0.166 HD
BRANCH  13  15
HETATM   15  C8  UNL     1      23.901   6.465  51.118  1.00  0.00     0.028 A 
HETATM   16  C9  UNL     1      23.489   7.692  50.842  1.00  0.00     0.026 A 
HETATM   17  C10 UNL     1      24.472   8.361  49.993  1.00  0.00    -0.001 A 
HETATM   18  C11 UNL     1      25.462   7.489  49.789  1.00  0.00    -0.005 A 
HETATM   19  C12 UNL     1      25.214   6.185  50.479  1.00  0.00     0.130 A 
HETATM   20 BR1  UNL     1      25.052   4.728  49.254  1.00  0.00    -0.080 Br
ENDBRANCH  13  15
ENDBRANCH   4  13
BRANCH   1  21
HETATM   21  N1  UNL     1      26.279   2.357  54.109  1.00  0.00    -0.321 N 
HETATM   22  C3  UNL     1      27.353   2.305  53.170  1.00  0.00     0.245 C 
HETATM   23  O1  UNL     1      26.906   2.054  52.015  1.00  0.00    -0.268 OA
HETATM   24  H4  UNL     1      26.478   2.559  55.131  1.00  0.00     0.169 HD
BRANCH  22  25
HETATM   25  C2  UNL     1      28.750   2.522  53.563  1.00  0.00     0.064 C 
HETATM   26  C1  UNL     1      29.392   1.836  54.468  1.00  0.00     0.017 C 
ENDBRANCH  22  25
ENDBRANCH   1  21
BRANCH  12  27
HETATM   27  O2  UNL     1      25.159  -0.240  53.801  1.00  0.00    -0.354 OA
HETATM   28  C19 UNL     1      25.957  -1.113  53.028  1.00  0.00     0.210 C 
ENDBRANCH  12  27
TORSDOF 5
ENDMDL
MODEL 7
REMARK VINA RESULT:      -7.7      2.891      5.446
REMARK  5 active torsions:
REMARK  status: ('A' for Active; 'I' for Inactive)
REMARK    1  A    between atoms: C2_2  and  C3_3 
REMARK       I    between atoms: C3_3  and  N1_5 
REMARK    2  A    between atoms: N1_5  and  C4_6 
REMARK    3  A    between atoms: C7_9  and  N2_10 
REMARK    4  A    between atoms: N2_10  and  C8_11 
REMARK    5  A    between atoms: C18_24  and  O2_25 
ROOT
HETATM    1  C4  UNL     1      23.820   3.795  50.817  1.00  0.00     0.069 A 
HETATM    2  C5  UNL     1      22.999   2.936  51.545  1.00  0.00     0.048 A 
HETATM    3  C6  UNL     1      23.574   1.839  52.195  1.00  0.00     0.023 A 
HETATM    4  C7  UNL     1      22.797   0.948  52.938  1.00  0.00     0.067 A 
HETATM    5  C13 UNL     1      23.458  -0.102  53.541  1.00  0.00     0.089 A 
HETATM    6  C14 UNL     1      22.629  -0.998  54.297  1.00  0.00     0.103 C 
HETATM    7  N3  UNL     1      21.964  -1.739  54.922  1.00  0.00    -0.191 NA
HETATM    8  C15 UNL     1      24.822  -0.263  53.415  1.00  0.00     0.142 A 
HETATM    9  N4  UNL     1      25.539   0.617  52.690  1.00  0.00    -0.259 NA
HETATM   10  C16 UNL     1      24.950   1.649  52.087  1.00  0.00     0.071 A 
HETATM   11  C17 UNL     1      25.753   2.523  51.352  1.00  0.00     0.071 A 
HETATM   12  C18 UNL     1      25.179   3.605  50.713  1.00  0.00     0.097 A 
ENDROOT
BRANCH   4  13
HETATM   13  N2  UNL     1      21.408   1.242  52.972  1.00  0.00    -0.356 N 
HETATM   14  H6  UNL     1      21.465   2.076  53.595  1.00  0.00     0.166 HD
BRANCH  13  15
HETATM   15  C8  UNL     1      20.235   0.715  52.426  1.00  0.00     0.028 A 
HETATM   16  C9  UNL     1      19.440  -0.213  52.933  1.00  0.00     0.026 A 
HETATM   17  C10 UNL     1      18.326  -0.458  52.021  1.00  0.00    -0.001 A 
HETATM   18  C11 UNL     1      18.498   0.355  50.976  1.00  0.00    -0.005 A 
HETATM   19  C12 UNL     1      19.730   1.192  51.112  1.00  0.00     0.130 A 
HETATM   20 BR1  UNL     1      21.014   0.834  49.744  1.00  0.00    -0.080 Br
ENDBRANCH  13  15
ENDBRANCH   4  13
BRANCH   1  21
HETATM   21  N1  UNL     1      23.113   4.880  50.201  1.00  0.00    -0.321 N 
HETATM   22  C3  UNL     1      23.055   5.970  51.122  1.00  0.00     0.245 C 
HETATM   23  O1  UNL     1      23.640   5.658  52.198  1.00  0.00    -0.268 OA
HETATM   24  H4  UNL     1      22.668   4.973  49.242  1.00  0.00     0.169 HD
BRANCH  22  25
HETATM   25  C2  UNL     1      22.396   7.240  50.795  1.00  0.00     0.064 C 
HETATM   26  C1  UNL     1      21.259   7.357  50.166  1.00  0.00     0.017 C 
ENDBRANCH  22  25
ENDBRANCH   1  21
BRANCH  12  27
HETATM   27  O2  UNL     1      25.923   4.509  49.968  1.00  0.00    -0.354 OA
HETATM   28  C19 UNL     1      27.015   4.121  49.159  1.00  0.00     0.210 C 
ENDBRANCH  12  27
TORSDOF 5
ENDMDL
MODEL 8
REMARK VINA RESULT:      -7.7      3.222      7.212
REMARK  5 active torsions:
REMARK  status: ('A' for Active; 'I' for Inactive)
REMARK    1  A    between atoms: C2_2  and  C3_3 
REMARK       I    between atoms: C3_3  and  N1_5 
REMARK    2  A    between atoms: N1_5  and  C4_6 
REMARK    3  A    between atoms: C7_9  and  N2_10 
REMARK    4  A    between atoms: N2_10  and  C8_11 
REMARK    5  A    between atoms: C18_24  and  O2_25 
ROOT
HETATM    1  C4  UNL     1      22.029   1.097  52.954  1.00  0.00     0.069 A 
HETATM    2  C5  UNL     1      22.622   1.959  52.035  1.00  0.00     0.048 A 
HETATM    3  C6  UNL     1      24.008   1.904  51.850  1.00  0.00     0.023 A 
HETATM    4  C7  UNL     1      24.652   2.746  50.940  1.00  0.00     0.067 A 
HETATM    5  C13 UNL     1      26.020   2.613  50.830  1.00  0.00     0.089 A 
HETATM    6  C14 UNL     1      26.650   3.493  49.887  1.00  0.00     0.103 C 
HETATM    7  N3  UNL     1      27.180   4.206  49.115  1.00  0.00    -0.191 NA
HETATM    8  C15 UNL     1      26.718   1.692  51.584  1.00  0.00     0.142 A 
HETATM    9  N4  UNL     1      26.063   0.897  52.451  1.00  0.00    -0.259 NA
HETATM   10  C16 UNL     1      24.741   0.984  52.596  1.00  0.00     0.071 A 
HETATM   11  C17 UNL     1      24.125   0.129  53.512  1.00  0.00     0.071 A 
HETATM   12  C18 UNL     1      22.757   0.189  53.689  1.00  0.00     0.097 A 
ENDROOT
BRANCH   4  13
HETATM   13  N2  UNL     1      23.801   3.643  50.241  1.00  0.00    -0.356 N 
HETATM   14  H6  UNL     1      23.810   4.411  50.947  1.00  0.00     0.166 HD
BRANCH  13  15
HETATM   15  C8  UNL     1      23.107   3.662  49.029  1.00  0.00     0.028 A 
HETATM   16  C9  UNL     1      22.848   2.651  48.217  1.00  0.00     0.026 A 
HETATM   17  C10 UNL     1      22.094   3.130  47.061  1.00  0.00    -0.001 A 
HETATM   18  C11 UNL     1      21.923   4.444  47.230  1.00  0.00    -0.005 A 
HETATM   19  C12 UNL     1      22.547   4.933  48.498  1.00  0.00     0.130 A 
HETATM   20 BR1  UNL     1      23.950   6.192  48.186  1.00  0.00    -0.080 Br
ENDBRANCH  13  15
ENDBRANCH   4  13
BRANCH   1  21
HETATM   21  N1  UNL     1      20.606   1.250  53.050  1.00  0.00    -0.321 N 
HETATM   22  C3  UNL     1      19.995   0.511  51.992  1.00  0.00     0.245 C 
HETATM   23  O1  UNL     1      20.881  -0.054  51.291  1.00  0.00    -0.268 OA
HETATM   24  H4  UNL     1      20.004   1.787  53.738  1.00  0.00     0.169 HD
BRANCH  22  25
HETATM   25  C2  UNL     1      18.539   0.461  51.809  1.00  0.00     0.064 C 
HETATM   26  C1  UNL     1      17.762  -0.503  52.220  1.00  0.00     0.017 C 
ENDBRANCH  22  25
ENDBRANCH   1  21
BRANCH  12  27
HETATM   27  O2  UNL     1      22.087  -0.634  54.584  1.00  0.00    -0.354 OA
HETATM   28  C19 UNL     1      21.662  -1.941  54.254  1.00  0.00     0.210 C 
ENDBRANCH  12  27
TORSDOF 5
ENDMDL
MODEL 9
REMARK VINA RESULT:      -7.7      2.516      5.013
REMARK  5 active torsions:
REMARK  status: ('A' for Active; 'I' for Inactive)
REMARK    1  A    between atoms: C2_2  and  C3_3 
REMARK       I    between atoms: C3_3  and  N1_5 
REMARK    2  A    between atoms: N1_5  and  C4_6 
REMARK    3  A    between atoms: C7_9  and  N2_10 
REMARK    4  A    between atoms: N2_10  and  C8_11 
REMARK    5  A    between atoms: C18_24  and  O2_25 
ROOT
HETATM    1  C4  UNL     1      23.425   3.776  49.771  1.00  0.00     0.069 A 
HETATM    2  C5  UNL     1      23.501   2.625  50.552  1.00  0.00     0.048 A 
HETATM    3  C6  UNL     1      24.730   2.269  51.117  1.00  0.00     0.023 A 
HETATM    4  C7  UNL     1      24.860   1.127  51.909  1.00  0.00     0.067 A 
HETATM    5  C13 UNL     1      26.114   0.864  52.421  1.00  0.00     0.089 A 
HETATM    6  C14 UNL     1      26.212  -0.319  53.230  1.00  0.00     0.103 C 
HETATM    7  N3  UNL     1      26.307  -1.282  53.898  1.00  0.00    -0.191 NA
HETATM    8  C15 UNL     1      27.187   1.690  52.162  1.00  0.00     0.142 A 
HETATM    9  N4  UNL     1      27.023   2.784  51.394  1.00  0.00    -0.259 NA
HETATM   10  C16 UNL     1      25.834   3.085  50.874  1.00  0.00     0.071 A 
HETATM   11  C17 UNL     1      25.734   4.233  50.087  1.00  0.00     0.071 A 
HETATM   12  C18 UNL     1      24.517   4.579  49.532  1.00  0.00     0.097 A 
ENDROOT
BRANCH   4  13
HETATM   13  N2  UNL     1      23.669   0.374  52.083  1.00  0.00    -0.356 N 
HETATM   14  H6  UNL     1      23.663  -0.083  51.145  1.00  0.00     0.166 HD
BRANCH  13  15
HETATM   15  C8  UNL     1      22.713   0.184  53.084  1.00  0.00     0.028 A 
HETATM   16  C9  UNL     1      22.774  -0.619  54.133  1.00  0.00     0.026 A 
HETATM   17  C10 UNL     1      21.548  -0.496  54.918  1.00  0.00    -0.001 A 
HETATM   18  C11 UNL     1      20.779   0.400  54.294  1.00  0.00    -0.005 A 
HETATM   19  C12 UNL     1      21.430   0.935  53.058  1.00  0.00     0.130 A 
HETATM   20 BR1  UNL     1      20.451   0.511  51.473  1.00  0.00    -0.080 Br
ENDBRANCH  13  15
ENDBRANCH   4  13
BRANCH   1  21
HETATM   21  N1  UNL     1      22.113   4.032  49.251  1.00  0.00    -0.321 N 
HETATM   22  C3  UNL     1      21.374   4.775  50.222  1.00  0.00     0.245 C 
HETATM   23  O1  UNL     1      22.090   4.985  51.242  1.00  0.00    -0.268 OA
HETATM   24  H4  UNL     1      21.660   3.769  48.329  1.00  0.00     0.169 HD
BRANCH  22  25
HETATM   25  C2  UNL     1      19.987   5.199  49.996  1.00  0.00     0.064 C 
HETATM   26  C1  UNL     1      18.933   4.452  50.176  1.00  0.00     0.017 C 
ENDBRANCH  22  25
ENDBRANCH   1  21
BRANCH  12  27
HETATM   27  O2  UNL     1      24.354   5.708  48.742  1.00  0.00    -0.354 OA
HETATM   28  C19 UNL     1      25.391   6.641  48.514  1.00  0.00     0.210 C 
ENDBRANCH  12  27
TORSDOF 5
ENDMDL
