MODEL 1
REMARK VINA RESULT:      -7.2      0.000      0.000
REMARK  8 active torsions:
REMARK  status: ('A' for Active; 'I' for Inactive)
REMARK    1  A    between atoms: C2_2  and  C3_3 
REMARK    2  A    between atoms: C3_3  and  C4_4 
REMARK    3  A    between atoms: C3_3  and  N1_7 
REMARK    4  A    between atoms: C6_8  and  N2_9 
REMARK    5  A    between atoms: N2_9  and  C7_10 
REMARK    6  A    between atoms: C7_10  and  C9_12 
REMARK    7  A    between atoms: C10_13  and  C11_14 
REMARK    8  A    between atoms: C11_14  and  N3_15 
ROOT
HETATM    1  N1  UNL     1      24.443   0.388  52.924  1.00  0.00    -0.319 N 
HETATM    2  C6  UNL     1      24.026   1.343  52.021  1.00  0.00     0.106 A 
HETATM    3  C14 UNL     1      22.680   1.589  52.075  1.00  0.00     0.063 A 
HETATM    4  C15 UNL     1      22.202   0.756  53.061  1.00  0.00     0.014 A 
HETATM    5  C16 UNL     1      23.288   0.068  53.531  1.00  0.00     0.072 A 
HETATM    6  C17 UNL     1      23.229  -0.924  54.601  1.00  0.00     0.054 C 
HETATM    7  C18 UNL     1      24.438  -1.115  55.437  1.00  0.00     0.072 C 
HETATM    8  N4  UNL     1      22.181  -1.664  54.909  1.00  0.00    -0.271 NA
HETATM    9  C19 UNL     1      20.865  -1.699  54.309  1.00  0.00     0.297 C 
HETATM   10  N5  UNL     1      20.298  -0.430  53.993  1.00  0.00    -0.279 NA
HETATM   11  C20 UNL     1      20.777   0.674  53.463  1.00  0.00     0.126 C 
ENDROOT
BRANCH   2  12
HETATM   12  N2  UNL     1      24.859   2.054  51.083  1.00  0.00    -0.369 N 
HETATM   13  H7  UNL     1      25.830   1.835  50.794  1.00  0.00     0.161 HD
BRANCH  12  14
HETATM   14  C7  UNL     1      24.122   3.192  50.559  1.00  0.00     0.101 C 
HETATM   15  C8  UNL     1      23.548   2.882  49.191  1.00  0.00     0.036 C 
BRANCH  14  16
HETATM   16  C9  UNL     1      24.920   4.421  50.440  1.00  0.00    -0.005 C 
HETATM   17  C10 UNL     1      25.303   5.171  49.390  1.00  0.00     0.001 C 
BRANCH  17  18
HETATM   18  C11 UNL     1      26.125   6.413  49.390  1.00  0.00     0.298 C 
BRANCH  18  19
HETATM   19  N3  UNL     1      27.151   6.350  48.337  1.00  0.00     0.083 N 
HETATM   20  C12 UNL     1      28.023   7.508  48.510  1.00  0.00     0.309 C 
HETATM   21  C13 UNL     1      27.965   5.158  48.523  1.00  0.00     0.309 C 
ENDBRANCH  18  19
ENDBRANCH  17  18
ENDBRANCH  14  16
ENDBRANCH  12  14
ENDBRANCH   2  12
BRANCH   1  22
HETATM   22  C3  UNL     1      25.744  -0.135  53.137  1.00  0.00     0.137 C 
BRANCH  22  23
HETATM   23  C2  UNL     1      26.411  -0.932  52.138  1.00  0.00    -0.008 C 
HETATM   24  C1  UNL     1      27.004  -1.937  52.711  1.00  0.00     0.009 C 
ENDBRANCH  22  23
BRANCH  22  25
HETATM   25  C4  UNL     1      26.561   0.484  54.218  1.00  0.00     0.014 C 
HETATM   26  C5  UNL     1      27.346   1.494  53.917  1.00  0.00     0.083 C 
HETATM   27 CL1  UNL     1      27.666   2.324  52.439  1.00  0.00    -0.097 Cl
ENDBRANCH  22  25
ENDBRANCH   1  22
TORSDOF 8
ENDMDL
MODEL 2
REMARK VINA RESULT:      -7.1      2.513      4.478
REMARK  8 active torsions:
REMARK  status: ('A' for Active; 'I' for Inactive)
REMARK    1  A    between atoms: C2_2  and  C3_3 
REMARK    2  A    between atoms: C3_3  and  C4_4 
REMARK    3  A    between atoms: C3_3  and  N1_7 
REMARK    4  A    between atoms: C6_8  and  N2_9 
REMARK    5  A    between atoms: N2_9  and  C7_10 
REMARK    6  A    between atoms: C7_10  and  C9_12 
REMARK    7  A    between atoms: C10_13  and  C11_14 
REMARK    8  A    between atoms: C11_14  and  N3_15 
ROOT
HETATM    1  N1  UNL     1      24.377   1.820  51.463  1.00  0.00    -0.319 N 
HETATM    2  C6  UNL     1      25.318   2.510  50.729  1.00  0.00     0.106 A 
HETATM    3  C14 UNL     1      26.607   2.210  51.083  1.00  0.00     0.063 A 
HETATM    4  C15 UNL     1      26.495   1.281  52.092  1.00  0.00     0.014 A 
HETATM    5  C16 UNL     1      25.152   1.086  52.277  1.00  0.00     0.072 A 
HETATM    6  C17 UNL     1      24.586   0.163  53.256  1.00  0.00     0.054 C 
HETATM    7  C18 UNL     1      23.264  -0.437  52.959  1.00  0.00     0.072 C 
HETATM    8  N4  UNL     1      25.156  -0.206  54.387  1.00  0.00    -0.271 NA
HETATM    9  C19 UNL     1      26.435   0.176  54.947  1.00  0.00     0.297 C 
HETATM   10  N5  UNL     1      27.521   0.225  54.024  1.00  0.00    -0.279 NA
HETATM   11  C20 UNL     1      27.650   0.672  52.794  1.00  0.00     0.126 C 
ENDROOT
BRANCH   2  12
HETATM   12  N2  UNL     1      25.055   3.464  49.681  1.00  0.00    -0.369 N 
HETATM   13  H7  UNL     1      24.505   3.327  48.813  1.00  0.00     0.161 HD
BRANCH  12  14
HETATM   14  C7  UNL     1      25.698   4.724  50.012  1.00  0.00     0.101 C 
HETATM   15  C8  UNL     1      24.672   5.825  50.196  1.00  0.00     0.036 C 
BRANCH  14  16
HETATM   16  C9  UNL     1      26.670   5.184  49.008  1.00  0.00    -0.005 C 
HETATM   17  C10 UNL     1      27.207   6.387  48.731  1.00  0.00     0.001 C 
BRANCH  17  18
HETATM   18  C11 UNL     1      28.195   6.738  47.674  1.00  0.00     0.298 C 
BRANCH  18  19
HETATM   19  N3  UNL     1      28.909   7.976  48.029  1.00  0.00     0.083 N 
HETATM   20  C12 UNL     1      28.124   8.648  49.061  1.00  0.00     0.309 C 
HETATM   21  C13 UNL     1      30.200   7.642  48.611  1.00  0.00     0.309 C 
ENDBRANCH  18  19
ENDBRANCH  17  18
ENDBRANCH  14  16
ENDBRANCH  12  14
ENDBRANCH   2  12
BRANCH   1  22
HETATM   22  C3  UNL     1      22.961   1.889  51.393  1.00  0.00     0.137 C 
BRANCH  22  23
HETATM   23  C2  UNL     1      22.195   2.671  52.332  1.00  0.00    -0.008 C 
HETATM   24  C1  UNL     1      22.111   3.897  51.909  1.00  0.00     0.009 C 
ENDBRANCH  22  23
BRANCH  22  25
HETATM   25  C4  UNL     1      22.320   1.485  50.111  1.00  0.00     0.014 C 
HETATM   26  C5  UNL     1      21.190   0.815  50.153  1.00  0.00     0.083 C 
HETATM   27 CL1  UNL     1      20.211   0.258  51.459  1.00  0.00    -0.097 Cl
ENDBRANCH  22  25
ENDBRANCH   1  22
TORSDOF 8
ENDMDL
MODEL 3
REMARK VINA RESULT:      -7.0      2.672      4.828
REMARK  8 active torsions:
REMARK  status: ('A' for Active; 'I' for Inactive)
REMARK    1  A    between atoms: C2_2  and  C3_3 
REMARK    2  A    between atoms: C3_3  and  C4_4 
REMARK    3  A    between atoms: C3_3  and  N1_7 
REMARK    4  A    between atoms: C6_8  and  N2_9 
REMARK    5  A    between atoms: N2_9  and  C7_10 
REMARK    6  A    between atoms: C7_10  and  C9_12 
REMARK    7  A    between atoms: C10_13  and  C11_14 
REMARK    8  A    between atoms: C11_14  and  N3_15 
ROOT
HETATM    1  N1  UNL     1      23.948   1.625  52.353  1.00  0.00    -0.319 N 
HETATM    2  C6  UNL     1      25.005   2.466  52.077  1.00  0.00     0.106 A 
HETATM    3  C14 UNL     1      26.172   2.088  52.684  1.00  0.00     0.063 A 
HETATM    4  C15 UNL     1      25.858   0.947  53.386  1.00  0.00     0.014 A 
HETATM    5  C16 UNL     1      24.529   0.717  53.155  1.00  0.00     0.072 A 
HETATM    6  C17 UNL     1      23.785  -0.412  53.708  1.00  0.00     0.054 C 
HETATM    7  C18 UNL     1      22.625  -0.920  52.939  1.00  0.00     0.072 C 
HETATM    8  N4  UNL     1      24.062  -1.039  54.835  1.00  0.00    -0.271 NA
HETATM    9  C19 UNL     1      25.124  -0.803  55.788  1.00  0.00     0.297 C 
HETATM   10  N5  UNL     1      26.408  -0.539  55.227  1.00  0.00    -0.279 NA
HETATM   11  C20 UNL     1      26.826   0.186  54.213  1.00  0.00     0.126 C 
ENDROOT
BRANCH   2  12
HETATM   12  N2  UNL     1      24.965   3.643  51.244  1.00  0.00    -0.369 N 
HETATM   13  H7  UNL     1      24.720   4.612  51.517  1.00  0.00     0.161 HD
BRANCH  12  14
HETATM   14  C7  UNL     1      25.334   3.278  49.887  1.00  0.00     0.101 C 
HETATM   15  C8  UNL     1      26.648   3.921  49.491  1.00  0.00     0.036 C 
BRANCH  14  16
HETATM   16  C9  UNL     1      24.333   3.647  48.873  1.00  0.00    -0.005 C 
HETATM   17  C10 UNL     1      23.349   4.564  48.844  1.00  0.00     0.001 C 
BRANCH  17  18
HETATM   18  C11 UNL     1      22.383   4.851  47.747  1.00  0.00     0.298 C 
BRANCH  18  19
HETATM   19  N3  UNL     1      22.010   3.607  47.054  1.00  0.00     0.083 N 
HETATM   20  C12 UNL     1      20.676   3.235  47.517  1.00  0.00     0.309 C 
HETATM   21  C13 UNL     1      21.921   3.856  45.623  1.00  0.00     0.309 C 
ENDBRANCH  18  19
ENDBRANCH  17  18
ENDBRANCH  14  16
ENDBRANCH  12  14
ENDBRANCH   2  12
BRANCH   1  22
HETATM   22  C3  UNL     1      22.599   1.711  51.925  1.00  0.00     0.137 C 
BRANCH  22  23
HETATM   23  C2  UNL     1      21.626   2.497  52.643  1.00  0.00    -0.008 C 
HETATM   24  C1  UNL     1      21.560   3.686  52.122  1.00  0.00     0.009 C 
ENDBRANCH  22  23
BRANCH  22  25
HETATM   25  C4  UNL     1      22.302   1.321  50.519  1.00  0.00     0.014 C 
HETATM   26  C5  UNL     1      21.151   0.747  50.251  1.00  0.00     0.083 C 
HETATM   27 CL1  UNL     1      19.805   0.313  51.239  1.00  0.00    -0.097 Cl
ENDBRANCH  22  25
ENDBRANCH   1  22
TORSDOF 8
ENDMDL
MODEL 4
REMARK VINA RESULT:      -6.9      2.473      7.502
REMARK  8 active torsions:
REMARK  status: ('A' for Active; 'I' for Inactive)
REMARK    1  A    between atoms: C2_2  and  C3_3 
REMARK    2  A    between atoms: C3_3  and  C4_4 
REMARK    3  A    between atoms: C3_3  and  N1_7 
REMARK    4  A    between atoms: C6_8  and  N2_9 
REMARK    5  A    between atoms: N2_9  and  C7_10 
REMARK    6  A    between atoms: C7_10  and  C9_12 
REMARK    7  A    between atoms: C10_13  and  C11_14 
REMARK    8  A    between atoms: C11_14  and  N3_15 
ROOT
HETATM    1  N1  UNL     1      24.085   2.011  51.094  1.00  0.00    -0.319 N 
HETATM    2  C6  UNL     1      22.900   1.312  51.010  1.00  0.00     0.106 A 
HETATM    3  C14 UNL     1      22.120   1.693  49.951  1.00  0.00     0.063 A 
HETATM    4  C15 UNL     1      22.834   2.684  49.317  1.00  0.00     0.014 A 
HETATM    5  C16 UNL     1      23.990   2.832  50.036  1.00  0.00     0.072 A 
HETATM    6  C17 UNL     1      25.047   3.782  49.699  1.00  0.00     0.054 C 
HETATM    7  C18 UNL     1      26.434   3.443  50.093  1.00  0.00     0.072 C 
HETATM    8  N4  UNL     1      24.883   4.921  49.054  1.00  0.00    -0.271 NA
HETATM    9  C19 UNL     1      23.677   5.519  48.523  1.00  0.00     0.297 C 
HETATM   10  N5  UNL     1      22.789   4.624  47.856  1.00  0.00    -0.279 NA
HETATM   11  C20 UNL     1      22.366   3.405  48.109  1.00  0.00     0.126 C 
ENDROOT
BRANCH   2  12
HETATM   12  N2  UNL     1      22.454   0.273  51.905  1.00  0.00    -0.369 N 
HETATM   13  H7  UNL     1      22.768  -0.713  51.947  1.00  0.00     0.161 HD
BRANCH  12  14
HETATM   14  C7  UNL     1      21.444   0.815  52.798  1.00  0.00     0.101 C 
HETATM   15  C8  UNL     1      21.584   0.233  54.191  1.00  0.00     0.036 C 
BRANCH  14  16
HETATM   16  C9  UNL     1      20.062   0.580  52.353  1.00  0.00    -0.005 C 
HETATM   17  C10 UNL     1      19.156  -0.375  52.632  1.00  0.00     0.001 C 
BRANCH  17  18
HETATM   18  C11 UNL     1      17.766  -0.513  52.114  1.00  0.00     0.298 C 
BRANCH  18  19
HETATM   19  N3  UNL     1      16.949  -1.311  53.042  1.00  0.00     0.083 N 
HETATM   20  C12 UNL     1      15.823  -1.845  52.281  1.00  0.00     0.309 C 
HETATM   21  C13 UNL     1      17.726  -2.444  53.523  1.00  0.00     0.309 C 
ENDBRANCH  18  19
ENDBRANCH  17  18
ENDBRANCH  14  16
ENDBRANCH  12  14
ENDBRANCH   2  12
BRANCH   1  22
HETATM   22  C3  UNL     1      25.119   1.908  52.059  1.00  0.00     0.137 C 
BRANCH  22  23
HETATM   23  C2  UNL     1      24.996   2.505  53.366  1.00  0.00    -0.008 C 
HETATM   24  C1  UNL     1      24.208   3.537  53.299  1.00  0.00     0.009 C 
ENDBRANCH  22  23
BRANCH  22  25
HETATM   25  C4  UNL     1      26.139   0.842  51.856  1.00  0.00     0.014 C 
HETATM   26  C5  UNL     1      26.096  -0.228  52.617  1.00  0.00     0.083 C 
HETATM   27 CL1  UNL     1      25.043  -0.711  53.894  1.00  0.00    -0.097 Cl
ENDBRANCH  22  25
ENDBRANCH   1  22
TORSDOF 8
ENDMDL
MODEL 5
REMARK VINA RESULT:      -6.9      3.081      7.544
REMARK  8 active torsions:
REMARK  status: ('A' for Active; 'I' for Inactive)
REMARK    1  A    between atoms: C2_2  and  C3_3 
REMARK    2  A    between atoms: C3_3  and  C4_4 
REMARK    3  A    between atoms: C3_3  and  N1_7 
REMARK    4  A    between atoms: C6_8  and  N2_9 
REMARK    5  A    between atoms: N2_9  and  C7_10 
REMARK    6  A    between atoms: C7_10  and  C9_12 
REMARK    7  A    between atoms: C10_13  and  C11_14 
REMARK    8  A    between atoms: C11_14  and  N3_15 
ROOT
HETATM    1  N1  UNL     1      23.389   1.662  52.072  1.00  0.00    -0.319 N 
HETATM    2  C6  UNL     1      22.375   1.050  52.779  1.00  0.00     0.106 A 
HETATM    3  C14 UNL     1      22.821   0.073  53.628  1.00  0.00     0.063 A 
HETATM    4  C15 UNL     1      24.188   0.053  53.466  1.00  0.00     0.014 A 
HETATM    5  C16 UNL     1      24.470   1.014  52.533  1.00  0.00     0.072 A 
HETATM    6  C17 UNL     1      25.818   1.335  52.070  1.00  0.00     0.054 C 
HETATM    7  C18 UNL     1      26.080   2.717  51.605  1.00  0.00     0.072 C 
HETATM    8  N4  UNL     1      26.841   0.503  52.042  1.00  0.00    -0.271 NA
HETATM    9  C19 UNL     1      26.917  -0.885  52.443  1.00  0.00     0.297 C 
HETATM   10  N5  UNL     1      26.253  -1.211  53.662  1.00  0.00    -0.279 NA
HETATM   11  C20 UNL     1      25.098  -0.868  54.188  1.00  0.00     0.126 C 
ENDROOT
BRANCH   2  12
HETATM   12  N2  UNL     1      20.968   1.350  52.689  1.00  0.00    -0.369 N 
HETATM   13  H7  UNL     1      20.460   2.162  53.086  1.00  0.00     0.161 HD
BRANCH  12  14
HETATM   14  C7  UNL     1      20.307   0.306  51.925  1.00  0.00     0.101 C 
HETATM   15  C8  UNL     1      19.804   0.841  50.599  1.00  0.00     0.036 C 
BRANCH  14  16
HETATM   16  C9  UNL     1      19.166  -0.313  52.618  1.00  0.00    -0.005 C 
HETATM   17  C10 UNL     1      17.920  -0.640  52.227  1.00  0.00     0.001 C 
BRANCH  17  18
HETATM   18  C11 UNL     1      16.834  -1.270  53.028  1.00  0.00     0.298 C 
BRANCH  18  19
HETATM   19  N3  UNL     1      15.588  -1.328  52.246  1.00  0.00     0.083 N 
HETATM   20  C12 UNL     1      15.902  -0.874  50.894  1.00  0.00     0.309 C 
HETATM   21  C13 UNL     1      15.139  -2.709  52.149  1.00  0.00     0.309 C 
ENDBRANCH  18  19
ENDBRANCH  17  18
ENDBRANCH  14  16
ENDBRANCH  12  14
ENDBRANCH   2  12
BRANCH   1  22
HETATM   22  C3  UNL     1      23.306   2.689  51.096  1.00  0.00     0.137 C 
BRANCH  22  23
HETATM   23  C2  UNL     1      22.863   2.419  49.751  1.00  0.00    -0.008 C 
HETATM   24  C1  UNL     1      23.579   3.108  48.912  1.00  0.00     0.009 C 
ENDBRANCH  22  23
BRANCH  22  25
HETATM   25  C4  UNL     1      23.287   4.096  51.584  1.00  0.00     0.014 C 
HETATM   26  C5  UNL     1      22.131   4.712  51.691  1.00  0.00     0.083 C 
HETATM   27 CL1  UNL     1      20.510   4.218  51.368  1.00  0.00    -0.097 Cl
ENDBRANCH  22  25
ENDBRANCH   1  22
TORSDOF 8
ENDMDL
MODEL 6
REMARK VINA RESULT:      -6.5      4.034     10.666
REMARK  8 active torsions:
REMARK  status: ('A' for Active; 'I' for Inactive)
REMARK    1  A    between atoms: C2_2  and  C3_3 
REMARK    2  A    between atoms: C3_3  and  C4_4 
REMARK    3  A    between atoms: C3_3  and  N1_7 
REMARK    4  A    between atoms: C6_8  and  N2_9 
REMARK    5  A    between atoms: N2_9  and  C7_10 
REMARK    6  A    between atoms: C7_10  and  C9_12 
REMARK    7  A    between atoms: C10_13  and  C11_14 
REMARK    8  A    between atoms: C11_14  and  N3_15 
ROOT
HETATM    1  N1  UNL     1      30.770   7.270  47.563  1.00  0.00    -0.319 N 
HETATM    2  C6  UNL     1      29.810   6.496  48.180  1.00  0.00     0.106 A 
HETATM    3  C14 UNL     1      30.060   5.152  48.092  1.00  0.00     0.063 A 
HETATM    4  C15 UNL     1      31.237   5.051  47.385  1.00  0.00     0.014 A 
HETATM    5  C16 UNL     1      31.614   6.335  47.098  1.00  0.00     0.072 A 
HETATM    6  C17 UNL     1      32.825   6.687  46.362  1.00  0.00     0.054 C 
HETATM    7  C18 UNL     1      33.455   7.997  46.649  1.00  0.00     0.072 C 
HETATM    8  N4  UNL     1      33.429   5.931  45.464  1.00  0.00    -0.271 NA
HETATM    9  C19 UNL     1      33.083   4.611  44.984  1.00  0.00     0.297 C 
HETATM   10  N5  UNL     1      32.669   3.681  45.982  1.00  0.00    -0.279 NA
HETATM   11  C20 UNL     1      31.891   3.767  47.038  1.00  0.00     0.126 C 
ENDROOT
BRANCH   2  12
HETATM   12  N2  UNL     1      28.638   6.975  48.869  1.00  0.00    -0.369 N 
HETATM   13  H7  UNL     1      28.589   7.501  49.760  1.00  0.00     0.161 HD
BRANCH  12  14
HETATM   14  C7  UNL     1      27.456   6.603  48.110  1.00  0.00     0.101 C 
HETATM   15  C8  UNL     1      26.885   7.800  47.375  1.00  0.00     0.036 C 
BRANCH  14  16
HETATM   16  C9  UNL     1      26.376   6.025  48.925  1.00  0.00    -0.005 C 
HETATM   17  C10 UNL     1      26.016   4.760  49.210  1.00  0.00     0.001 C 
BRANCH  17  18
HETATM   18  C11 UNL     1      24.887   4.288  50.059  1.00  0.00     0.298 C 
BRANCH  18  19
HETATM   19  N3  UNL     1      25.385   3.425  51.142  1.00  0.00     0.083 N 
HETATM   20  C12 UNL     1      24.355   2.425  51.409  1.00  0.00     0.309 C 
HETATM   21  C13 UNL     1      26.574   2.717  50.691  1.00  0.00     0.309 C 
ENDBRANCH  18  19
ENDBRANCH  17  18
ENDBRANCH  14  16
ENDBRANCH  12  14
ENDBRANCH   2  12
BRANCH   1  22
HETATM   22  C3  UNL     1      30.833   8.681  47.432  1.00  0.00     0.137 C 
BRANCH  22  23
HETATM   23  C2  UNL     1      30.111   9.378  46.396  1.00  0.00    -0.008 C 
HETATM   24  C1  UNL     1      29.962   8.594  45.369  1.00  0.00     0.009 C 
ENDBRANCH  22  23
BRANCH  22  25
HETATM   25  C4  UNL     1      31.314   9.456  48.609  1.00  0.00     0.014 C 
HETATM   26  C5  UNL     1      30.443  10.144  49.312  1.00  0.00     0.083 C 
HETATM   27 CL1  UNL     1      28.739  10.368  49.163  1.00  0.00    -0.097 Cl
ENDBRANCH  22  25
ENDBRANCH   1  22
TORSDOF 8
ENDMDL
MODEL 7
REMARK VINA RESULT:      -6.4      3.253      7.015
REMARK  8 active torsions:
REMARK  status: ('A' for Active; 'I' for Inactive)
REMARK    1  A    between atoms: C2_2  and  C3_3 
REMARK    2  A    between atoms: C3_3  and  C4_4 
REMARK    3  A    between atoms: C3_3  and  N1_7 
REMARK    4  A    between atoms: C6_8  and  N2_9 
REMARK    5  A    between atoms: N2_9  and  C7_10 
REMARK    6  A    between atoms: C7_10  and  C9_12 
REMARK    7  A    between atoms: C10_13  and  C11_14 
REMARK    8  A    between atoms: C11_14  and  N3_15 
ROOT
HETATM    1  N1  UNL     1      22.739   1.249  52.243  1.00  0.00    -0.319 N 
HETATM    2  C6  UNL     1      21.902   0.156  52.318  1.00  0.00     0.106 A 
HETATM    3  C14 UNL     1      22.352  -0.813  53.174  1.00  0.00     0.063 A 
HETATM    4  C15 UNL     1      23.535  -0.324  53.680  1.00  0.00     0.014 A 
HETATM    5  C16 UNL     1      23.716   0.900  53.095  1.00  0.00     0.072 A 
HETATM    6  C17 UNL     1      24.855   1.775  53.363  1.00  0.00     0.054 C 
HETATM    7  C18 UNL     1      24.656   3.236  53.219  1.00  0.00     0.072 C 
HETATM    8  N4  UNL     1      26.057   1.382  53.741  1.00  0.00    -0.271 NA
HETATM    9  C19 UNL     1      26.558   0.048  53.988  1.00  0.00     0.297 C 
HETATM   10  N5  UNL     1      25.681  -0.817  54.706  1.00  0.00    -0.279 NA
HETATM   11  C20 UNL     1      24.388  -1.050  54.652  1.00  0.00     0.126 C 
ENDROOT
BRANCH   2  12
HETATM   12  N2  UNL     1      20.665  -0.024  51.601  1.00  0.00    -0.369 N 
HETATM   13  H7  UNL     1      20.527  -0.402  50.645  1.00  0.00     0.161 HD
BRANCH  12  14
HETATM   14  C7  UNL     1      19.562   0.421  52.435  1.00  0.00     0.101 C 
HETATM   15  C8  UNL     1      18.783  -0.761  52.979  1.00  0.00     0.036 C 
BRANCH  14  16
HETATM   16  C9  UNL     1      18.608   1.306  51.749  1.00  0.00    -0.005 C 
HETATM   17  C10 UNL     1      17.310   1.178  51.418  1.00  0.00     0.001 C 
BRANCH  17  18
HETATM   18  C11 UNL     1      16.434   2.154  50.711  1.00  0.00     0.298 C 
BRANCH  18  19
HETATM   19  N3  UNL     1      15.662   2.947  51.682  1.00  0.00     0.083 N 
HETATM   20  C12 UNL     1      14.783   3.829  50.920  1.00  0.00     0.309 C 
HETATM   21  C13 UNL     1      14.817   2.063  52.470  1.00  0.00     0.309 C 
ENDBRANCH  18  19
ENDBRANCH  17  18
ENDBRANCH  14  16
ENDBRANCH  12  14
ENDBRANCH   2  12
BRANCH   1  22
HETATM   22  C3  UNL     1      22.613   2.421  51.453  1.00  0.00     0.137 C 
BRANCH  22  23
HETATM   23  C2  UNL     1      23.208   2.517  50.143  1.00  0.00    -0.008 C 
HETATM   24  C1  UNL     1      22.361   2.095  49.251  1.00  0.00     0.009 C 
ENDBRANCH  22  23
BRANCH  22  25
HETATM   25  C4  UNL     1      21.531   3.376  51.817  1.00  0.00     0.014 C 
HETATM   26  C5  UNL     1      21.760   4.665  51.703  1.00  0.00     0.083 C 
HETATM   27 CL1  UNL     1      23.139   5.564  51.187  1.00  0.00    -0.097 Cl
ENDBRANCH  22  25
ENDBRANCH   1  22
TORSDOF 8
ENDMDL
MODEL 8
REMARK VINA RESULT:      -6.3      3.383      6.723
REMARK  8 active torsions:
REMARK  status: ('A' for Active; 'I' for Inactive)
REMARK    1  A    between atoms: C2_2  and  C3_3 
REMARK    2  A    between atoms: C3_3  and  C4_4 
REMARK    3  A    between atoms: C3_3  and  N1_7 
REMARK    4  A    between atoms: C6_8  and  N2_9 
REMARK    5  A    between atoms: N2_9  and  C7_10 
REMARK    6  A    between atoms: C7_10  and  C9_12 
REMARK    7  A    between atoms: C10_13  and  C11_14 
REMARK    8  A    between atoms: C11_14  and  N3_15 
ROOT
HETATM    1  N1  UNL     1      22.466   1.429  52.174  1.00  0.00    -0.319 N 
HETATM    2  C6  UNL     1      21.857   0.194  52.255  1.00  0.00     0.106 A 
HETATM    3  C14 UNL     1      22.560  -0.708  53.007  1.00  0.00     0.063 A 
HETATM    4  C15 UNL     1      23.676  -0.026  53.436  1.00  0.00     0.014 A 
HETATM    5  C16 UNL     1      23.569   1.235  52.914  1.00  0.00     0.072 A 
HETATM    6  C17 UNL     1      24.547   2.297  53.133  1.00  0.00     0.054 C 
HETATM    7  C18 UNL     1      24.068   3.698  53.097  1.00  0.00     0.072 C 
HETATM    8  N4  UNL     1      25.832   2.123  53.379  1.00  0.00    -0.271 NA
HETATM    9  C19 UNL     1      26.594   0.899  53.498  1.00  0.00     0.297 C 
HETATM   10  N5  UNL     1      25.966  -0.147  54.236  1.00  0.00    -0.279 NA
HETATM   11  C20 UNL     1      24.739  -0.618  54.282  1.00  0.00     0.126 C 
ENDROOT
BRANCH   2  12
HETATM   12  N2  UNL     1      20.609  -0.186  51.640  1.00  0.00    -0.369 N 
HETATM   13  H7  UNL     1      20.463  -0.693  50.748  1.00  0.00     0.161 HD
BRANCH  12  14
HETATM   14  C7  UNL     1      19.510   0.260  52.479  1.00  0.00     0.101 C 
HETATM   15  C8  UNL     1      18.884  -0.907  53.218  1.00  0.00     0.036 C 
BRANCH  14  16
HETATM   16  C9  UNL     1      18.437   0.950  51.746  1.00  0.00    -0.005 C 
HETATM   17  C10 UNL     1      18.409   1.640  50.592  1.00  0.00     0.001 C 
BRANCH  17  18
HETATM   18  C11 UNL     1      17.247   2.306  49.939  1.00  0.00     0.298 C 
BRANCH  18  19
HETATM   19  N3  UNL     1      17.385   3.770  50.017  1.00  0.00     0.083 N 
HETATM   20  C12 UNL     1      16.559   4.340  48.957  1.00  0.00     0.309 C 
HETATM   21  C13 UNL     1      16.853   4.241  51.287  1.00  0.00     0.309 C 
ENDBRANCH  18  19
ENDBRANCH  17  18
ENDBRANCH  14  16
ENDBRANCH  12  14
ENDBRANCH   2  12
BRANCH   1  22
HETATM   22  C3  UNL     1      22.048   2.588  51.472  1.00  0.00     0.137 C 
BRANCH  22  23
HETATM   23  C2  UNL     1      21.199   3.579  52.085  1.00  0.00    -0.008 C 
HETATM   24  C1  UNL     1      20.808   4.432  51.185  1.00  0.00     0.009 C 
ENDBRANCH  22  23
BRANCH  22  25
HETATM   25  C4  UNL     1      22.821   2.966  50.256  1.00  0.00     0.014 C 
HETATM   26  C5  UNL     1      22.588   2.324  49.134  1.00  0.00     0.083 C 
HETATM   27 CL1  UNL     1      21.505   1.045  48.723  1.00  0.00    -0.097 Cl
ENDBRANCH  22  25
ENDBRANCH   1  22
TORSDOF 8
ENDMDL
MODEL 9
REMARK VINA RESULT:      -6.3      2.206      3.894
REMARK  8 active torsions:
REMARK  status: ('A' for Active; 'I' for Inactive)
REMARK    1  A    between atoms: C2_2  and  C3_3 
REMARK    2  A    between atoms: C3_3  and  C4_4 
REMARK    3  A    between atoms: C3_3  and  N1_7 
REMARK    4  A    between atoms: C6_8  and  N2_9 
REMARK    5  A    between atoms: N2_9  and  C7_10 
REMARK    6  A    between atoms: C7_10  and  C9_12 
REMARK    7  A    between atoms: C10_13  and  C11_14 
REMARK    8  A    between atoms: C11_14  and  N3_15 
ROOT
HETATM    1  N1  UNL     1      23.488   1.871  52.392  1.00  0.00    -0.319 N 
HETATM    2  C6  UNL     1      24.635   2.626  52.515  1.00  0.00     0.106 A 
HETATM    3  C14 UNL     1      25.609   2.015  53.258  1.00  0.00     0.063 A 
HETATM    4  C15 UNL     1      25.069   0.806  53.633  1.00  0.00     0.014 A 
HETATM    5  C16 UNL     1      23.812   0.772  53.093  1.00  0.00     0.072 A 
HETATM    6  C17 UNL     1      22.887  -0.349  53.240  1.00  0.00     0.054 C 
HETATM    7  C18 UNL     1      21.896  -0.575  52.163  1.00  0.00     0.072 C 
HETATM    8  N4  UNL     1      22.863  -1.201  54.248  1.00  0.00    -0.271 NA
HETATM    9  C19 UNL     1      23.700  -1.265  55.426  1.00  0.00     0.297 C 
HETATM   10  N5  UNL     1      25.092  -1.046  55.205  1.00  0.00    -0.279 NA
HETATM   11  C20 UNL     1      25.773  -0.198  54.467  1.00  0.00     0.126 C 
ENDROOT
BRANCH   2  12
HETATM   12  N2  UNL     1      24.863   3.933  51.950  1.00  0.00    -0.369 N 
HETATM   13  H7  UNL     1      24.853   4.850  52.433  1.00  0.00     0.161 HD
BRANCH  12  14
HETATM   14  C7  UNL     1      25.123   3.797  50.527  1.00  0.00     0.101 C 
HETATM   15  C8  UNL     1      26.522   3.267  50.281  1.00  0.00     0.036 C 
BRANCH  14  16
HETATM   16  C9  UNL     1      24.981   5.049  49.769  1.00  0.00    -0.005 C 
HETATM   17  C10 UNL     1      24.260   5.391  48.685  1.00  0.00     0.001 C 
BRANCH  17  18
HETATM   18  C11 UNL     1      24.195   6.709  47.993  1.00  0.00     0.298 C 
BRANCH  18  19
HETATM   19  N3  UNL     1      25.379   7.519  48.321  1.00  0.00     0.083 N 
HETATM   20  C12 UNL     1      25.988   7.929  47.059  1.00  0.00     0.309 C 
HETATM   21  C13 UNL     1      24.964   8.727  49.018  1.00  0.00     0.309 C 
ENDBRANCH  18  19
ENDBRANCH  17  18
ENDBRANCH  14  16
ENDBRANCH  12  14
ENDBRANCH   2  12
BRANCH   1  22
HETATM   22  C3  UNL     1      22.277   2.184  51.724  1.00  0.00     0.137 C 
BRANCH  22  23
HETATM   23  C2  UNL     1      21.922   1.565  50.471  1.00  0.00    -0.008 C 
HETATM   24  C1  UNL     1      22.520   2.185  49.497  1.00  0.00     0.009 C 
ENDBRANCH  22  23
BRANCH  22  25
HETATM   25  C4  UNL     1      21.205   2.839  52.525  1.00  0.00     0.014 C 
HETATM   26  C5  UNL     1      20.948   4.111  52.317  1.00  0.00     0.083 C 
HETATM   27 CL1  UNL     1      21.626   5.279  51.244  1.00  0.00    -0.097 Cl
ENDBRANCH  22  25
ENDBRANCH   1  22
TORSDOF 8
ENDMDL
