MODEL 1
REMARK VINA RESULT:      -8.7      0.000      0.000
REMARK  6 active torsions:
REMARK  status: ('A' for Active; 'I' for Inactive)
REMARK    1  A    between atoms: C2_2  and  C3_3 
REMARK       I    between atoms: C3_3  and  N1_5 
REMARK    2  A    between atoms: C6_9  and  C7_10 
REMARK    3  A    between atoms: C7_10  and  O2_11 
REMARK    4  A    between atoms: O2_11  and  S1_12 
REMARK    5  A    between atoms: C8_14  and  N3_15 
REMARK    6  A    between atoms: N3_15  and  C9_16 
ROOT
HETATM    1  S1  UNL     1      25.543  -0.184  53.336  1.00  0.00     0.055 SA
HETATM    2  N2  UNL     1      25.758   1.122  52.428  1.00  0.00    -0.013 NA
HETATM    3  C8  UNL     1      26.854   1.915  52.110  1.00  0.00     0.731 C 
HETATM    4  N6  UNL     1      27.985   2.556  52.289  1.00  0.00    -0.085 NA
HETATM    5  C13 UNL     1      28.649   2.515  53.597  1.00  0.00     0.287 C 
HETATM    6  N7  UNL     1      29.314   1.217  53.740  1.00  0.00    -0.384 N 
HETATM    7  C14 UNL     1      28.584   0.040  53.495  1.00  0.00     0.206 A 
HETATM    8  C15 UNL     1      28.100  -1.152  53.236  1.00  0.00     0.024 A 
HETATM    9 CL1  UNL     1      29.832  -1.294  53.142  1.00  0.00    -0.158 Cl
HETATM   10  C16 UNL     1      26.715  -1.621  53.143  1.00  0.00     0.166 C 
HETATM   11  H18 UNL     1      30.124   0.619  53.949  1.00  0.00     0.156 HD
ENDROOT
BRANCH   1  12
HETATM   12  O2  UNL     1      23.840  -0.673  53.284  1.00  0.00    -0.310 OA
BRANCH  12  13
HETATM   13  C7  UNL     1      23.001   0.442  53.063  1.00  0.00     0.195 C 
BRANCH  13  14
HETATM   14  C6  UNL     1      21.666  -0.157  52.682  1.00  0.00     0.064 C 
HETATM   15  C5  UNL     1      21.029   0.774  51.667  1.00  0.00     0.195 C 
HETATM   16  C4  UNL     1      19.611   1.006  52.160  1.00  0.00     0.163 C 
HETATM   17  F1  UNL     1      21.055   0.216  50.417  1.00  0.00    -0.247 F 
HETATM   18  N1  UNL     1      19.416  -0.186  53.002  1.00  0.00    -0.345 N 
HETATM   19  C3  UNL     1      18.395  -1.190  53.124  1.00  0.00     0.242 C 
HETATM   20  C17 UNL     1      20.653  -0.124  53.800  1.00  0.00     0.136 C 
HETATM   21  O1  UNL     1      18.169  -2.224  53.816  1.00  0.00    -0.268 OA
BRANCH  19  22
HETATM   22  C2  UNL     1      17.299  -0.948  52.173  1.00  0.00     0.064 C 
HETATM   23  C1  UNL     1      16.123  -0.560  52.659  1.00  0.00     0.017 C 
ENDBRANCH  19  22
ENDBRANCH  13  14
ENDBRANCH  12  13
ENDBRANCH   1  12
BRANCH   3  24
HETATM   24  N3  UNL     1      26.639   2.269  50.710  1.00  0.00    -0.185 N 
HETATM   25  H10 UNL     1      26.590   1.574  49.885  1.00  0.00     0.184 HD
BRANCH  24  26
HETATM   26  C9  UNL     1      26.444   3.560  50.067  1.00  0.00     0.085 A 
HETATM   27  C10 UNL     1      27.100   4.333  49.118  1.00  0.00     0.170 A 
HETATM   28  N4  UNL     1      26.391   5.458  48.962  1.00  0.00    -0.183 NA
HETATM   29  N5  UNL     1      25.325   5.479  49.736  1.00  0.00    -0.283 N 
HETATM   30  C11 UNL     1      24.462   6.641  49.670  1.00  0.00     0.179 C 
HETATM   31  C12 UNL     1      25.334   4.326  50.423  1.00  0.00     0.143 A 
ENDBRANCH  24  26
ENDBRANCH   3  24
TORSDOF 6
ENDMDL
MODEL 2
REMARK VINA RESULT:      -8.4      1.846      2.174
REMARK  6 active torsions:
REMARK  status: ('A' for Active; 'I' for Inactive)
REMARK    1  A    between atoms: C2_2  and  C3_3 
REMARK       I    between atoms: C3_3  and  N1_5 
REMARK    2  A    between atoms: C6_9  and  C7_10 
REMARK    3  A    between atoms: C7_10  and  O2_11 
REMARK    4  A    between atoms: O2_11  and  S1_12 
REMARK    5  A    between atoms: C8_14  and  N3_15 
REMARK    6  A    between atoms: N3_15  and  C9_16 
ROOT
HETATM    1  S1  UNL     1      25.568  -0.253  53.198  1.00  0.00     0.055 SA
HETATM    2  N2  UNL     1      25.813   1.081  52.340  1.00  0.00    -0.013 NA
HETATM    3  C8  UNL     1      26.915   1.894  52.101  1.00  0.00     0.731 C 
HETATM    4  N6  UNL     1      28.028   2.540  52.355  1.00  0.00    -0.085 NA
HETATM    5  C13 UNL     1      28.627   2.467  53.693  1.00  0.00     0.287 C 
HETATM    6  N7  UNL     1      29.299   1.171  53.831  1.00  0.00    -0.384 N 
HETATM    7  C14 UNL     1      28.595  -0.005  53.514  1.00  0.00     0.206 A 
HETATM    8  C15 UNL     1      28.138  -1.194  53.196  1.00  0.00     0.024 A 
HETATM    9 CL1  UNL     1      29.873  -1.316  53.185  1.00  0.00    -0.158 Cl
HETATM   10  C16 UNL     1      26.764  -1.673  53.021  1.00  0.00     0.166 C 
HETATM   11  H18 UNL     1      30.104   0.574  54.062  1.00  0.00     0.156 HD
ENDROOT
BRANCH   1  12
HETATM   12  O2  UNL     1      23.875  -0.757  53.046  1.00  0.00    -0.310 OA
BRANCH  12  13
HETATM   13  C7  UNL     1      23.187  -0.588  54.269  1.00  0.00     0.195 C 
BRANCH  13  14
HETATM   14  C6  UNL     1      21.969   0.232  53.908  1.00  0.00     0.064 C 
HETATM   15  C5  UNL     1      21.001  -0.691  53.194  1.00  0.00     0.195 C 
HETATM   16  C4  UNL     1      20.586   0.048  51.933  1.00  0.00     0.163 C 
HETATM   17  F1  UNL     1      19.929  -0.981  53.996  1.00  0.00    -0.247 F 
HETATM   18  N1  UNL     1      20.870   1.438  52.326  1.00  0.00    -0.345 N 
HETATM   19  C3  UNL     1      20.144   2.678  52.280  1.00  0.00     0.242 C 
HETATM   20  C17 UNL     1      22.238   1.269  52.845  1.00  0.00     0.136 C 
HETATM   21  O1  UNL     1      20.327   3.889  52.595  1.00  0.00    -0.268 OA
BRANCH  19  22
HETATM   22  C2  UNL     1      18.806   2.485  51.701  1.00  0.00     0.064 C 
HETATM   23  C1  UNL     1      18.172   3.551  51.221  1.00  0.00     0.017 C 
ENDBRANCH  19  22
ENDBRANCH  13  14
ENDBRANCH  12  13
ENDBRANCH   1  12
BRANCH   3  24
HETATM   24  N3  UNL     1      26.765   2.288  50.703  1.00  0.00    -0.185 N 
HETATM   25  H10 UNL     1      26.911   1.644  49.848  1.00  0.00     0.184 HD
BRANCH  24  26
HETATM   26  C9  UNL     1      26.407   3.563  50.100  1.00  0.00     0.085 A 
HETATM   27  C10 UNL     1      26.927   4.412  49.132  1.00  0.00     0.170 A 
HETATM   28  N4  UNL     1      26.103   5.463  49.041  1.00  0.00    -0.183 NA
HETATM   29  N5  UNL     1      25.088   5.366  49.875  1.00  0.00    -0.283 N 
HETATM   30  C11 UNL     1      24.112   6.438  49.884  1.00  0.00     0.179 C 
HETATM   31  C12 UNL     1      25.250   4.209  50.536  1.00  0.00     0.143 A 
ENDBRANCH  24  26
ENDBRANCH   3  24
TORSDOF 6
ENDMDL
MODEL 3
REMARK VINA RESULT:      -8.4      4.203      7.410
REMARK  6 active torsions:
REMARK  status: ('A' for Active; 'I' for Inactive)
REMARK    1  A    between atoms: C2_2  and  C3_3 
REMARK       I    between atoms: C3_3  and  N1_5 
REMARK    2  A    between atoms: C6_9  and  C7_10 
REMARK    3  A    between atoms: C7_10  and  O2_11 
REMARK    4  A    between atoms: O2_11  and  S1_12 
REMARK    5  A    between atoms: C8_14  and  N3_15 
REMARK    6  A    between atoms: N3_15  and  C9_16 
ROOT
HETATM    1  S1  UNL     1      22.458   2.887  51.497  1.00  0.00     0.055 SA
HETATM    2  N2  UNL     1      23.582   3.522  50.545  1.00  0.00    -0.013 NA
HETATM    3  C8  UNL     1      23.557   4.218  49.341  1.00  0.00     0.731 C 
HETATM    4  N6  UNL     1      23.165   4.544  48.133  1.00  0.00    -0.085 NA
HETATM    5  C13 UNL     1      22.065   3.808  47.498  1.00  0.00     0.287 C 
HETATM    6  N7  UNL     1      20.801   4.270  48.078  1.00  0.00    -0.384 N 
HETATM    7  C14 UNL     1      20.659   4.304  49.477  1.00  0.00     0.206 A 
HETATM    8  C15 UNL     1      20.365   4.481  50.744  1.00  0.00     0.024 A 
HETATM    9 CL1  UNL     1      19.272   5.489  49.840  1.00  0.00    -0.158 Cl
HETATM   10  C16 UNL     1      20.973   3.919  51.953  1.00  0.00     0.166 C 
HETATM   11  H18 UNL     1      19.838   4.626  48.016  1.00  0.00     0.156 HD
ENDROOT
BRANCH   1  12
HETATM   12  O2  UNL     1      23.226   2.129  52.904  1.00  0.00    -0.310 OA
BRANCH  12  13
HETATM   13  C7  UNL     1      23.526   0.772  52.644  1.00  0.00     0.195 C 
BRANCH  13  14
HETATM   14  C6  UNL     1      25.030   0.686  52.769  1.00  0.00     0.064 C 
HETATM   15  C5  UNL     1      25.336  -0.435  53.745  1.00  0.00     0.195 C 
HETATM   16  C4  UNL     1      26.329   0.148  54.737  1.00  0.00     0.163 C 
HETATM   17  F1  UNL     1      25.845  -1.522  53.086  1.00  0.00    -0.247 F 
HETATM   18  N1  UNL     1      26.892   1.252  53.943  1.00  0.00    -0.345 N 
HETATM   19  C3  UNL     1      28.219   1.711  53.633  1.00  0.00     0.242 C 
HETATM   20  C17 UNL     1      25.642   1.873  53.471  1.00  0.00     0.136 C 
HETATM   21  O1  UNL     1      28.764   2.638  52.968  1.00  0.00    -0.268 OA
BRANCH  19  22
HETATM   22  C2  UNL     1      29.234   0.858  54.270  1.00  0.00     0.064 C 
HETATM   23  C1  UNL     1      29.825  -0.073  53.527  1.00  0.00     0.017 C 
ENDBRANCH  19  22
ENDBRANCH  13  14
ENDBRANCH  12  13
ENDBRANCH   1  12
BRANCH   3  24
HETATM   24  N3  UNL     1      24.620   5.208  49.485  1.00  0.00    -0.185 N 
HETATM   25  H10 UNL     1      24.513   6.188  49.928  1.00  0.00     0.184 HD
BRANCH  24  26
HETATM   26  C9  UNL     1      26.023   5.171  49.101  1.00  0.00     0.085 A 
HETATM   27  C10 UNL     1      27.046   4.232  49.072  1.00  0.00     0.170 A 
HETATM   28  N4  UNL     1      28.139   4.847  48.604  1.00  0.00    -0.183 NA
HETATM   29  N5  UNL     1      27.909   6.114  48.326  1.00  0.00    -0.283 N 
HETATM   30  C11 UNL     1      29.007   6.906  47.808  1.00  0.00     0.179 C 
HETATM   31  C12 UNL     1      26.618   6.338  48.622  1.00  0.00     0.143 A 
ENDBRANCH  24  26
ENDBRANCH   3  24
TORSDOF 6
ENDMDL
MODEL 4
REMARK VINA RESULT:      -8.1      4.096      8.616
REMARK  6 active torsions:
REMARK  status: ('A' for Active; 'I' for Inactive)
REMARK    1  A    between atoms: C2_2  and  C3_3 
REMARK       I    between atoms: C3_3  and  N1_5 
REMARK    2  A    between atoms: C6_9  and  C7_10 
REMARK    3  A    between atoms: C7_10  and  O2_11 
REMARK    4  A    between atoms: O2_11  and  S1_12 
REMARK    5  A    between atoms: C8_14  and  N3_15 
REMARK    6  A    between atoms: N3_15  and  C9_16 
ROOT
HETATM    1  S1  UNL     1      23.138   3.810  52.023  1.00  0.00     0.055 SA
HETATM    2  N2  UNL     1      24.183   2.757  52.635  1.00  0.00    -0.013 NA
HETATM    3  C8  UNL     1      24.190   1.377  52.796  1.00  0.00     0.731 C 
HETATM    4  N6  UNL     1      23.717   0.178  53.041  1.00  0.00    -0.085 NA
HETATM    5  C13 UNL     1      22.298   0.006  53.374  1.00  0.00     0.287 C 
HETATM    6  N7  UNL     1      21.515   0.109  52.138  1.00  0.00    -0.384 N 
HETATM    7  C14 UNL     1      21.717   1.210  51.287  1.00  0.00     0.206 A 
HETATM    8  C15 UNL     1      21.816   2.109  50.336  1.00  0.00     0.024 A 
HETATM    9 CL1  UNL     1      21.088   0.705  49.611  1.00  0.00    -0.158 Cl
HETATM   10  C16 UNL     1      22.378   3.462  50.356  1.00  0.00     0.166 C 
HETATM   11  H18 UNL     1      20.810  -0.225  51.468  1.00  0.00     0.156 HD
ENDROOT
BRANCH   1  12
HETATM   12  O2  UNL     1      23.800   5.450  52.148  1.00  0.00    -0.310 OA
BRANCH  12  13
HETATM   13  C7  UNL     1      23.589   6.172  50.952  1.00  0.00     0.195 C 
BRANCH  13  14
HETATM   14  C6  UNL     1      24.976   6.391  50.392  1.00  0.00     0.064 C 
HETATM   15  C5  UNL     1      24.959   7.716  49.654  1.00  0.00     0.195 C 
HETATM   16  C4  UNL     1      25.584   7.437  48.298  1.00  0.00     0.163 C 
HETATM   17  F1  UNL     1      25.653   8.667  50.355  1.00  0.00    -0.247 F 
HETATM   18  N1  UNL     1      26.368   6.229  48.602  1.00  0.00    -0.345 N 
HETATM   19  C3  UNL     1      27.724   5.810  48.373  1.00  0.00     0.242 C 
HETATM   20  C17 UNL     1      25.332   5.432  49.282  1.00  0.00     0.136 C 
HETATM   21  O1  UNL     1      28.450   4.801  48.604  1.00  0.00    -0.268 OA
BRANCH  19  22
HETATM   22  C2  UNL     1      28.486   6.852  47.667  1.00  0.00     0.064 C 
HETATM   23  C1  UNL     1      29.235   7.678  48.391  1.00  0.00     0.017 C 
ENDBRANCH  19  22
ENDBRANCH  13  14
ENDBRANCH  12  13
ENDBRANCH   1  12
BRANCH   3  24
HETATM   24  N3  UNL     1      25.577   1.000  52.537  1.00  0.00    -0.185 N 
HETATM   25  H10 UNL     1      26.082   1.071  51.585  1.00  0.00     0.184 HD
BRANCH  24  26
HETATM   26  C9  UNL     1      26.602   0.456  53.415  1.00  0.00     0.085 A 
HETATM   27  C10 UNL     1      26.791   0.295  54.781  1.00  0.00     0.170 A 
HETATM   28  N4  UNL     1      27.986  -0.286  54.952  1.00  0.00    -0.183 NA
HETATM   29  N5  UNL     1      28.591  -0.513  53.804  1.00  0.00    -0.283 N 
HETATM   30  C11 UNL     1      29.897  -1.141  53.838  1.00  0.00     0.179 C 
HETATM   31  C12 UNL     1      27.763  -0.068  52.845  1.00  0.00     0.143 A 
ENDBRANCH  24  26
ENDBRANCH   3  24
TORSDOF 6
ENDMDL
MODEL 5
REMARK VINA RESULT:      -8.0      3.592      7.865
REMARK  6 active torsions:
REMARK  status: ('A' for Active; 'I' for Inactive)
REMARK    1  A    between atoms: C2_2  and  C3_3 
REMARK       I    between atoms: C3_3  and  N1_5 
REMARK    2  A    between atoms: C6_9  and  C7_10 
REMARK    3  A    between atoms: C7_10  and  O2_11 
REMARK    4  A    between atoms: O2_11  and  S1_12 
REMARK    5  A    between atoms: C8_14  and  N3_15 
REMARK    6  A    between atoms: N3_15  and  C9_16 
ROOT
HETATM    1  S1  UNL     1      21.496   2.874  52.432  1.00  0.00     0.055 SA
HETATM    2  N2  UNL     1      22.742   1.910  52.739  1.00  0.00    -0.013 NA
HETATM    3  C8  UNL     1      22.871   0.613  53.222  1.00  0.00     0.731 C 
HETATM    4  N6  UNL     1      22.608  -0.445  53.953  1.00  0.00    -0.085 NA
HETATM    5  C13 UNL     1      21.517  -0.405  54.933  1.00  0.00     0.287 C 
HETATM    6  N7  UNL     1      20.244  -0.532  54.216  1.00  0.00    -0.384 N 
HETATM    7  C14 UNL     1      19.986   0.311  53.120  1.00  0.00     0.206 A 
HETATM    8  C15 UNL     1      19.598   0.943  52.037  1.00  0.00     0.024 A 
HETATM    9 CL1  UNL     1      18.664  -0.523  52.111  1.00  0.00    -0.158 Cl
HETATM   10  C16 UNL     1      20.057   2.206  51.453  1.00  0.00     0.166 C 
HETATM   11  H18 UNL     1      19.319  -0.952  54.055  1.00  0.00     0.156 HD
ENDROOT
BRANCH   1  12
HETATM   12  O2  UNL     1      22.083   4.430  51.818  1.00  0.00    -0.310 OA
BRANCH  12  13
HETATM   13  C7  UNL     1      21.740   4.598  50.458  1.00  0.00     0.195 C 
BRANCH  13  14
HETATM   14  C6  UNL     1      23.066   4.738  49.747  1.00  0.00     0.064 C 
HETATM   15  C5  UNL     1      23.625   3.341  49.556  1.00  0.00     0.195 C 
HETATM   16  C4  UNL     1      25.061   3.405  50.046  1.00  0.00     0.163 C 
HETATM   17  F1  UNL     1      23.546   2.965  48.241  1.00  0.00    -0.247 F 
HETATM   18  N1  UNL     1      25.331   4.846  49.916  1.00  0.00    -0.345 N 
HETATM   19  C3  UNL     1      26.381   5.638  49.336  1.00  0.00     0.242 C 
HETATM   20  C17 UNL     1      24.137   5.378  50.596  1.00  0.00     0.136 C 
HETATM   21  O1  UNL     1      26.670   6.860  49.193  1.00  0.00    -0.268 OA
BRANCH  19  22
HETATM   22  C2  UNL     1      27.418   4.782  48.739  1.00  0.00     0.064 C 
HETATM   23  C1  UNL     1      28.539   5.359  48.316  1.00  0.00     0.017 C 
ENDBRANCH  19  22
ENDBRANCH  13  14
ENDBRANCH  12  13
ENDBRANCH   1  12
BRANCH   3  24
HETATM   24  N3  UNL     1      23.987   0.062  52.460  1.00  0.00    -0.185 N 
HETATM   25  H10 UNL     1      23.904  -0.539  51.566  1.00  0.00     0.184 HD
BRANCH  24  26
HETATM   26  C9  UNL     1      25.425   0.152  52.665  1.00  0.00     0.085 A 
HETATM   27  C10 UNL     1      26.561   0.259  51.874  1.00  0.00     0.170 A 
HETATM   28  N4  UNL     1      27.618   0.292  52.696  1.00  0.00    -0.183 NA
HETATM   29  N5  UNL     1      27.258   0.213  53.961  1.00  0.00    -0.283 N 
HETATM   30  C11 UNL     1      28.303   0.237  54.966  1.00  0.00     0.179 C 
HETATM   31  C12 UNL     1      25.918   0.127  53.970  1.00  0.00     0.143 A 
ENDBRANCH  24  26
ENDBRANCH   3  24
TORSDOF 6
ENDMDL
MODEL 6
REMARK VINA RESULT:      -7.8      4.500      6.957
REMARK  6 active torsions:
REMARK  status: ('A' for Active; 'I' for Inactive)
REMARK    1  A    between atoms: C2_2  and  C3_3 
REMARK       I    between atoms: C3_3  and  N1_5 
REMARK    2  A    between atoms: C6_9  and  C7_10 
REMARK    3  A    between atoms: C7_10  and  O2_11 
REMARK    4  A    between atoms: O2_11  and  S1_12 
REMARK    5  A    between atoms: C8_14  and  N3_15 
REMARK    6  A    between atoms: N3_15  and  C9_16 
ROOT
HETATM    1  S1  UNL     1      26.482   4.957  48.974  1.00  0.00     0.055 SA
HETATM    2  N2  UNL     1      28.056   5.084  48.684  1.00  0.00    -0.013 NA
HETATM    3  C8  UNL     1      28.892   6.125  48.297  1.00  0.00     0.731 C 
HETATM    4  N6  UNL     1      29.271   7.209  47.663  1.00  0.00    -0.085 NA
HETATM    5  C13 UNL     1      28.348   7.874  46.735  1.00  0.00     0.287 C 
HETATM    6  N7  UNL     1      27.363   8.625  47.519  1.00  0.00    -0.384 N 
HETATM    7  C14 UNL     1      26.672   7.976  48.558  1.00  0.00     0.206 A 
HETATM    8  C15 UNL     1      25.991   7.574  49.606  1.00  0.00     0.024 A 
HETATM    9 CL1  UNL     1      26.040   9.311  49.688  1.00  0.00    -0.158 Cl
HETATM   10  C16 UNL     1      25.661   6.224  50.069  1.00  0.00     0.166 C 
HETATM   11  H18 UNL     1      26.831   9.474  47.754  1.00  0.00     0.156 HD
ENDROOT
BRANCH   1  12
HETATM   12  O2  UNL     1      26.093   3.291  49.438  1.00  0.00    -0.310 OA
BRANCH  12  13
HETATM   13  C7  UNL     1      26.418   3.055  50.793  1.00  0.00     0.195 C 
BRANCH  13  14
HETATM   14  C6  UNL     1      25.370   2.076  51.270  1.00  0.00     0.064 C 
HETATM   15  C5  UNL     1      24.015   2.708  51.015  1.00  0.00     0.195 C 
HETATM   16  C4  UNL     1      23.247   2.567  52.317  1.00  0.00     0.163 C 
HETATM   17  F1  UNL     1      23.380   2.086  49.973  1.00  0.00    -0.247 F 
HETATM   18  N1  UNL     1      23.960   1.437  52.934  1.00  0.00    -0.345 N 
HETATM   19  C3  UNL     1      23.568   0.197  53.547  1.00  0.00     0.242 C 
HETATM   20  C17 UNL     1      25.347   1.907  52.769  1.00  0.00     0.136 C 
HETATM   21  O1  UNL     1      24.122  -0.803  54.089  1.00  0.00    -0.268 OA
BRANCH  19  22
HETATM   22  C2  UNL     1      22.105   0.046  53.545  1.00  0.00     0.064 C 
HETATM   23  C1  UNL     1      21.518  -0.388  54.656  1.00  0.00     0.017 C 
ENDBRANCH  19  22
ENDBRANCH  13  14
ENDBRANCH  12  13
ENDBRANCH   1  12
BRANCH   3  24
HETATM   24  N3  UNL     1      30.122   5.886  49.047  1.00  0.00    -0.185 N 
HETATM   25  H10 UNL     1      30.230   5.961  50.119  1.00  0.00     0.184 HD
BRANCH  24  26
HETATM   26  C9  UNL     1      31.456   5.510  48.605  1.00  0.00     0.085 A 
HETATM   27  C10 UNL     1      32.016   4.594  47.725  1.00  0.00     0.170 A 
HETATM   28  N4  UNL     1      33.345   4.750  47.780  1.00  0.00    -0.183 NA
HETATM   29  N5  UNL     1      33.695   5.696  48.627  1.00  0.00    -0.283 N 
HETATM   30  C11 UNL     1      35.108   5.975  48.788  1.00  0.00     0.179 C 
HETATM   31  C12 UNL     1      32.554   6.179  49.146  1.00  0.00     0.143 A 
ENDBRANCH  24  26
ENDBRANCH   3  24
TORSDOF 6
ENDMDL
MODEL 7
REMARK VINA RESULT:      -7.8      3.192      5.595
REMARK  6 active torsions:
REMARK  status: ('A' for Active; 'I' for Inactive)
REMARK    1  A    between atoms: C2_2  and  C3_3 
REMARK       I    between atoms: C3_3  and  N1_5 
REMARK    2  A    between atoms: C6_9  and  C7_10 
REMARK    3  A    between atoms: C7_10  and  O2_11 
REMARK    4  A    between atoms: O2_11  and  S1_12 
REMARK    5  A    between atoms: C8_14  and  N3_15 
REMARK    6  A    between atoms: N3_15  and  C9_16 
ROOT
HETATM    1  S1  UNL     1      23.462   5.345  50.631  1.00  0.00     0.055 SA
HETATM    2  N2  UNL     1      24.465   4.124  50.911  1.00  0.00    -0.013 NA
HETATM    3  C8  UNL     1      25.812   3.895  50.655  1.00  0.00     0.731 C 
HETATM    4  N6  UNL     1      26.949   3.927  50.001  1.00  0.00    -0.085 NA
HETATM    5  C13 UNL     1      27.021   4.585  48.691  1.00  0.00     0.287 C 
HETATM    6  N7  UNL     1      27.051   6.035  48.901  1.00  0.00    -0.384 N 
HETATM    7  C14 UNL     1      26.080   6.631  49.725  1.00  0.00     0.206 A 
HETATM    8  C15 UNL     1      25.317   7.353  50.513  1.00  0.00     0.024 A 
HETATM    9 CL1  UNL     1      26.775   8.270  50.264  1.00  0.00    -0.158 Cl
HETATM   10  C16 UNL     1      23.996   7.074  51.082  1.00  0.00     0.166 C 
HETATM   11  H18 UNL     1      27.442   6.976  48.756  1.00  0.00     0.156 HD
ENDROOT
BRANCH   1  12
HETATM   12  O2  UNL     1      21.847   4.943  51.241  1.00  0.00    -0.310 OA
BRANCH  12  13
HETATM   13  C7  UNL     1      21.311   3.831  50.554  1.00  0.00     0.195 C 
BRANCH  13  14
HETATM   14  C6  UNL     1      21.542   2.662  51.484  1.00  0.00     0.064 C 
HETATM   15  C5  UNL     1      21.697   1.424  50.621  1.00  0.00     0.195 C 
HETATM   16  C4  UNL     1      20.770   0.385  51.228  1.00  0.00     0.163 C 
HETATM   17  F1  UNL     1      23.001   1.006  50.607  1.00  0.00    -0.247 F 
HETATM   18  N1  UNL     1      20.648   0.896  52.603  1.00  0.00    -0.345 N 
HETATM   19  C3  UNL     1      20.772   0.326  53.917  1.00  0.00     0.242 C 
HETATM   20  C17 UNL     1      20.330   2.304  52.310  1.00  0.00     0.136 C 
HETATM   21  O1  UNL     1      20.681   0.704  55.120  1.00  0.00    -0.268 OA
BRANCH  19  22
HETATM   22  C2  UNL     1      21.098  -1.106  53.842  1.00  0.00     0.064 C 
HETATM   23  C1  UNL     1      22.069  -1.569  54.623  1.00  0.00     0.017 C 
ENDBRANCH  19  22
ENDBRANCH  13  14
ENDBRANCH  12  13
ENDBRANCH   1  12
BRANCH   3  24
HETATM   24  N3  UNL     1      26.274   3.161  51.831  1.00  0.00    -0.185 N 
HETATM   25  H10 UNL     1      26.994   3.518  52.553  1.00  0.00     0.184 HD
BRANCH  24  26
HETATM   26  C9  UNL     1      25.930   1.839  52.331  1.00  0.00     0.085 A 
HETATM   27  C10 UNL     1      24.935   1.277  53.120  1.00  0.00     0.170 A 
HETATM   28  N4  UNL     1      25.196  -0.033  53.217  1.00  0.00    -0.183 NA
HETATM   29  N5  UNL     1      26.285  -0.368  52.555  1.00  0.00    -0.283 N 
HETATM   30  C11 UNL     1      26.689  -1.759  52.572  1.00  0.00     0.179 C 
HETATM   31  C12 UNL     1      26.754   0.763  52.002  1.00  0.00     0.143 A 
ENDBRANCH  24  26
ENDBRANCH   3  24
TORSDOF 6
ENDMDL
MODEL 8
REMARK VINA RESULT:      -7.6      3.743      8.636
REMARK  6 active torsions:
REMARK  status: ('A' for Active; 'I' for Inactive)
REMARK    1  A    between atoms: C2_2  and  C3_3 
REMARK       I    between atoms: C3_3  and  N1_5 
REMARK    2  A    between atoms: C6_9  and  C7_10 
REMARK    3  A    between atoms: C7_10  and  O2_11 
REMARK    4  A    between atoms: O2_11  and  S1_12 
REMARK    5  A    between atoms: C8_14  and  N3_15 
REMARK    6  A    between atoms: N3_15  and  C9_16 
ROOT
HETATM    1  S1  UNL     1      22.541   2.622  52.044  1.00  0.00     0.055 SA
HETATM    2  N2  UNL     1      23.363   1.528  52.883  1.00  0.00    -0.013 NA
HETATM    3  C8  UNL     1      23.016   0.378  53.582  1.00  0.00     0.731 C 
HETATM    4  N6  UNL     1      22.300  -0.410  54.349  1.00  0.00    -0.085 NA
HETATM    5  C13 UNL     1      21.031   0.070  54.908  1.00  0.00     0.287 C 
HETATM    6  N7  UNL     1      20.015   0.035  53.852  1.00  0.00    -0.384 N 
HETATM    7  C14 UNL     1      20.293   0.636  52.611  1.00  0.00     0.206 A 
HETATM    8  C15 UNL     1      20.392   1.066  51.375  1.00  0.00     0.024 A 
HETATM    9 CL1  UNL     1      19.128  -0.129  51.379  1.00  0.00    -0.158 Cl
HETATM   10  C16 UNL     1      21.303   2.044  50.775  1.00  0.00     0.166 C 
HETATM   11  H18 UNL     1      19.093  -0.219  53.473  1.00  0.00     0.156 HD
ENDROOT
BRANCH   1  12
HETATM   12  O2  UNL     1      23.655   3.848  51.410  1.00  0.00    -0.310 OA
BRANCH  12  13
HETATM   13  C7  UNL     1      24.794   3.244  50.832  1.00  0.00     0.195 C 
BRANCH  13  14
HETATM   14  C6  UNL     1      25.670   4.405  50.420  1.00  0.00     0.064 C 
HETATM   15  C5  UNL     1      24.752   5.567  50.094  1.00  0.00     0.195 C 
HETATM   16  C4  UNL     1      25.215   6.087  48.743  1.00  0.00     0.163 C 
HETATM   17  F1  UNL     1      24.826   6.528  51.067  1.00  0.00    -0.247 F 
HETATM   18  N1  UNL     1      26.602   5.594  48.721  1.00  0.00    -0.345 N 
HETATM   19  C3  UNL     1      27.886   6.177  48.440  1.00  0.00     0.242 C 
HETATM   20  C17 UNL     1      26.366   4.190  49.097  1.00  0.00     0.136 C 
HETATM   21  O1  UNL     1      29.097   5.815  48.404  1.00  0.00    -0.268 OA
BRANCH  19  22
HETATM   22  C2  UNL     1      27.755   7.602  48.098  1.00  0.00     0.064 C 
HETATM   23  C1  UNL     1      27.868   7.951  46.820  1.00  0.00     0.017 C 
ENDBRANCH  19  22
ENDBRANCH  13  14
ENDBRANCH  12  13
ENDBRANCH   1  12
BRANCH   3  24
HETATM   24  N3  UNL     1      24.117  -0.543  53.315  1.00  0.00    -0.185 N 
HETATM   25  H10 UNL     1      24.056  -1.439  52.715  1.00  0.00     0.184 HD
BRANCH  24  26
HETATM   26  C9  UNL     1      25.506  -0.526  53.747  1.00  0.00     0.085 A 
HETATM   27  C10 UNL     1      26.236  -0.009  54.809  1.00  0.00     0.170 A 
HETATM   28  N4  UNL     1      27.517  -0.346  54.613  1.00  0.00    -0.183 NA
HETATM   29  N5  UNL     1      27.679  -1.042  53.507  1.00  0.00    -0.283 N 
HETATM   30  C11 UNL     1      29.020  -1.477  53.169  1.00  0.00     0.179 C 
HETATM   31  C12 UNL     1      26.461  -1.167  52.956  1.00  0.00     0.143 A 
ENDBRANCH  24  26
ENDBRANCH   3  24
TORSDOF 6
ENDMDL
MODEL 9
REMARK VINA RESULT:      -7.5      3.767      8.448
REMARK  6 active torsions:
REMARK  status: ('A' for Active; 'I' for Inactive)
REMARK    1  A    between atoms: C2_2  and  C3_3 
REMARK       I    between atoms: C3_3  and  N1_5 
REMARK    2  A    between atoms: C6_9  and  C7_10 
REMARK    3  A    between atoms: C7_10  and  O2_11 
REMARK    4  A    between atoms: O2_11  and  S1_12 
REMARK    5  A    between atoms: C8_14  and  N3_15 
REMARK    6  A    between atoms: N3_15  and  C9_16 
ROOT
HETATM    1  S1  UNL     1      22.948   2.886  52.313  1.00  0.00     0.055 SA
HETATM    2  N2  UNL     1      23.699   1.686  53.070  1.00  0.00    -0.013 NA
HETATM    3  C8  UNL     1      23.306   0.443  53.553  1.00  0.00     0.731 C 
HETATM    4  N6  UNL     1      22.530  -0.454  54.113  1.00  0.00    -0.085 NA
HETATM    5  C13 UNL     1      21.197  -0.072  54.592  1.00  0.00     0.287 C 
HETATM    6  N7  UNL     1      20.303   0.041  53.435  1.00  0.00    -0.384 N 
HETATM    7  C14 UNL     1      20.699   0.820  52.334  1.00  0.00     0.206 A 
HETATM    8  C15 UNL     1      20.922   1.427  51.191  1.00  0.00     0.024 A 
HETATM    9 CL1  UNL     1      19.694   0.235  50.882  1.00  0.00    -0.158 Cl
HETATM   10  C16 UNL     1      21.869   2.490  50.844  1.00  0.00     0.166 C 
HETATM   11  H18 UNL     1      19.434  -0.162  52.923  1.00  0.00     0.156 HD
ENDROOT
BRANCH   1  12
HETATM   12  O2  UNL     1      24.093   4.199  51.992  1.00  0.00    -0.310 OA
BRANCH  12  13
HETATM   13  C7  UNL     1      23.425   5.441  51.902  1.00  0.00     0.195 C 
BRANCH  13  14
HETATM   14  C6  UNL     1      23.784   5.967  50.531  1.00  0.00     0.064 C 
HETATM   15  C5  UNL     1      24.908   5.100  49.997  1.00  0.00     0.195 C 
HETATM   16  C4  UNL     1      25.971   6.067  49.504  1.00  0.00     0.163 C 
HETATM   17  F1  UNL     1      24.454   4.282  48.997  1.00  0.00    -0.247 F 
HETATM   18  N1  UNL     1      25.159   7.274  49.278  1.00  0.00    -0.345 N 
HETATM   19  C3  UNL     1      25.006   8.212  48.199  1.00  0.00     0.242 C 
HETATM   20  C17 UNL     1      24.440   7.326  50.563  1.00  0.00     0.136 C 
HETATM   21  O1  UNL     1      24.336   9.254  47.945  1.00  0.00    -0.268 OA
BRANCH  19  22
HETATM   22  C2  UNL     1      25.876   7.859  47.066  1.00  0.00     0.064 C 
HETATM   23  C1  UNL     1      26.933   8.629  46.826  1.00  0.00     0.017 C 
ENDBRANCH  19  22
ENDBRANCH  13  14
ENDBRANCH  12  13
ENDBRANCH   1  12
BRANCH   3  24
HETATM   24  N3  UNL     1      24.452  -0.419  53.279  1.00  0.00    -0.185 N 
HETATM   25  H10 UNL     1      24.453  -1.272  52.616  1.00  0.00     0.184 HD
BRANCH  24  26
HETATM   26  C9  UNL     1      25.817  -0.388  53.780  1.00  0.00     0.085 A 
HETATM   27  C10 UNL     1      26.477   0.090  54.905  1.00  0.00     0.170 A 
HETATM   28  N4  UNL     1      27.776  -0.199  54.756  1.00  0.00    -0.183 NA
HETATM   29  N5  UNL     1      28.014  -0.827  53.623  1.00  0.00    -0.283 N 
HETATM   30  C11 UNL     1      29.383  -1.204  53.330  1.00  0.00     0.179 C 
HETATM   31  C12 UNL     1      26.829  -0.956  53.006  1.00  0.00     0.143 A 
ENDBRANCH  24  26
ENDBRANCH   3  24
TORSDOF 6
ENDMDL
