MODEL 1
REMARK VINA RESULT:      -7.2      0.000      0.000
REMARK  3 active torsions:
REMARK  status: ('A' for Active; 'I' for Inactive)
REMARK       I    between atoms: C1_2  and  N1_3 
REMARK    1  A    between atoms: C1_2  and  C8_14 
REMARK    2  A    between atoms: N1_3  and  S1_4 
REMARK    3  A    between atoms: S1_4  and  C2_7 
ROOT
HETATM    1  O1  UNL     1      23.580   1.881  51.024  1.00  0.00    -0.267 OA
HETATM    2  C1  UNL     1      24.340   2.263  51.946  1.00  0.00     0.266 C 
HETATM    3  N1  UNL     1      24.691   3.627  52.030  1.00  0.00    -0.249 N 
HETATM    4  H1  UNL     1      25.316   3.970  52.781  1.00  0.00     0.182 HD
ENDROOT
BRANCH   3   5
HETATM    5  S1  UNL     1      24.078   4.750  50.871  1.00  0.00     0.241 S 
HETATM    6  O2  UNL     1      22.602   4.539  50.675  1.00  0.00    -0.205 OA
HETATM    7  O3  UNL     1      24.227   6.154  51.397  1.00  0.00    -0.205 OA
BRANCH   5   8
HETATM    8  C2  UNL     1      24.842   4.562  49.281  1.00  0.00     0.155 A 
HETATM    9  C3  UNL     1      25.139   5.937  48.805  1.00  0.00    -0.003 A 
HETATM   10  C4  UNL     1      26.248   6.555  48.439  1.00  0.00     0.021 A 
HETATM   11  C5  UNL     1      27.450   5.743  48.506  1.00  0.00     0.030 A 
HETATM   12 CL1  UNL     1      28.975   6.454  48.046  1.00  0.00    -0.085 Cl
HETATM   13  C6  UNL     1      27.307   4.498  48.916  1.00  0.00    -0.001 A 
HETATM   14  C7  UNL     1      26.097   3.762  49.335  1.00  0.00     0.055 A 
ENDBRANCH   5   8
ENDBRANCH   3   5
BRANCH   2  15
HETATM   15  C8  UNL     1      24.817   1.260  52.886  1.00  0.00     0.051 A 
HETATM   16  C9  UNL     1      23.896   0.339  53.370  1.00  0.00     0.133 A 
HETATM   17  N2  UNL     1      24.276  -0.624  54.250  1.00  0.00    -0.271 NA
HETATM   18  C10 UNL     1      25.557  -0.696  54.666  1.00  0.00     0.135 A 
HETATM   19  C11 UNL     1      26.509   0.203  54.211  1.00  0.00     0.029 A 
HETATM   20 BR1  UNL     1      28.343   0.171  54.750  1.00  0.00    -0.050 Br
HETATM   21  C12 UNL     1      26.127   1.185  53.313  1.00  0.00     0.039 A 
ENDBRANCH   2  15
TORSDOF 3
ENDMDL
MODEL 2
REMARK VINA RESULT:      -7.2      3.456      6.568
REMARK  3 active torsions:
REMARK  status: ('A' for Active; 'I' for Inactive)
REMARK       I    between atoms: C1_2  and  N1_3 
REMARK    1  A    between atoms: C1_2  and  C8_14 
REMARK    2  A    between atoms: N1_3  and  S1_4 
REMARK    3  A    between atoms: S1_4  and  C2_7 
ROOT
HETATM    1  O1  UNL     1      24.873   3.263  49.118  1.00  0.00    -0.267 OA
HETATM    2  C1  UNL     1      25.460   4.128  49.811  1.00  0.00     0.266 C 
HETATM    3  N1  UNL     1      25.326   4.095  51.215  1.00  0.00    -0.249 N 
HETATM    4  H1  UNL     1      25.799   4.797  51.811  1.00  0.00     0.182 HD
ENDROOT
BRANCH   3   5
HETATM    5  S1  UNL     1      24.362   2.874  51.963  1.00  0.00     0.241 S 
HETATM    6  O2  UNL     1      24.101   3.228  53.401  1.00  0.00    -0.205 OA
HETATM    7  O3  UNL     1      23.010   2.819  51.301  1.00  0.00    -0.205 OA
BRANCH   5   8
HETATM    8  C2  UNL     1      25.159   1.289  51.959  1.00  0.00     0.155 A 
HETATM    9  C3  UNL     1      26.618   1.566  51.910  1.00  0.00    -0.003 A 
HETATM   10  C4  UNL     1      27.632   1.246  52.694  1.00  0.00     0.021 A 
HETATM   11  C5  UNL     1      27.279   0.456  53.860  1.00  0.00     0.030 A 
HETATM   12 CL1  UNL     1      28.537  -0.025  54.967  1.00  0.00    -0.085 Cl
HETATM   13  C6  UNL     1      26.005   0.148  54.007  1.00  0.00    -0.001 A 
HETATM   14  C7  UNL     1      24.837   0.478  53.165  1.00  0.00     0.055 A 
ENDBRANCH   5   8
ENDBRANCH   3   5
BRANCH   2  15
HETATM   15  C8  UNL     1      26.255   5.126  49.112  1.00  0.00     0.051 A 
HETATM   16  C9  UNL     1      25.608   6.274  48.671  1.00  0.00     0.133 A 
HETATM   17  N2  UNL     1      26.293   7.246  48.013  1.00  0.00    -0.271 NA
HETATM   18  C10 UNL     1      27.613   7.106  47.778  1.00  0.00     0.135 A 
HETATM   19  C11 UNL     1      28.300   5.978  48.200  1.00  0.00     0.029 A 
HETATM   20 BR1  UNL     1      30.169   5.701  47.908  1.00  0.00    -0.050 Br
HETATM   21  C12 UNL     1      27.607   4.985  48.872  1.00  0.00     0.039 A 
ENDBRANCH   2  15
TORSDOF 3
ENDMDL
MODEL 3
REMARK VINA RESULT:      -7.1      1.725      1.992
REMARK  3 active torsions:
REMARK  status: ('A' for Active; 'I' for Inactive)
REMARK       I    between atoms: C1_2  and  N1_3 
REMARK    1  A    between atoms: C1_2  and  C8_14 
REMARK    2  A    between atoms: N1_3  and  S1_4 
REMARK    3  A    between atoms: S1_4  and  C2_7 
ROOT
HETATM    1  O1  UNL     1      23.000   2.378  50.708  1.00  0.00    -0.267 OA
HETATM    2  C1  UNL     1      23.743   2.548  51.704  1.00  0.00     0.266 C 
HETATM    3  N1  UNL     1      24.350   3.806  51.905  1.00  0.00    -0.249 N 
HETATM    4  H1  UNL     1      24.968   3.974  52.720  1.00  0.00     0.182 HD
ENDROOT
BRANCH   3   5
HETATM    5  S1  UNL     1      24.070   5.090  50.787  1.00  0.00     0.241 S 
HETATM    6  O2  UNL     1      22.597   5.235  50.523  1.00  0.00    -0.205 OA
HETATM    7  O3  UNL     1      24.511   6.397  51.393  1.00  0.00    -0.205 OA
BRANCH   5   8
HETATM    8  C2  UNL     1      24.848   4.799  49.219  1.00  0.00     0.155 A 
HETATM    9  C3  UNL     1      25.277   6.132  48.722  1.00  0.00    -0.003 A 
HETATM   10  C4  UNL     1      26.445   6.640  48.371  1.00  0.00     0.021 A 
HETATM   11  C5  UNL     1      27.568   5.726  48.481  1.00  0.00     0.030 A 
HETATM   12 CL1  UNL     1      29.160   6.287  48.044  1.00  0.00    -0.085 Cl
HETATM   13  C6  UNL     1      27.305   4.508  48.913  1.00  0.00    -0.001 A 
HETATM   14  C7  UNL     1      26.025   3.892  49.318  1.00  0.00     0.055 A 
ENDBRANCH   5   8
ENDBRANCH   3   5
BRANCH   2  15
HETATM   15  C8  UNL     1      23.933   1.421  52.605  1.00  0.00     0.051 A 
HETATM   16  C9  UNL     1      25.216   1.189  53.086  1.00  0.00     0.133 A 
HETATM   17  N2  UNL     1      25.461   0.153  53.931  1.00  0.00    -0.271 NA
HETATM   18  C10 UNL     1      24.459  -0.664  54.313  1.00  0.00     0.135 A 
HETATM   19  C11 UNL     1      23.164  -0.470  53.857  1.00  0.00     0.029 A 
HETATM   20 BR1  UNL     1      21.688  -1.582  54.349  1.00  0.00    -0.050 Br
HETATM   21  C12 UNL     1      22.909   0.584  52.997  1.00  0.00     0.039 A 
ENDBRANCH   2  15
TORSDOF 3
ENDMDL
MODEL 4
REMARK VINA RESULT:      -7.1      5.322      6.543
REMARK  3 active torsions:
REMARK  status: ('A' for Active; 'I' for Inactive)
REMARK       I    between atoms: C1_2  and  N1_3 
REMARK    1  A    between atoms: C1_2  and  C8_14 
REMARK    2  A    between atoms: N1_3  and  S1_4 
REMARK    3  A    between atoms: S1_4  and  C2_7 
ROOT
HETATM    1  O1  UNL     1      22.367   0.632  53.832  1.00  0.00    -0.267 OA
HETATM    2  C1  UNL     1      22.186   0.892  52.619  1.00  0.00     0.266 C 
HETATM    3  N1  UNL     1      23.250   1.429  51.862  1.00  0.00    -0.249 N 
HETATM    4  H1  UNL     1      23.127   1.654  50.858  1.00  0.00     0.182 HD
ENDROOT
BRANCH   3   5
HETATM    5  S1  UNL     1      24.779   1.723  52.607  1.00  0.00     0.241 S 
HETATM    6  O2  UNL     1      25.815   2.024  51.560  1.00  0.00    -0.205 OA
HETATM    7  O3  UNL     1      24.695   2.954  53.470  1.00  0.00    -0.205 OA
BRANCH   5   8
HETATM    8  C2  UNL     1      25.363   0.319  53.522  1.00  0.00     0.155 A 
HETATM    9  C3  UNL     1      26.060  -0.549  52.537  1.00  0.00    -0.003 A 
HETATM   10  C4  UNL     1      27.288  -1.026  52.454  1.00  0.00     0.021 A 
HETATM   11  C5  UNL     1      28.171  -0.639  53.540  1.00  0.00     0.030 A 
HETATM   12 CL1  UNL     1      29.818  -1.211  53.536  1.00  0.00    -0.085 Cl
HETATM   13  C6  UNL     1      27.658   0.134  54.478  1.00  0.00    -0.001 A 
HETATM   14  C7  UNL     1      26.298   0.694  54.619  1.00  0.00     0.055 A 
ENDBRANCH   5   8
ENDBRANCH   3   5
BRANCH   2  15
HETATM   15  C8  UNL     1      20.871   0.619  52.059  1.00  0.00     0.051 A 
HETATM   16  C9  UNL     1      20.587   1.133  50.800  1.00  0.00     0.133 A 
HETATM   17  N2  UNL     1      19.378   0.913  50.219  1.00  0.00    -0.271 NA
HETATM   18  C10 UNL     1      18.437   0.192  50.862  1.00  0.00     0.135 A 
HETATM   19  C11 UNL     1      18.677  -0.339  52.120  1.00  0.00     0.029 A 
HETATM   20 BR1  UNL     1      17.399  -1.371  53.098  1.00  0.00    -0.050 Br
HETATM   21  C12 UNL     1      19.908  -0.119  52.715  1.00  0.00     0.039 A 
ENDBRANCH   2  15
TORSDOF 3
ENDMDL
MODEL 5
REMARK VINA RESULT:      -7.1      4.252      7.163
REMARK  3 active torsions:
REMARK  status: ('A' for Active; 'I' for Inactive)
REMARK       I    between atoms: C1_2  and  N1_3 
REMARK    1  A    between atoms: C1_2  and  C8_14 
REMARK    2  A    between atoms: N1_3  and  S1_4 
REMARK    3  A    between atoms: S1_4  and  C2_7 
ROOT
HETATM    1  O1  UNL     1      24.177   4.364  49.136  1.00  0.00    -0.267 OA
HETATM    2  C1  UNL     1      25.224   4.566  49.795  1.00  0.00     0.266 C 
HETATM    3  N1  UNL     1      25.279   4.156  51.145  1.00  0.00    -0.249 N 
HETATM    4  H1  UNL     1      26.131   4.310  51.713  1.00  0.00     0.182 HD
ENDROOT
BRANCH   3   5
HETATM    5  S1  UNL     1      23.915   3.388  51.871  1.00  0.00     0.241 S 
HETATM    6  O2  UNL     1      24.061   3.380  53.368  1.00  0.00    -0.205 OA
HETATM    7  O3  UNL     1      22.670   4.186  51.583  1.00  0.00    -0.205 OA
BRANCH   5   8
HETATM    8  C2  UNL     1      23.742   1.697  51.361  1.00  0.00     0.155 A 
HETATM    9  C3  UNL     1      24.334   0.879  52.451  1.00  0.00    -0.003 A 
HETATM   10  C4  UNL     1      23.865  -0.082  53.226  1.00  0.00     0.021 A 
HETATM   11  C5  UNL     1      22.478  -0.440  52.985  1.00  0.00     0.030 A 
HETATM   12 CL1  UNL     1      21.751  -1.698  53.949  1.00  0.00    -0.085 Cl
HETATM   13  C6  UNL     1      21.848   0.223  52.035  1.00  0.00    -0.001 A 
HETATM   14  C7  UNL     1      22.323   1.302  51.144  1.00  0.00     0.055 A 
ENDBRANCH   5   8
ENDBRANCH   3   5
BRANCH   2  15
HETATM   15  C8  UNL     1      26.334   5.218  49.117  1.00  0.00     0.051 A 
HETATM   16  C9  UNL     1      27.518   4.503  48.984  1.00  0.00     0.133 A 
HETATM   17  N2  UNL     1      28.592   5.053  48.360  1.00  0.00    -0.271 NA
HETATM   18  C10 UNL     1      28.521   6.305  47.863  1.00  0.00     0.135 A 
HETATM   19  C11 UNL     1      27.361   7.055  47.974  1.00  0.00     0.029 A 
HETATM   20 BR1  UNL     1      27.177   8.834  47.298  1.00  0.00    -0.050 Br
HETATM   21  C12 UNL     1      26.263   6.498  48.608  1.00  0.00     0.039 A 
ENDBRANCH   2  15
TORSDOF 3
ENDMDL
MODEL 6
REMARK VINA RESULT:      -7.1      4.162      5.383
REMARK  3 active torsions:
REMARK  status: ('A' for Active; 'I' for Inactive)
REMARK       I    between atoms: C1_2  and  N1_3 
REMARK    1  A    between atoms: C1_2  and  C8_14 
REMARK    2  A    between atoms: N1_3  and  S1_4 
REMARK    3  A    between atoms: S1_4  and  C2_7 
ROOT
HETATM    1  O1  UNL     1      26.351   2.472  50.955  1.00  0.00    -0.267 OA
HETATM    2  C1  UNL     1      26.268   2.347  52.200  1.00  0.00     0.266 C 
HETATM    3  N1  UNL     1      25.142   2.869  52.873  1.00  0.00    -0.249 N 
HETATM    4  H1  UNL     1      25.049   2.780  53.900  1.00  0.00     0.182 HD
ENDROOT
BRANCH   3   5
HETATM    5  S1  UNL     1      23.899   3.671  51.984  1.00  0.00     0.241 S 
HETATM    6  O2  UNL     1      23.250   4.726  52.837  1.00  0.00    -0.205 OA
HETATM    7  O3  UNL     1      24.503   4.402  50.813  1.00  0.00    -0.205 OA
BRANCH   5   8
HETATM    8  C2  UNL     1      22.614   2.560  51.471  1.00  0.00     0.155 A 
HETATM    9  C3  UNL     1      23.113   1.193  51.767  1.00  0.00    -0.003 A 
HETATM   10  C4  UNL     1      22.658   0.197  52.506  1.00  0.00     0.021 A 
HETATM   11  C5  UNL     1      21.404   0.464  53.188  1.00  0.00     0.030 A 
HETATM   12 CL1  UNL     1      20.707  -0.778  54.192  1.00  0.00    -0.085 Cl
HETATM   13  C6  UNL     1      20.864   1.653  52.997  1.00  0.00    -0.001 A 
HETATM   14  C7  UNL     1      21.328   2.796  52.185  1.00  0.00     0.055 A 
ENDBRANCH   5   8
ENDBRANCH   3   5
BRANCH   2  15
HETATM   15  C8  UNL     1      27.353   1.659  52.883  1.00  0.00     0.051 A 
HETATM   16  C9  UNL     1      28.176   2.415  53.709  1.00  0.00     0.133 A 
HETATM   17  N2  UNL     1      29.208   1.834  54.377  1.00  0.00    -0.271 NA
HETATM   18  C10 UNL     1      29.445   0.513  54.243  1.00  0.00     0.135 A 
HETATM   19  C11 UNL     1      28.650  -0.279  53.429  1.00  0.00     0.029 A 
HETATM   20 BR1  UNL     1      28.919  -2.156  53.184  1.00  0.00    -0.050 Br
HETATM   21  C12 UNL     1      27.598   0.308  52.748  1.00  0.00     0.039 A 
ENDBRANCH   2  15
TORSDOF 3
ENDMDL
MODEL 7
REMARK VINA RESULT:      -7.0      4.707      6.211
REMARK  3 active torsions:
REMARK  status: ('A' for Active; 'I' for Inactive)
REMARK       I    between atoms: C1_2  and  N1_3 
REMARK    1  A    between atoms: C1_2  and  C8_14 
REMARK    2  A    between atoms: N1_3  and  S1_4 
REMARK    3  A    between atoms: S1_4  and  C2_7 
ROOT
HETATM    1  O1  UNL     1      24.845   2.781  53.493  1.00  0.00    -0.267 OA
HETATM    2  C1  UNL     1      25.336   1.817  52.860  1.00  0.00     0.266 C 
HETATM    3  N1  UNL     1      24.570   1.194  51.850  1.00  0.00    -0.249 N 
HETATM    4  H1  UNL     1      24.951   0.395  51.312  1.00  0.00     0.182 HD
ENDROOT
BRANCH   3   5
HETATM    5  S1  UNL     1      22.978   1.759  51.500  1.00  0.00     0.241 S 
HETATM    6  O2  UNL     1      23.013   3.220  51.143  1.00  0.00    -0.205 OA
HETATM    7  O3  UNL     1      22.445   1.051  50.282  1.00  0.00    -0.205 OA
BRANCH   5   8
HETATM    8  C2  UNL     1      21.883   1.593  52.886  1.00  0.00     0.155 A 
HETATM    9  C3  UNL     1      20.509   1.733  52.341  1.00  0.00    -0.003 A 
HETATM   10  C4  UNL     1      19.441   0.955  52.352  1.00  0.00     0.021 A 
HETATM   11  C5  UNL     1      19.616  -0.315  53.034  1.00  0.00     0.030 A 
HETATM   12 CL1  UNL     1      18.274  -1.424  53.112  1.00  0.00    -0.085 Cl
HETATM   13  C6  UNL     1      20.803  -0.549  53.562  1.00  0.00    -0.001 A 
HETATM   14  C7  UNL     1      22.024   0.282  53.578  1.00  0.00     0.055 A 
ENDBRANCH   5   8
ENDBRANCH   3   5
BRANCH   2  15
HETATM   15  C8  UNL     1      26.683   1.395  53.209  1.00  0.00     0.051 A 
HETATM   16  C9  UNL     1      27.546   2.355  53.724  1.00  0.00     0.133 A 
HETATM   17  N2  UNL     1      28.819   2.027  54.071  1.00  0.00    -0.271 NA
HETATM   18  C10 UNL     1      29.259   0.762  53.919  1.00  0.00     0.135 A 
HETATM   19  C11 UNL     1      28.434  -0.227  53.409  1.00  0.00     0.029 A 
HETATM   20 BR1  UNL     1      28.980  -2.043  53.161  1.00  0.00    -0.050 Br
HETATM   21  C12 UNL     1      27.136   0.101  53.055  1.00  0.00     0.039 A 
ENDBRANCH   2  15
TORSDOF 3
ENDMDL
MODEL 8
REMARK VINA RESULT:      -6.8      4.898      6.477
REMARK  3 active torsions:
REMARK  status: ('A' for Active; 'I' for Inactive)
REMARK       I    between atoms: C1_2  and  N1_3 
REMARK    1  A    between atoms: C1_2  and  C8_14 
REMARK    2  A    between atoms: N1_3  and  S1_4 
REMARK    3  A    between atoms: S1_4  and  C2_7 
ROOT
HETATM    1  O1  UNL     1      23.749   1.346  51.136  1.00  0.00    -0.267 OA
HETATM    2  C1  UNL     1      23.670   1.317  52.387  1.00  0.00     0.266 C 
HETATM    3  N1  UNL     1      22.444   1.639  53.009  1.00  0.00    -0.249 N 
HETATM    4  H1  UNL     1      22.351   1.624  54.040  1.00  0.00     0.182 HD
ENDROOT
BRANCH   3   5
HETATM    5  S1  UNL     1      21.075   2.068  52.049  1.00  0.00     0.241 S 
HETATM    6  O2  UNL     1      19.980   2.612  52.924  1.00  0.00    -0.205 OA
HETATM    7  O3  UNL     1      21.444   3.185  51.109  1.00  0.00    -0.205 OA
BRANCH   5   8
HETATM    8  C2  UNL     1      20.398   0.676  51.181  1.00  0.00     0.155 A 
HETATM    9  C3  UNL     1      19.590  -0.073  52.177  1.00  0.00    -0.003 A 
HETATM   10  C4  UNL     1      18.321  -0.434  52.234  1.00  0.00     0.021 A 
HETATM   11  C5  UNL     1      17.517  -0.026  51.095  1.00  0.00     0.030 A 
HETATM   12 CL1  UNL     1      15.826  -0.448  51.061  1.00  0.00    -0.085 Cl
HETATM   13  C6  UNL     1      18.132   0.648  50.143  1.00  0.00    -0.001 A 
HETATM   14  C7  UNL     1      19.541   1.076  50.030  1.00  0.00     0.055 A 
ENDBRANCH   5   8
ENDBRANCH   3   5
BRANCH   2  15
HETATM   15  C8  UNL     1      24.865   0.946  53.131  1.00  0.00     0.051 A 
HETATM   16  C9  UNL     1      24.808  -0.202  53.910  1.00  0.00     0.133 A 
HETATM   17  N2  UNL     1      25.889  -0.605  54.629  1.00  0.00    -0.271 NA
HETATM   18  C10 UNL     1      27.033   0.109  54.593  1.00  0.00     0.135 A 
HETATM   19  C11 UNL     1      27.133   1.262  53.830  1.00  0.00     0.029 A 
HETATM   20 BR1  UNL     1      28.714   2.331  53.725  1.00  0.00    -0.050 Br
HETATM   21  C12 UNL     1      26.035   1.676  53.095  1.00  0.00     0.039 A 
ENDBRANCH   2  15
TORSDOF 3
ENDMDL
MODEL 9
REMARK VINA RESULT:      -6.6      3.334      3.870
REMARK  3 active torsions:
REMARK  status: ('A' for Active; 'I' for Inactive)
REMARK       I    between atoms: C1_2  and  N1_3 
REMARK    1  A    between atoms: C1_2  and  C8_14 
REMARK    2  A    between atoms: N1_3  and  S1_4 
REMARK    3  A    between atoms: S1_4  and  C2_7 
ROOT
HETATM    1  O1  UNL     1      24.707   2.008  51.715  1.00  0.00    -0.267 OA
HETATM    2  C1  UNL     1      25.906   2.374  51.754  1.00  0.00     0.266 C 
HETATM    3  N1  UNL     1      26.288   3.560  51.091  1.00  0.00    -0.249 N 
HETATM    4  H1  UNL     1      27.272   3.884  51.107  1.00  0.00     0.182 HD
ENDROOT
BRANCH   3   5
HETATM    5  S1  UNL     1      25.112   4.489  50.236  1.00  0.00     0.241 S 
HETATM    6  O2  UNL     1      25.788   5.554  49.418  1.00  0.00    -0.205 OA
HETATM    7  O3  UNL     1      24.388   3.610  49.251  1.00  0.00    -0.205 OA
BRANCH   5   8
HETATM    8  C2  UNL     1      23.984   5.317  51.328  1.00  0.00     0.155 A 
HETATM    9  C3  UNL     1      24.137   6.768  51.050  1.00  0.00    -0.003 A 
HETATM   10  C4  UNL     1      23.299   7.715  50.668  1.00  0.00     0.021 A 
HETATM   11  C5  UNL     1      21.929   7.277  50.470  1.00  0.00     0.030 A 
HETATM   12 CL1  UNL     1      20.734   8.442  49.966  1.00  0.00    -0.085 Cl
HETATM   13  C6  UNL     1      21.674   6.001  50.690  1.00  0.00    -0.001 A 
HETATM   14  C7  UNL     1      22.569   4.906  51.115  1.00  0.00     0.055 A 
ENDBRANCH   5   8
ENDBRANCH   3   5
BRANCH   2  15
HETATM   15  C8  UNL     1      26.842   1.540  52.494  1.00  0.00     0.051 A 
HETATM   16  C9  UNL     1      27.695   2.170  53.392  1.00  0.00     0.133 A 
HETATM   17  N2  UNL     1      28.592   1.449  54.115  1.00  0.00    -0.271 NA
HETATM   18  C10 UNL     1      28.665   0.111  53.968  1.00  0.00     0.135 A 
HETATM   19  C11 UNL     1      27.835  -0.558  53.083  1.00  0.00     0.029 A 
HETATM   20 BR1  UNL     1      27.874  -2.451  52.813  1.00  0.00    -0.050 Br
HETATM   21  C12 UNL     1      26.918   0.171  52.344  1.00  0.00     0.039 A 
ENDBRANCH   2  15
TORSDOF 3
ENDMDL
