MODEL 1
REMARK VINA RESULT:      -7.4      0.000      0.000
REMARK  4 active torsions:
REMARK  status: ('A' for Active; 'I' for Inactive)
REMARK    1  A    between atoms: O1_2  and  C2_3 
REMARK    2  A    between atoms: C4_5  and  C5_6 
REMARK    3  A    between atoms: C5_6  and  C6_7 
REMARK    4  A    between atoms: C17_22  and  O2_23 
ROOT
HETATM    1  C2  UNL     1      24.256  -0.366  53.819  1.00  0.00     0.099 C 
HETATM    2  C3  UNL     1      24.509   0.740  53.046  1.00  0.00     0.023 C 
HETATM    3  C4  UNL     1      25.335   2.000  52.743  1.00  0.00     0.058 C 
HETATM    4  C14 UNL     1      26.040   1.572  51.477  1.00  0.00     0.100 C 
HETATM    5  N3  UNL     1      27.158   1.206  52.128  1.00  0.00    -0.258 NA
HETATM    6  C15 UNL     1      27.238   1.333  53.533  1.00  0.00     0.231 C 
HETATM    7  N4  UNL     1      27.057   1.137  54.860  1.00  0.00    -0.251 NA
HETATM    8  C16 UNL     1      26.168   0.046  55.156  1.00  0.00     0.157 C 
HETATM    9  C17 UNL     1      25.130  -0.680  54.937  1.00  0.00     0.116 C 
ENDROOT
BRANCH   3  10
HETATM   10  C5  UNL     1      24.191   2.936  52.381  1.00  0.00     0.100 C 
BRANCH  10  11
HETATM   11  C6  UNL     1      23.220   3.770  52.214  1.00  0.00     0.042 C 
HETATM   12  C7  UNL     1      22.065   4.809  52.210  1.00  0.00     0.242 C 
HETATM   13  N1  UNL     1      20.953   4.049  52.075  1.00  0.00    -0.459 NA
HETATM   14  C8  UNL     1      20.014   3.465  52.004  1.00  0.00     0.174 C 
HETATM   15  C9  UNL     1      18.921   2.489  51.696  1.00  0.00     0.031 C 
HETATM   16  C10 UNL     1      19.612   1.782  50.873  1.00  0.00     0.002 C 
HETATM   17  C11 UNL     1      20.584   1.155  50.004  1.00  0.00    -0.002 C 
HETATM   18  C12 UNL     1      21.953   1.409  49.744  1.00  0.00    -0.008 C 
HETATM   19  C13 UNL     1      23.141   2.121  49.943  1.00  0.00     0.142 C 
HETATM   20  N2  UNL     1      23.255   3.280  50.814  1.00  0.00    -0.411 N 
HETATM   21  H16 UNL     1      23.489   4.094  50.163  1.00  0.00     0.154 HD
ENDBRANCH  10  11
ENDBRANCH   3  10
BRANCH   1  22
HETATM   22  O1  UNL     1      23.196  -1.143  53.456  1.00  0.00    -0.353 OA
HETATM   23  C1  UNL     1      21.891  -1.167  53.901  1.00  0.00     0.210 C 
ENDBRANCH   1  22
BRANCH   9  24
HETATM   24  O2  UNL     1      24.848  -1.759  55.757  1.00  0.00    -0.357 OA
HETATM   25  H20 UNL     1      24.066  -2.393  55.539  1.00  0.00     0.218 HD
ENDBRANCH   9  24
TORSDOF 4
ENDMDL
MODEL 2
REMARK VINA RESULT:      -7.3      1.712      2.230
REMARK  4 active torsions:
REMARK  status: ('A' for Active; 'I' for Inactive)
REMARK    1  A    between atoms: O1_2  and  C2_3 
REMARK    2  A    between atoms: C4_5  and  C5_6 
REMARK    3  A    between atoms: C5_6  and  C6_7 
REMARK    4  A    between atoms: C17_22  and  O2_23 
ROOT
HETATM    1  C2  UNL     1      24.309  -0.168  53.831  1.00  0.00     0.099 C 
HETATM    2  C3  UNL     1      24.512   0.954  53.066  1.00  0.00     0.023 C 
HETATM    3  C4  UNL     1      25.336   2.202  52.716  1.00  0.00     0.058 C 
HETATM    4  C14 UNL     1      25.901   1.795  51.375  1.00  0.00     0.100 C 
HETATM    5  N3  UNL     1      27.069   1.385  51.902  1.00  0.00    -0.258 NA
HETATM    6  C15 UNL     1      27.290   1.470  53.295  1.00  0.00     0.231 C 
HETATM    7  N4  UNL     1      27.237   1.240  54.627  1.00  0.00    -0.251 NA
HETATM    8  C16 UNL     1      26.354   0.162  54.982  1.00  0.00     0.157 C 
HETATM    9  C17 UNL     1      25.281  -0.534  54.848  1.00  0.00     0.116 C 
ENDROOT
BRANCH   3  10
HETATM   10  C5  UNL     1      24.186   3.174  52.494  1.00  0.00     0.100 C 
BRANCH  10  11
HETATM   11  C6  UNL     1      23.148   3.939  52.423  1.00  0.00     0.042 C 
HETATM   12  C7  UNL     1      21.797   4.706  52.422  1.00  0.00     0.242 C 
HETATM   13  N1  UNL     1      21.424   4.690  51.121  1.00  0.00    -0.459 NA
HETATM   14  C8  UNL     1      21.058   4.668  50.075  1.00  0.00     0.174 C 
HETATM   15  C9  UNL     1      20.885   4.686  48.588  1.00  0.00     0.031 C 
HETATM   16  C10 UNL     1      22.129   4.879  48.320  1.00  0.00     0.002 C 
HETATM   17  C11 UNL     1      23.560   5.089  48.279  1.00  0.00    -0.002 C 
HETATM   18  C12 UNL     1      24.558   5.134  49.282  1.00  0.00    -0.008 C 
HETATM   19  C13 UNL     1      24.981   5.056  50.614  1.00  0.00     0.142 C 
HETATM   20  N2  UNL     1      24.081   4.868  51.740  1.00  0.00    -0.411 N 
HETATM   21  H16 UNL     1      24.163   5.766  52.314  1.00  0.00     0.154 HD
ENDBRANCH  10  11
ENDBRANCH   3  10
BRANCH   1  22
HETATM   22  O1  UNL     1      23.198  -0.911  53.556  1.00  0.00    -0.353 OA
HETATM   23  C1  UNL     1      21.942  -0.911  54.121  1.00  0.00     0.210 C 
ENDBRANCH   1  22
BRANCH   9  24
HETATM   24  O2  UNL     1      25.054  -1.630  55.663  1.00  0.00    -0.357 OA
HETATM   25  H20 UNL     1      25.679  -1.831  56.457  1.00  0.00     0.218 HD
ENDBRANCH   9  24
TORSDOF 4
ENDMDL
MODEL 3
REMARK VINA RESULT:      -7.0      3.048      4.828
REMARK  4 active torsions:
REMARK  status: ('A' for Active; 'I' for Inactive)
REMARK    1  A    between atoms: O1_2  and  C2_3 
REMARK    2  A    between atoms: C4_5  and  C5_6 
REMARK    3  A    between atoms: C5_6  and  C6_7 
REMARK    4  A    between atoms: C17_22  and  O2_23 
ROOT
HETATM    1  C2  UNL     1      26.673   1.532  53.712  1.00  0.00     0.099 C 
HETATM    2  C3  UNL     1      25.845   2.191  52.837  1.00  0.00     0.023 C 
HETATM    3  C4  UNL     1      24.646   2.194  51.876  1.00  0.00     0.058 C 
HETATM    4  C14 UNL     1      23.667   3.040  52.657  1.00  0.00     0.100 C 
HETATM    5  N3  UNL     1      23.031   1.972  53.170  1.00  0.00    -0.258 NA
HETATM    6  C15 UNL     1      23.456   0.665  52.842  1.00  0.00     0.231 C 
HETATM    7  N4  UNL     1      24.171  -0.481  52.775  1.00  0.00    -0.251 NA
HETATM    8  C16 UNL     1      25.376  -0.445  53.560  1.00  0.00     0.157 C 
HETATM    9  C17 UNL     1      26.413   0.140  54.043  1.00  0.00     0.116 C 
ENDROOT
BRANCH   3  10
HETATM   10  C5  UNL     1      25.253   3.038  50.764  1.00  0.00     0.100 C 
BRANCH  10  11
HETATM   11  C6  UNL     1      25.874   3.786  49.915  1.00  0.00     0.042 C 
HETATM   12  C7  UNL     1      26.785   4.659  49.009  1.00  0.00     0.242 C 
HETATM   13  N1  UNL     1      26.385   5.924  49.280  1.00  0.00    -0.459 NA
HETATM   14  C8  UNL     1      26.118   6.977  49.498  1.00  0.00     0.174 C 
HETATM   15  C9  UNL     1      25.447   8.280  49.804  1.00  0.00     0.031 C 
HETATM   16  C10 UNL     1      24.253   7.802  49.833  1.00  0.00     0.002 C 
HETATM   17  C11 UNL     1      23.026   7.034  49.816  1.00  0.00    -0.002 C 
HETATM   18  C12 UNL     1      22.754   5.653  49.663  1.00  0.00    -0.008 C 
HETATM   19  C13 UNL     1      23.153   4.324  49.482  1.00  0.00     0.142 C 
HETATM   20  N2  UNL     1      24.534   3.911  49.291  1.00  0.00    -0.411 N 
HETATM   21  H16 UNL     1      24.570   3.508  48.302  1.00  0.00     0.154 HD
ENDBRANCH  10  11
ENDBRANCH   3  10
BRANCH   1  22
HETATM   22  O1  UNL     1      27.691   2.255  54.262  1.00  0.00    -0.353 OA
HETATM   23  C1  UNL     1      29.009   2.399  53.888  1.00  0.00     0.210 C 
ENDBRANCH   1  22
BRANCH   9  24
HETATM   24  O2  UNL     1      27.277  -0.547  54.878  1.00  0.00    -0.357 OA
HETATM   25  H20 UNL     1      28.212  -0.171  55.090  1.00  0.00     0.218 HD
ENDBRANCH   9  24
TORSDOF 4
ENDMDL
MODEL 4
REMARK VINA RESULT:      -6.9      2.876      5.057
REMARK  4 active torsions:
REMARK  status: ('A' for Active; 'I' for Inactive)
REMARK    1  A    between atoms: O1_2  and  C2_3 
REMARK    2  A    between atoms: C4_5  and  C5_6 
REMARK    3  A    between atoms: C5_6  and  C6_7 
REMARK    4  A    between atoms: C17_22  and  O2_23 
ROOT
HETATM    1  C2  UNL     1      20.572   0.675  51.157  1.00  0.00     0.099 C 
HETATM    2  C3  UNL     1      21.740   1.066  51.762  1.00  0.00     0.023 C 
HETATM    3  C4  UNL     1      22.630   1.169  53.010  1.00  0.00     0.058 C 
HETATM    4  C14 UNL     1      23.727   0.194  52.651  1.00  0.00     0.100 C 
HETATM    5  N3  UNL     1      23.169  -0.814  53.344  1.00  0.00    -0.258 NA
HETATM    6  C15 UNL     1      21.953  -0.614  54.035  1.00  0.00     0.231 C 
HETATM    7  N4  UNL     1      20.643  -0.425  54.315  1.00  0.00    -0.251 NA
HETATM    8  C16 UNL     1      19.814  -0.375  53.141  1.00  0.00     0.157 C 
HETATM    9  C17 UNL     1      19.571  -0.051  51.921  1.00  0.00     0.116 C 
ENDROOT
BRANCH   3  10
HETATM   10  C5  UNL     1      23.141   2.588  52.804  1.00  0.00     0.100 C 
BRANCH  10  11
HETATM   11  C6  UNL     1      23.435   3.833  52.630  1.00  0.00     0.042 C 
HETATM   12  C7  UNL     1      23.591   5.359  52.390  1.00  0.00     0.242 C 
HETATM   13  N1  UNL     1      24.137   5.433  51.153  1.00  0.00    -0.459 NA
HETATM   14  C8  UNL     1      24.548   5.544  50.130  1.00  0.00     0.174 C 
HETATM   15  C9  UNL     1      25.285   5.428  48.832  1.00  0.00     0.031 C 
HETATM   16  C10 UNL     1      25.989   4.407  49.178  1.00  0.00     0.002 C 
HETATM   17  C11 UNL     1      26.649   3.276  49.795  1.00  0.00    -0.002 C 
HETATM   18  C12 UNL     1      26.487   2.627  51.043  1.00  0.00    -0.008 C 
HETATM   19  C13 UNL     1      25.867   2.472  52.288  1.00  0.00     0.142 C 
HETATM   20  N2  UNL     1      24.831   3.358  52.794  1.00  0.00    -0.411 N 
HETATM   21  H16 UNL     1      25.262   3.827  53.652  1.00  0.00     0.154 HD
ENDBRANCH  10  11
ENDBRANCH   3  10
BRANCH   1  22
HETATM   22  O1  UNL     1      20.436   0.966  49.831  1.00  0.00    -0.353 OA
HETATM   23  C1  UNL     1      21.374   1.224  48.855  1.00  0.00     0.210 C 
ENDBRANCH   1  22
BRANCH   9  24
HETATM   24  O2  UNL     1      18.365  -0.396  51.334  1.00  0.00    -0.357 OA
HETATM   25  H20 UNL     1      17.479  -0.268  51.843  1.00  0.00     0.218 HD
ENDBRANCH   9  24
TORSDOF 4
ENDMDL
MODEL 5
REMARK VINA RESULT:      -6.8      2.058      6.281
REMARK  4 active torsions:
REMARK  status: ('A' for Active; 'I' for Inactive)
REMARK    1  A    between atoms: O1_2  and  C2_3 
REMARK    2  A    between atoms: C4_5  and  C5_6 
REMARK    3  A    between atoms: C5_6  and  C6_7 
REMARK    4  A    between atoms: C17_22  and  O2_23 
ROOT
HETATM    1  C2  UNL     1      21.136  -0.001  53.193  1.00  0.00     0.099 C 
HETATM    2  C3  UNL     1      22.376   0.544  52.973  1.00  0.00     0.023 C 
HETATM    3  C4  UNL     1      23.347   1.344  52.091  1.00  0.00     0.058 C 
HETATM    4  C14 UNL     1      23.488   2.607  52.908  1.00  0.00     0.100 C 
HETATM    5  N3  UNL     1      22.564   3.270  52.191  1.00  0.00    -0.258 NA
HETATM    6  C15 UNL     1      21.907   2.633  51.114  1.00  0.00     0.231 C 
HETATM    7  N4  UNL     1      21.094   1.827  50.393  1.00  0.00    -0.251 NA
HETATM    8  C16 UNL     1      20.279   0.967  51.208  1.00  0.00     0.157 C 
HETATM    9  C17 UNL     1      20.069   0.216  52.229  1.00  0.00     0.116 C 
ENDROOT
BRANCH   3  10
HETATM   10  C5  UNL     1      24.587   0.485  52.288  1.00  0.00     0.100 C 
BRANCH  10  11
HETATM   11  C6  UNL     1      25.557  -0.358  52.419  1.00  0.00     0.042 C 
HETATM   12  C7  UNL     1      26.598  -1.478  52.693  1.00  0.00     0.242 C 
HETATM   13  N1  UNL     1      27.463  -0.902  53.561  1.00  0.00    -0.459 NA
HETATM   14  C8  UNL     1      28.175  -0.486  54.301  1.00  0.00     0.174 C 
HETATM   15  C9  UNL     1      29.103   0.354  55.122  1.00  0.00     0.031 C 
HETATM   16  C10 UNL     1      28.966   1.420  54.415  1.00  0.00     0.002 C 
HETATM   17  C11 UNL     1      28.645   2.474  53.476  1.00  0.00    -0.002 C 
HETATM   18  C12 UNL     1      27.753   2.550  52.378  1.00  0.00    -0.008 C 
HETATM   19  C13 UNL     1      26.783   2.006  51.529  1.00  0.00     0.142 C 
HETATM   20  N2  UNL     1      26.311   0.633  51.613  1.00  0.00    -0.411 N 
HETATM   21  H16 UNL     1      26.618   0.178  50.696  1.00  0.00     0.154 HD
ENDBRANCH  10  11
ENDBRANCH   3  10
BRANCH   1  22
HETATM   22  O1  UNL     1      20.965  -0.698  54.354  1.00  0.00    -0.353 OA
HETATM   23  C1  UNL     1      21.533  -1.871  54.802  1.00  0.00     0.210 C 
ENDBRANCH   1  22
BRANCH   9  24
HETATM   24  O2  UNL     1      18.834  -0.380  52.415  1.00  0.00    -0.357 OA
HETATM   25  H20 UNL     1      17.980   0.052  52.035  1.00  0.00     0.218 HD
ENDBRANCH   9  24
TORSDOF 4
ENDMDL
MODEL 6
REMARK VINA RESULT:      -6.8      2.615      5.492
REMARK  4 active torsions:
REMARK  status: ('A' for Active; 'I' for Inactive)
REMARK    1  A    between atoms: O1_2  and  C2_3 
REMARK    2  A    between atoms: C4_5  and  C5_6 
REMARK    3  A    between atoms: C5_6  and  C6_7 
REMARK    4  A    between atoms: C17_22  and  O2_23 
ROOT
HETATM    1  C2  UNL     1      20.436   0.046  53.679  1.00  0.00     0.099 C 
HETATM    2  C3  UNL     1      20.936   1.093  52.946  1.00  0.00     0.023 C 
HETATM    3  C4  UNL     1      20.867   2.025  51.727  1.00  0.00     0.058 C 
HETATM    4  C14 UNL     1      20.488   3.327  52.394  1.00  0.00     0.100 C 
HETATM    5  N3  UNL     1      19.178   3.172  52.132  1.00  0.00    -0.258 NA
HETATM    6  C15 UNL     1      18.720   2.025  51.445  1.00  0.00     0.231 C 
HETATM    7  N4  UNL     1      18.370   0.753  51.146  1.00  0.00    -0.251 NA
HETATM    8  C16 UNL     1      18.567  -0.161  52.239  1.00  0.00     0.157 C 
HETATM    9  C17 UNL     1      19.207  -0.608  53.259  1.00  0.00     0.116 C 
ENDROOT
BRANCH   3  10
HETATM   10  C5  UNL     1      22.350   2.057  51.385  1.00  0.00     0.100 C 
BRANCH  10  11
HETATM   11  C6  UNL     1      23.606   2.223  51.137  1.00  0.00     0.042 C 
HETATM   12  C7  UNL     1      25.140   2.443  51.038  1.00  0.00     0.242 C 
HETATM   13  N1  UNL     1      25.250   3.703  50.556  1.00  0.00    -0.459 NA
HETATM   14  C8  UNL     1      25.390   4.743  50.199  1.00  0.00     0.174 C 
HETATM   15  C9  UNL     1      25.317   6.077  49.523  1.00  0.00     0.031 C 
HETATM   16  C10 UNL     1      24.314   5.783  48.774  1.00  0.00     0.002 C 
HETATM   17  C11 UNL     1      23.193   5.219  48.051  1.00  0.00    -0.002 C 
HETATM   18  C12 UNL     1      22.520   3.976  48.132  1.00  0.00    -0.008 C 
HETATM   19  C13 UNL     1      22.325   2.706  48.686  1.00  0.00     0.142 C 
HETATM   20  N2  UNL     1      23.172   2.135  49.722  1.00  0.00    -0.411 N 
HETATM   21  H16 UNL     1      23.639   1.290  49.263  1.00  0.00     0.154 HD
ENDBRANCH  10  11
ENDBRANCH   3  10
BRANCH   1  22
HETATM   22  O1  UNL     1      21.119  -0.300  54.808  1.00  0.00    -0.353 OA
HETATM   23  C1  UNL     1      22.283  -1.016  54.983  1.00  0.00     0.210 C 
ENDBRANCH   1  22
BRANCH   9  24
HETATM   24  O2  UNL     1      18.728  -1.702  53.960  1.00  0.00    -0.357 OA
HETATM   25  H20 UNL     1      17.799  -2.093  53.750  1.00  0.00     0.218 HD
ENDBRANCH   9  24
TORSDOF 4
ENDMDL
MODEL 7
REMARK VINA RESULT:      -6.6      8.957     10.541
REMARK  4 active torsions:
REMARK  status: ('A' for Active; 'I' for Inactive)
REMARK    1  A    between atoms: O1_2  and  C2_3 
REMARK    2  A    between atoms: C4_5  and  C5_6 
REMARK    3  A    between atoms: C5_6  and  C6_7 
REMARK    4  A    between atoms: C17_22  and  O2_23 
ROOT
HETATM    1  C2  UNL     1      33.021   4.790  48.029  1.00  0.00     0.099 C 
HETATM    2  C3  UNL     1      32.042   5.658  47.614  1.00  0.00     0.023 C 
HETATM    3  C4  UNL     1      31.514   7.089  47.429  1.00  0.00     0.058 C 
HETATM    4  C14 UNL     1      31.560   7.210  45.923  1.00  0.00     0.100 C 
HETATM    5  N3  UNL     1      32.750   7.835  45.929  1.00  0.00    -0.258 NA
HETATM    6  C15 UNL     1      33.410   8.097  47.151  1.00  0.00     0.231 C 
HETATM    7  N4  UNL     1      34.102   7.944  48.304  1.00  0.00    -0.251 NA
HETATM    8  C16 UNL     1      34.479   6.580  48.562  1.00  0.00     0.157 C 
HETATM    9  C17 UNL     1      34.274   5.312  48.550  1.00  0.00     0.116 C 
ENDROOT
BRANCH   3  10
HETATM   10  C5  UNL     1      30.075   6.855  47.864  1.00  0.00     0.100 C 
BRANCH  10  11
HETATM   11  C6  UNL     1      28.877   6.515  48.207  1.00  0.00     0.042 C 
HETATM   12  C7  UNL     1      27.448   5.968  48.473  1.00  0.00     0.242 C 
HETATM   13  N1  UNL     1      26.640   6.933  47.974  1.00  0.00    -0.459 NA
HETATM   14  C8  UNL     1      25.941   7.677  47.543  1.00  0.00     0.174 C 
HETATM   15  C9  UNL     1      25.213   8.903  47.087  1.00  0.00     0.031 C 
HETATM   16  C10 UNL     1      26.055   9.741  47.581  1.00  0.00     0.002 C 
HETATM   17  C11 UNL     1      27.134  10.468  48.214  1.00  0.00    -0.002 C 
HETATM   18  C12 UNL     1      28.329  10.059  48.854  1.00  0.00    -0.008 C 
HETATM   19  C13 UNL     1      29.228   9.081  49.292  1.00  0.00     0.142 C 
HETATM   20  N2  UNL     1      29.000   7.651  49.153  1.00  0.00    -0.411 N 
HETATM   21  H16 UNL     1      28.923   7.284  50.154  1.00  0.00     0.154 HD
ENDBRANCH  10  11
ENDBRANCH   3  10
BRANCH   1  22
HETATM   22  O1  UNL     1      32.767   3.458  47.885  1.00  0.00    -0.353 OA
HETATM   23  C1  UNL     1      32.929   2.612  46.810  1.00  0.00     0.210 C 
ENDBRANCH   1  22
BRANCH   9  24
HETATM   24  O2  UNL     1      35.243   4.444  49.025  1.00  0.00    -0.357 OA
HETATM   25  H20 UNL     1      35.622   4.550  49.976  1.00  0.00     0.218 HD
ENDBRANCH   9  24
TORSDOF 4
ENDMDL
MODEL 8
REMARK VINA RESULT:      -6.5      4.487      6.916
REMARK  4 active torsions:
REMARK  status: ('A' for Active; 'I' for Inactive)
REMARK    1  A    between atoms: O1_2  and  C2_3 
REMARK    2  A    between atoms: C4_5  and  C5_6 
REMARK    3  A    between atoms: C5_6  and  C6_7 
REMARK    4  A    between atoms: C17_22  and  O2_23 
ROOT
HETATM    1  C2  UNL     1      25.631   6.552  48.984  1.00  0.00     0.099 C 
HETATM    2  C3  UNL     1      24.442   6.027  48.542  1.00  0.00     0.023 C 
HETATM    3  C4  UNL     1      22.912   5.919  48.634  1.00  0.00     0.058 C 
HETATM    4  C14 UNL     1      22.507   6.612  47.354  1.00  0.00     0.100 C 
HETATM    5  N3  UNL     1      22.287   7.789  47.966  1.00  0.00    -0.258 NA
HETATM    6  C15 UNL     1      22.492   7.916  49.358  1.00  0.00     0.231 C 
HETATM    7  N4  UNL     1      23.079   8.018  50.573  1.00  0.00    -0.251 NA
HETATM    8  C16 UNL     1      24.515   7.976  50.514  1.00  0.00     0.157 C 
HETATM    9  C17 UNL     1      25.632   7.549  50.042  1.00  0.00     0.116 C 
ENDROOT
BRANCH   3  10
HETATM   10  C5  UNL     1      22.783   4.414  48.446  1.00  0.00     0.100 C 
BRANCH  10  11
HETATM   11  C6  UNL     1      22.571   3.167  48.188  1.00  0.00     0.042 C 
HETATM   12  C7  UNL     1      22.151   1.729  47.777  1.00  0.00     0.242 C 
HETATM   13  N1  UNL     1      21.669   1.198  48.925  1.00  0.00    -0.459 NA
HETATM   14  C8  UNL     1      21.229   0.735  49.831  1.00  0.00     0.174 C 
HETATM   15  C9  UNL     1      20.883   0.269  51.211  1.00  0.00     0.031 C 
HETATM   16  C10 UNL     1      21.849   0.884  51.797  1.00  0.00     0.002 C 
HETATM   17  C11 UNL     1      22.995   1.661  52.215  1.00  0.00    -0.002 C 
HETATM   18  C12 UNL     1      23.889   2.514  51.522  1.00  0.00    -0.008 C 
HETATM   19  C13 UNL     1      24.345   3.152  50.363  1.00  0.00     0.142 C 
HETATM   20  N2  UNL     1      23.761   2.954  49.046  1.00  0.00    -0.411 N 
HETATM   21  H16 UNL     1      24.533   2.493  48.467  1.00  0.00     0.154 HD
ENDBRANCH  10  11
ENDBRANCH   3  10
BRANCH   1  22
HETATM   22  O1  UNL     1      26.765   6.123  48.359  1.00  0.00    -0.353 OA
HETATM   23  C1  UNL     1      27.628   5.088  48.650  1.00  0.00     0.210 C 
ENDBRANCH   1  22
BRANCH   9  24
HETATM   24  O2  UNL     1      26.830   8.038  50.533  1.00  0.00    -0.357 OA
HETATM   25  H20 UNL     1      27.093   9.024  50.389  1.00  0.00     0.218 HD
ENDBRANCH   9  24
TORSDOF 4
ENDMDL
MODEL 9
REMARK VINA RESULT:      -6.4     10.121     11.710
REMARK  4 active torsions:
REMARK  status: ('A' for Active; 'I' for Inactive)
REMARK    1  A    between atoms: O1_2  and  C2_3 
REMARK    2  A    between atoms: C4_5  and  C5_6 
REMARK    3  A    between atoms: C5_6  and  C6_7 
REMARK    4  A    between atoms: C17_22  and  O2_23 
ROOT
HETATM    1  C2  UNL     1      32.709   5.650  48.259  1.00  0.00     0.099 C 
HETATM    2  C3  UNL     1      32.040   6.832  48.056  1.00  0.00     0.023 C 
HETATM    3  C4  UNL     1      32.024   8.367  48.003  1.00  0.00     0.058 C 
HETATM    4  C14 UNL     1      31.851   8.593  46.519  1.00  0.00     0.100 C 
HETATM    5  N3  UNL     1      33.167   8.772  46.311  1.00  0.00    -0.258 NA
HETATM    6  C15 UNL     1      34.076   8.689  47.390  1.00  0.00     0.231 C 
HETATM    7  N4  UNL     1      34.856   8.212  48.387  1.00  0.00    -0.251 NA
HETATM    8  C16 UNL     1      34.769   6.785  48.542  1.00  0.00     0.157 C 
HETATM    9  C17 UNL     1      34.134   5.667  48.543  1.00  0.00     0.116 C 
ENDROOT
BRANCH   3  10
HETATM   10  C5  UNL     1      30.691   8.601  48.699  1.00  0.00     0.100 C 
BRANCH  10  11
HETATM   11  C6  UNL     1      29.502   8.814  49.156  1.00  0.00     0.042 C 
HETATM   12  C7  UNL     1      28.015   8.913  49.595  1.00  0.00     0.242 C 
HETATM   13  N1  UNL     1      27.555   9.991  48.917  1.00  0.00    -0.459 NA
HETATM   14  C8  UNL     1      27.123  10.842  48.354  1.00  0.00     0.174 C 
HETATM   15  C9  UNL     1      26.835  12.134  47.655  1.00  0.00     0.031 C 
HETATM   16  C10 UNL     1      27.976  12.672  47.910  1.00  0.00     0.002 C 
HETATM   17  C11 UNL     1      29.312  13.049  48.318  1.00  0.00    -0.002 C 
HETATM   18  C12 UNL     1      30.349  12.355  48.988  1.00  0.00    -0.008 C 
HETATM   19  C13 UNL     1      30.882  11.218  49.606  1.00  0.00     0.142 C 
HETATM   20  N2  UNL     1      30.140   9.984  49.809  1.00  0.00    -0.411 N 
HETATM   21  H16 UNL     1      30.057   9.881  50.870  1.00  0.00     0.154 HD
ENDBRANCH  10  11
ENDBRANCH   3  10
BRANCH   1  22
HETATM   22  O1  UNL     1      31.983   4.502  48.140  1.00  0.00    -0.353 OA
HETATM   23  C1  UNL     1      31.816   3.637  47.080  1.00  0.00     0.210 C 
ENDBRANCH   1  22
BRANCH   9  24
HETATM   24  O2  UNL     1      34.803   4.485  48.808  1.00  0.00    -0.357 OA
HETATM   25  H20 UNL     1      34.859   3.743  48.096  1.00  0.00     0.218 HD
ENDBRANCH   9  24
TORSDOF 4
ENDMDL
