MODEL 1
REMARK VINA RESULT:      -7.9      0.000      0.000
REMARK  9 active torsions:
REMARK  status: ('A' for Active; 'I' for Inactive)
REMARK    1  A    between atoms: N1_2  and  C2_3 
REMARK    2  A    between atoms: N1_2  and  C3_5 
REMARK    3  A    between atoms: C3_5  and  C4_6 
REMARK    4  A    between atoms: C5_7  and  N2_8 
REMARK    5  A    between atoms: C10_13  and  N3_14 
REMARK    6  A    between atoms: N3_14  and  C11_15 
REMARK    7  A    between atoms: C11_15  and  C12_16 
REMARK    8  A    between atoms: C11_15  and  C13_18 
REMARK    9  A    between atoms: C12_16  and  O2_17 
ROOT
HETATM    1  N2  UNL     1      20.726  -0.012  53.097  1.00  0.00    -0.372 N 
HETATM    2  C6  UNL     1      21.171  -0.901  54.199  1.00  0.00     0.151 C 
HETATM    3  C7  UNL     1      22.643  -1.025  53.908  1.00  0.00     0.003 C 
HETATM    4  C8  UNL     1      23.007   0.093  53.286  1.00  0.00    -0.015 C 
HETATM    5  C9  UNL     1      23.538   1.264  52.598  1.00  0.00     0.045 A 
HETATM    6  C10 UNL     1      24.647   1.809  51.943  1.00  0.00     0.138 A 
HETATM    7  N4  UNL     1      24.533   3.020  51.338  1.00  0.00    -0.224 NA
HETATM    8  C19 UNL     1      23.295   3.587  51.445  1.00  0.00     0.235 A 
HETATM    9  N5  UNL     1      22.181   3.102  52.072  1.00  0.00    -0.243 NA
HETATM   10  C20 UNL     1      22.325   1.895  52.669  1.00  0.00     0.077 A 
HETATM   11  C21 UNL     1      21.749   0.868  53.502  1.00  0.00     0.171 C 
ENDROOT
BRANCH   6  12
HETATM   12  N3  UNL     1      25.895   1.105  51.914  1.00  0.00    -0.363 N 
HETATM   13  H12 UNL     1      26.145   0.602  51.033  1.00  0.00     0.162 HD
BRANCH  12  14
HETATM   14  C11 UNL     1      26.786   1.084  53.057  1.00  0.00     0.140 C 
BRANCH  14  15
HETATM   15  C12 UNL     1      27.877   2.142  52.958  1.00  0.00     0.194 C 
BRANCH  15  16
HETATM   16  O2  UNL     1      27.769   2.892  54.145  1.00  0.00    -0.399 OA
HETATM   17  H16 UNL     1      28.615   2.905  54.642  1.00  0.00     0.209 HD
ENDBRANCH  15  16
ENDBRANCH  14  15
BRANCH  14  18
HETATM   18  C13 UNL     1      27.515  -0.226  53.050  1.00  0.00    -0.034 A 
HETATM   19  C14 UNL     1      26.755  -1.283  52.599  1.00  0.00     0.009 A 
HETATM   20  C15 UNL     1      27.416  -2.515  52.596  1.00  0.00     0.001 A 
HETATM   21  C16 UNL     1      28.707  -2.689  52.999  1.00  0.00     0.000 A 
HETATM   22  C17 UNL     1      29.410  -1.586  53.437  1.00  0.00     0.001 A 
HETATM   23  C18 UNL     1      28.808  -0.324  53.466  1.00  0.00     0.009 A 
ENDBRANCH  14  18
ENDBRANCH  12  14
ENDBRANCH   6  12
BRANCH   1  24
HETATM   24  C5  UNL     1      19.739   0.002  52.091  1.00  0.00     0.084 C 
HETATM   25  C4  UNL     1      18.482  -0.171  51.788  1.00  0.00     0.010 C 
BRANCH  25  26
HETATM   26  C3  UNL     1      17.816  -0.041  50.485  1.00  0.00     0.153 C 
BRANCH  26  27
HETATM   27  N1  UNL     1      17.320   1.329  50.328  1.00  0.00    -0.360 N 
HETATM   28  C1  UNL     1      16.133   1.801  51.020  1.00  0.00     0.152 C 
BRANCH  27  29
HETATM   29  C2  UNL     1      18.066   2.169  49.463  1.00  0.00     0.350 C 
HETATM   30  O1  UNL     1      18.949   2.980  49.844  1.00  0.00    -0.284 OA
ENDBRANCH  27  29
ENDBRANCH  26  27
ENDBRANCH  25  26
ENDBRANCH   1  24
TORSDOF 9
ENDMDL
MODEL 2
REMARK VINA RESULT:      -7.9      2.817      3.455
REMARK  9 active torsions:
REMARK  status: ('A' for Active; 'I' for Inactive)
REMARK    1  A    between atoms: N1_2  and  C2_3 
REMARK    2  A    between atoms: N1_2  and  C3_5 
REMARK    3  A    between atoms: C3_5  and  C4_6 
REMARK    4  A    between atoms: C5_7  and  N2_8 
REMARK    5  A    between atoms: C10_13  and  N3_14 
REMARK    6  A    between atoms: N3_14  and  C11_15 
REMARK    7  A    between atoms: C11_15  and  C12_16 
REMARK    8  A    between atoms: C11_15  and  C13_18 
REMARK    9  A    between atoms: C12_16  and  O2_17 
ROOT
HETATM    1  N2  UNL     1      20.353  -0.567  53.862  1.00  0.00    -0.372 N 
HETATM    2  C6  UNL     1      21.458  -1.225  54.602  1.00  0.00     0.151 C 
HETATM    3  C7  UNL     1      22.653  -0.818  53.782  1.00  0.00     0.003 C 
HETATM    4  C8  UNL     1      22.353   0.348  53.218  1.00  0.00    -0.015 C 
HETATM    5  C9  UNL     1      22.152   1.624  52.540  1.00  0.00     0.045 A 
HETATM    6  C10 UNL     1      22.671   2.522  51.601  1.00  0.00     0.138 A 
HETATM    7  N4  UNL     1      21.935   3.604  51.239  1.00  0.00    -0.224 NA
HETATM    8  C19 UNL     1      20.722   3.692  51.861  1.00  0.00     0.235 A 
HETATM    9  N5  UNL     1      20.168   2.848  52.783  1.00  0.00    -0.243 NA
HETATM   10  C20 UNL     1      20.926   1.780  53.127  1.00  0.00     0.077 A 
HETATM   11  C21 UNL     1      21.095   0.625  53.975  1.00  0.00     0.171 C 
ENDROOT
BRANCH   6  12
HETATM   12  N3  UNL     1      23.968   2.310  51.029  1.00  0.00    -0.363 N 
HETATM   13  H12 UNL     1      24.017   1.790  50.124  1.00  0.00     0.162 HD
BRANCH  12  14
HETATM   14  C11 UNL     1      25.174   2.793  51.673  1.00  0.00     0.140 C 
BRANCH  14  15
HETATM   15  C12 UNL     1      26.263   3.145  50.669  1.00  0.00     0.194 C 
BRANCH  15  16
HETATM   16  O2  UNL     1      26.107   4.524  50.428  1.00  0.00    -0.399 OA
HETATM   17  H16 UNL     1      25.394   4.908  50.980  1.00  0.00     0.209 HD
ENDBRANCH  15  16
ENDBRANCH  14  15
BRANCH  14  18
HETATM   18  C13 UNL     1      25.744   1.670  52.486  1.00  0.00    -0.034 A 
HETATM   19  C14 UNL     1      26.123   0.577  51.737  1.00  0.00     0.009 A 
HETATM   20  C15 UNL     1      26.648  -0.484  52.479  1.00  0.00     0.001 A 
HETATM   21  C16 UNL     1      26.788  -0.470  53.836  1.00  0.00     0.000 A 
HETATM   22  C17 UNL     1      26.390   0.657  54.522  1.00  0.00     0.001 A 
HETATM   23  C18 UNL     1      25.856   1.755  53.840  1.00  0.00     0.009 A 
ENDBRANCH  14  18
ENDBRANCH  12  14
ENDBRANCH   6  12
BRANCH   1  24
HETATM   24  C5  UNL     1      19.112  -0.919  53.295  1.00  0.00     0.084 C 
HETATM   25  C4  UNL     1      18.006  -1.602  53.417  1.00  0.00     0.010 C 
BRANCH  25  26
HETATM   26  C3  UNL     1      16.865  -1.691  52.496  1.00  0.00     0.153 C 
BRANCH  26  27
HETATM   27  N1  UNL     1      16.119  -2.924  52.766  1.00  0.00    -0.360 N 
HETATM   28  C1  UNL     1      14.712  -3.059  52.429  1.00  0.00     0.152 C 
BRANCH  27  29
HETATM   29  C2  UNL     1      16.850  -3.977  53.370  1.00  0.00     0.350 C 
HETATM   30  O1  UNL     1      16.388  -4.759  54.240  1.00  0.00    -0.284 OA
ENDBRANCH  27  29
ENDBRANCH  26  27
ENDBRANCH  25  26
ENDBRANCH   1  24
TORSDOF 9
ENDMDL
MODEL 3
REMARK VINA RESULT:      -7.8      3.188      7.870
REMARK  9 active torsions:
REMARK  status: ('A' for Active; 'I' for Inactive)
REMARK    1  A    between atoms: N1_2  and  C2_3 
REMARK    2  A    between atoms: N1_2  and  C3_5 
REMARK    3  A    between atoms: C3_5  and  C4_6 
REMARK    4  A    between atoms: C5_7  and  N2_8 
REMARK    5  A    between atoms: C10_13  and  N3_14 
REMARK    6  A    between atoms: N3_14  and  C11_15 
REMARK    7  A    between atoms: C11_15  and  C12_16 
REMARK    8  A    between atoms: C11_15  and  C13_18 
REMARK    9  A    between atoms: C12_16  and  O2_17 
ROOT
HETATM    1  N2  UNL     1      24.486   4.323  51.158  1.00  0.00    -0.372 N 
HETATM    2  C6  UNL     1      23.109   4.880  51.170  1.00  0.00     0.151 C 
HETATM    3  C7  UNL     1      22.283   3.632  51.327  1.00  0.00     0.003 C 
HETATM    4  C8  UNL     1      23.035   2.752  51.982  1.00  0.00    -0.015 C 
HETATM    5  C9  UNL     1      23.750   1.697  52.690  1.00  0.00     0.045 A 
HETATM    6  C10 UNL     1      23.729   0.354  53.081  1.00  0.00     0.138 A 
HETATM    7  N4  UNL     1      24.822  -0.180  53.684  1.00  0.00    -0.224 NA
HETATM    8  C19 UNL     1      25.859   0.694  53.846  1.00  0.00     0.235 A 
HETATM    9  N5  UNL     1      25.933   2.011  53.486  1.00  0.00    -0.243 NA
HETATM   10  C20 UNL     1      24.828   2.518  52.889  1.00  0.00     0.077 A 
HETATM   11  C21 UNL     1      24.147   3.674  52.362  1.00  0.00     0.171 C 
ENDROOT
BRANCH   6  12
HETATM   12  N3  UNL     1      22.565  -0.452  52.855  1.00  0.00    -0.363 N 
HETATM   13  H12 UNL     1      22.579  -1.101  52.037  1.00  0.00     0.162 HD
BRANCH  12  14
HETATM   14  C11 UNL     1      21.406  -0.378  53.723  1.00  0.00     0.140 C 
BRANCH  14  15
HETATM   15  C12 UNL     1      21.215  -1.649  54.540  1.00  0.00     0.194 C 
BRANCH  15  16
HETATM   16  O2  UNL     1      22.309  -1.684  55.426  1.00  0.00    -0.399 OA
HETATM   17  H16 UNL     1      23.097  -1.243  55.044  1.00  0.00     0.209 HD
ENDBRANCH  15  16
ENDBRANCH  14  15
BRANCH  14  18
HETATM   18  C13 UNL     1      20.187  -0.286  52.857  1.00  0.00    -0.034 A 
HETATM   19  C14 UNL     1      19.086  -0.935  53.375  1.00  0.00     0.009 A 
HETATM   20  C15 UNL     1      17.942  -0.869  52.575  1.00  0.00     0.001 A 
HETATM   21  C16 UNL     1      17.886  -0.222  51.375  1.00  0.00     0.000 A 
HETATM   22  C17 UNL     1      19.025   0.407  50.918  1.00  0.00     0.001 A 
HETATM   23  C18 UNL     1      20.204   0.379  51.669  1.00  0.00     0.009 A 
ENDBRANCH  14  18
ENDBRANCH  12  14
ENDBRANCH   6  12
BRANCH   1  24
HETATM   24  C5  UNL     1      25.638   4.388  50.350  1.00  0.00     0.084 C 
HETATM   25  C4  UNL     1      26.160   4.765  49.215  1.00  0.00     0.010 C 
BRANCH  25  26
HETATM   26  C3  UNL     1      27.541   4.622  48.736  1.00  0.00     0.153 C 
BRANCH  26  27
HETATM   27  N1  UNL     1      28.069   5.941  48.374  1.00  0.00    -0.360 N 
HETATM   28  C1  UNL     1      27.200   7.089  48.180  1.00  0.00     0.152 C 
BRANCH  27  29
HETATM   29  C2  UNL     1      29.476   6.032  48.227  1.00  0.00     0.350 C 
HETATM   30  O1  UNL     1      30.264   5.054  48.291  1.00  0.00    -0.284 OA
ENDBRANCH  27  29
ENDBRANCH  26  27
ENDBRANCH  25  26
ENDBRANCH   1  24
TORSDOF 9
ENDMDL
MODEL 4
REMARK VINA RESULT:      -7.5      1.633      2.281
REMARK  9 active torsions:
REMARK  status: ('A' for Active; 'I' for Inactive)
REMARK    1  A    between atoms: N1_2  and  C2_3 
REMARK    2  A    between atoms: N1_2  and  C3_5 
REMARK    3  A    between atoms: C3_5  and  C4_6 
REMARK    4  A    between atoms: C5_7  and  N2_8 
REMARK    5  A    between atoms: C10_13  and  N3_14 
REMARK    6  A    between atoms: N3_14  and  C11_15 
REMARK    7  A    between atoms: C11_15  and  C12_16 
REMARK    8  A    between atoms: C11_15  and  C13_18 
REMARK    9  A    between atoms: C12_16  and  O2_17 
ROOT
HETATM    1  N2  UNL     1      19.918  -0.467  53.441  1.00  0.00    -0.372 N 
HETATM    2  C6  UNL     1      20.818  -1.365  54.207  1.00  0.00     0.151 C 
HETATM    3  C7  UNL     1      22.140  -1.109  53.534  1.00  0.00     0.003 C 
HETATM    4  C8  UNL     1      22.097   0.133  53.061  1.00  0.00    -0.015 C 
HETATM    5  C9  UNL     1      22.181   1.473  52.493  1.00  0.00     0.045 A 
HETATM    6  C10 UNL     1      22.934   2.338  51.691  1.00  0.00     0.138 A 
HETATM    7  N4  UNL     1      22.428   3.558  51.373  1.00  0.00    -0.224 NA
HETATM    8  C19 UNL     1      21.190   3.808  51.895  1.00  0.00     0.235 A 
HETATM    9  N5  UNL     1      20.414   3.003  52.682  1.00  0.00    -0.243 NA
HETATM   10  C20 UNL     1      20.945   1.795  52.985  1.00  0.00     0.077 A 
HETATM   11  C21 UNL     1      20.833   0.564  53.730  1.00  0.00     0.171 C 
ENDROOT
BRANCH   6  12
HETATM   12  N3  UNL     1      24.228   1.949  51.215  1.00  0.00    -0.363 N 
HETATM   13  H12 UNL     1      24.266   1.274  50.419  1.00  0.00     0.162 HD
BRANCH  12  14
HETATM   14  C11 UNL     1      25.446   2.466  51.807  1.00  0.00     0.140 C 
BRANCH  14  15
HETATM   15  C12 UNL     1      26.347   3.138  50.780  1.00  0.00     0.194 C 
BRANCH  15  16
HETATM   16  O2  UNL     1      25.860   4.456  50.671  1.00  0.00    -0.399 OA
HETATM   17  H16 UNL     1      26.590   5.110  50.661  1.00  0.00     0.209 HD
ENDBRANCH  15  16
ENDBRANCH  14  15
BRANCH  14  18
HETATM   18  C13 UNL     1      26.241   1.303  52.318  1.00  0.00    -0.034 A 
HETATM   19  C14 UNL     1      27.501   1.640  52.760  1.00  0.00     0.009 A 
HETATM   20  C15 UNL     1      28.261   0.565  53.231  1.00  0.00     0.001 A 
HETATM   21  C16 UNL     1      27.819  -0.725  53.263  1.00  0.00     0.000 A 
HETATM   22  C17 UNL     1      26.546  -0.991  52.805  1.00  0.00     0.001 A 
HETATM   23  C18 UNL     1      25.733   0.039  52.321  1.00  0.00     0.009 A 
ENDBRANCH  14  18
ENDBRANCH  12  14
ENDBRANCH   6  12
BRANCH   1  24
HETATM   24  C5  UNL     1      18.699  -0.551  52.739  1.00  0.00     0.084 C 
HETATM   25  C4  UNL     1      18.059  -0.324  51.625  1.00  0.00     0.010 C 
BRANCH  25  26
HETATM   26  C3  UNL     1      16.654  -0.593  51.292  1.00  0.00     0.153 C 
BRANCH  26  27
HETATM   27  N1  UNL     1      16.013   0.649  50.850  1.00  0.00    -0.360 N 
HETATM   28  C1  UNL     1      15.927   1.012  49.446  1.00  0.00     0.152 C 
BRANCH  27  29
HETATM   29  C2  UNL     1      15.479   1.474  51.872  1.00  0.00     0.350 C 
HETATM   30  O1  UNL     1      15.848   2.655  52.101  1.00  0.00    -0.284 OA
ENDBRANCH  27  29
ENDBRANCH  26  27
ENDBRANCH  25  26
ENDBRANCH   1  24
TORSDOF 9
ENDMDL
MODEL 5
REMARK VINA RESULT:      -7.4      5.048      9.234
REMARK  9 active torsions:
REMARK  status: ('A' for Active; 'I' for Inactive)
REMARK    1  A    between atoms: N1_2  and  C2_3 
REMARK    2  A    between atoms: N1_2  and  C3_5 
REMARK    3  A    between atoms: C3_5  and  C4_6 
REMARK    4  A    between atoms: C5_7  and  N2_8 
REMARK    5  A    between atoms: C10_13  and  N3_14 
REMARK    6  A    between atoms: N3_14  and  C11_15 
REMARK    7  A    between atoms: C11_15  and  C12_16 
REMARK    8  A    between atoms: C11_15  and  C13_18 
REMARK    9  A    between atoms: C12_16  and  O2_17 
ROOT
HETATM    1  N2  UNL     1      26.125   3.289  50.221  1.00  0.00    -0.372 N 
HETATM    2  C6  UNL     1      24.715   3.168  49.771  1.00  0.00     0.151 C 
HETATM    3  C7  UNL     1      24.394   4.591  49.403  1.00  0.00     0.003 C 
HETATM    4  C8  UNL     1      25.539   5.161  49.035  1.00  0.00    -0.015 C 
HETATM    5  C9  UNL     1      26.719   5.904  48.610  1.00  0.00     0.045 A 
HETATM    6  C10 UNL     1      27.225   7.163  48.268  1.00  0.00     0.138 A 
HETATM    7  N4  UNL     1      28.557   7.305  48.044  1.00  0.00    -0.224 NA
HETATM    8  C19 UNL     1      29.277   6.152  48.184  1.00  0.00     0.235 A 
HETATM    9  N5  UNL     1      28.836   4.901  48.513  1.00  0.00    -0.243 NA
HETATM   10  C20 UNL     1      27.504   4.788  48.728  1.00  0.00     0.077 A 
HETATM   11  C21 UNL     1      26.378   3.926  48.989  1.00  0.00     0.171 C 
ENDROOT
BRANCH   6  12
HETATM   12  N3  UNL     1      26.351   8.292  48.148  1.00  0.00    -0.363 N 
HETATM   13  H12 UNL     1      26.103   8.609  47.184  1.00  0.00     0.162 HD
BRANCH  12  14
HETATM   14  C11 UNL     1      25.825   8.976  49.313  1.00  0.00     0.140 C 
BRANCH  14  15
HETATM   15  C12 UNL     1      26.501   8.527  50.601  1.00  0.00     0.194 C 
BRANCH  15  16
HETATM   16  O2  UNL     1      27.261   9.635  51.022  1.00  0.00    -0.399 OA
HETATM   17  H16 UNL     1      27.909   9.909  50.339  1.00  0.00     0.209 HD
ENDBRANCH  15  16
ENDBRANCH  14  15
BRANCH  14  18
HETATM   18  C13 UNL     1      24.388   8.580  49.471  1.00  0.00    -0.034 A 
HETATM   19  C14 UNL     1      24.095   8.023  50.697  1.00  0.00     0.009 A 
HETATM   20  C15 UNL     1      22.761   7.638  50.858  1.00  0.00     0.001 A 
HETATM   21  C16 UNL     1      21.803   7.789  49.900  1.00  0.00     0.000 A 
HETATM   22  C17 UNL     1      22.165   8.355  48.696  1.00  0.00     0.001 A 
HETATM   23  C18 UNL     1      23.484   8.762  48.469  1.00  0.00     0.009 A 
ENDBRANCH  14  18
ENDBRANCH  12  14
ENDBRANCH   6  12
BRANCH   1  24
HETATM   24  C5  UNL     1      26.905   2.939  51.341  1.00  0.00     0.084 C 
HETATM   25  C4  UNL     1      27.004   2.218  52.424  1.00  0.00     0.010 C 
BRANCH  25  26
HETATM   26  C3  UNL     1      28.100   2.158  53.400  1.00  0.00     0.153 C 
BRANCH  26  27
HETATM   27  N1  UNL     1      28.197   0.797  53.938  1.00  0.00    -0.360 N 
HETATM   28  C1  UNL     1      29.392  -0.012  53.770  1.00  0.00     0.152 C 
BRANCH  27  29
HETATM   29  C2  UNL     1      27.059   0.319  54.634  1.00  0.00     0.350 C 
HETATM   30  O1  UNL     1      26.503  -0.788  54.416  1.00  0.00    -0.284 OA
ENDBRANCH  27  29
ENDBRANCH  26  27
ENDBRANCH  25  26
ENDBRANCH   1  24
TORSDOF 9
ENDMDL
MODEL 6
REMARK VINA RESULT:      -7.3      2.899      5.397
REMARK  9 active torsions:
REMARK  status: ('A' for Active; 'I' for Inactive)
REMARK    1  A    between atoms: N1_2  and  C2_3 
REMARK    2  A    between atoms: N1_2  and  C3_5 
REMARK    3  A    between atoms: C3_5  and  C4_6 
REMARK    4  A    between atoms: C5_7  and  N2_8 
REMARK    5  A    between atoms: C10_13  and  N3_14 
REMARK    6  A    between atoms: N3_14  and  C11_15 
REMARK    7  A    between atoms: C11_15  and  C12_16 
REMARK    8  A    between atoms: C11_15  and  C13_18 
REMARK    9  A    between atoms: C12_16  and  O2_17 
ROOT
HETATM    1  N2  UNL     1      25.314   4.172  50.240  1.00  0.00    -0.372 N 
HETATM    2  C6  UNL     1      26.602   3.437  50.181  1.00  0.00     0.151 C 
HETATM    3  C7  UNL     1      26.503   2.560  51.400  1.00  0.00     0.003 C 
HETATM    4  C8  UNL     1      25.209   2.338  51.610  1.00  0.00    -0.015 C 
HETATM    5  C9  UNL     1      23.828   2.017  51.953  1.00  0.00     0.045 A 
HETATM    6  C10 UNL     1      22.984   1.432  52.903  1.00  0.00     0.138 A 
HETATM    7  N4  UNL     1      21.638   1.527  52.746  1.00  0.00    -0.224 NA
HETATM    8  C19 UNL     1      21.250   2.213  51.630  1.00  0.00     0.235 A 
HETATM    9  N5  UNL     1      22.028   2.801  50.671  1.00  0.00    -0.243 NA
HETATM   10  C20 UNL     1      23.365   2.687  50.853  1.00  0.00     0.077 A 
HETATM   11  C21 UNL     1      24.691   2.911  50.332  1.00  0.00     0.171 C 
ENDROOT
BRANCH   6  12
HETATM   12  N3  UNL     1      23.529   0.732  54.029  1.00  0.00    -0.363 N 
HETATM   13  H12 UNL     1      23.558   1.238  54.943  1.00  0.00     0.162 HD
BRANCH  12  14
HETATM   14  C11 UNL     1      24.026  -0.625  53.916  1.00  0.00     0.140 C 
BRANCH  14  15
HETATM   15  C12 UNL     1      23.756  -1.444  55.172  1.00  0.00     0.194 C 
BRANCH  15  16
HETATM   16  O2  UNL     1      22.354  -1.455  55.308  1.00  0.00    -0.399 OA
HETATM   17  H16 UNL     1      22.017  -2.358  55.489  1.00  0.00     0.209 HD
ENDBRANCH  15  16
ENDBRANCH  14  15
BRANCH  14  18
HETATM   18  C13 UNL     1      25.520  -0.562  53.808  1.00  0.00    -0.034 A 
HETATM   19  C14 UNL     1      26.123   0.137  54.831  1.00  0.00     0.009 A 
HETATM   20  C15 UNL     1      27.516   0.215  54.741  1.00  0.00     0.001 A 
HETATM   21  C16 UNL     1      28.247  -0.346  53.736  1.00  0.00     0.000 A 
HETATM   22  C17 UNL     1      27.578  -1.033  52.745  1.00  0.00     0.001 A 
HETATM   23  C18 UNL     1      26.185  -1.148  52.775  1.00  0.00     0.009 A 
ENDBRANCH  14  18
ENDBRANCH  12  14
ENDBRANCH   6  12
BRANCH   1  24
HETATM   24  C5  UNL     1      24.864   5.507  50.212  1.00  0.00     0.084 C 
HETATM   25  C4  UNL     1      24.456   6.540  50.897  1.00  0.00     0.010 C 
BRANCH  25  26
HETATM   26  C3  UNL     1      24.046   7.867  50.418  1.00  0.00     0.153 C 
BRANCH  26  27
HETATM   27  N1  UNL     1      22.673   7.796  49.908  1.00  0.00    -0.360 N 
HETATM   28  C1  UNL     1      22.326   8.245  48.571  1.00  0.00     0.152 C 
BRANCH  27  29
HETATM   29  C2  UNL     1      21.704   7.262  50.795  1.00  0.00     0.350 C 
HETATM   30  O1  UNL     1      20.967   6.277  50.536  1.00  0.00    -0.284 OA
ENDBRANCH  27  29
ENDBRANCH  26  27
ENDBRANCH  25  26
ENDBRANCH   1  24
TORSDOF 9
ENDMDL
MODEL 7
REMARK VINA RESULT:      -7.3      3.656      6.698
REMARK  9 active torsions:
REMARK  status: ('A' for Active; 'I' for Inactive)
REMARK    1  A    between atoms: N1_2  and  C2_3 
REMARK    2  A    between atoms: N1_2  and  C3_5 
REMARK    3  A    between atoms: C3_5  and  C4_6 
REMARK    4  A    between atoms: C5_7  and  N2_8 
REMARK    5  A    between atoms: C10_13  and  N3_14 
REMARK    6  A    between atoms: N3_14  and  C11_15 
REMARK    7  A    between atoms: C11_15  and  C12_16 
REMARK    8  A    between atoms: C11_15  and  C13_18 
REMARK    9  A    between atoms: C12_16  and  O2_17 
ROOT
HETATM    1  N2  UNL     1      25.594   4.687  49.691  1.00  0.00    -0.372 N 
HETATM    2  C6  UNL     1      26.756   3.774  49.547  1.00  0.00     0.151 C 
HETATM    3  C7  UNL     1      26.571   2.865  50.732  1.00  0.00     0.003 C 
HETATM    4  C8  UNL     1      25.266   2.826  50.988  1.00  0.00    -0.015 C 
HETATM    5  C9  UNL     1      23.866   2.696  51.374  1.00  0.00     0.045 A 
HETATM    6  C10 UNL     1      22.979   2.198  52.335  1.00  0.00     0.138 A 
HETATM    7  N4  UNL     1      21.657   2.497  52.238  1.00  0.00    -0.224 NA
HETATM    8  C19 UNL     1      21.336   3.284  51.168  1.00  0.00     0.235 A 
HETATM    9  N5  UNL     1      22.158   3.795  50.203  1.00  0.00    -0.243 NA
HETATM   10  C20 UNL     1      23.469   3.478  50.323  1.00  0.00     0.077 A 
HETATM   11  C21 UNL     1      24.795   3.529  49.756  1.00  0.00     0.171 C 
ENDROOT
BRANCH   6  12
HETATM   12  N3  UNL     1      23.453   1.374  53.407  1.00  0.00    -0.363 N 
HETATM   13  H12 UNL     1      23.468   1.790  54.365  1.00  0.00     0.162 HD
BRANCH  12  14
HETATM   14  C11 UNL     1      23.899   0.013  53.183  1.00  0.00     0.140 C 
BRANCH  14  15
HETATM   15  C12 UNL     1      23.373  -0.948  54.241  1.00  0.00     0.194 C 
BRANCH  15  16
HETATM   16  O2  UNL     1      21.980  -0.736  54.269  1.00  0.00    -0.399 OA
HETATM   17  H16 UNL     1      21.675  -0.241  53.480  1.00  0.00     0.209 HD
ENDBRANCH  15  16
ENDBRANCH  14  15
BRANCH  14  18
HETATM   18  C13 UNL     1      25.389  -0.016  53.341  1.00  0.00    -0.034 A 
HETATM   19  C14 UNL     1      26.004  -1.023  52.629  1.00  0.00     0.009 A 
HETATM   20  C15 UNL     1      27.394  -1.072  52.772  1.00  0.00     0.001 A 
HETATM   21  C16 UNL     1      28.112  -0.208  53.545  1.00  0.00     0.000 A 
HETATM   22  C17 UNL     1      27.431   0.778  54.229  1.00  0.00     0.001 A 
HETATM   23  C18 UNL     1      26.040   0.882  54.130  1.00  0.00     0.009 A 
ENDBRANCH  14  18
ENDBRANCH  12  14
ENDBRANCH   6  12
BRANCH   1  24
HETATM   24  C5  UNL     1      25.347   6.074  49.736  1.00  0.00     0.084 C 
HETATM   25  C4  UNL     1      25.327   7.159  50.459  1.00  0.00     0.010 C 
BRANCH  25  26
HETATM   26  C3  UNL     1      24.972   8.529  50.065  1.00  0.00     0.153 C 
BRANCH  26  27
HETATM   27  N1  UNL     1      26.102   9.140  49.358  1.00  0.00    -0.360 N 
HETATM   28  C1  UNL     1      26.014   9.526  47.960  1.00  0.00     0.152 C 
BRANCH  27  29
HETATM   29  C2  UNL     1      27.282   9.335  50.117  1.00  0.00     0.350 C 
HETATM   30  O1  UNL     1      28.448   9.155  49.681  1.00  0.00    -0.284 OA
ENDBRANCH  27  29
ENDBRANCH  26  27
ENDBRANCH  25  26
ENDBRANCH   1  24
TORSDOF 9
ENDMDL
MODEL 8
REMARK VINA RESULT:      -6.9      4.869      8.509
REMARK  9 active torsions:
REMARK  status: ('A' for Active; 'I' for Inactive)
REMARK    1  A    between atoms: N1_2  and  C2_3 
REMARK    2  A    between atoms: N1_2  and  C3_5 
REMARK    3  A    between atoms: C3_5  and  C4_6 
REMARK    4  A    between atoms: C5_7  and  N2_8 
REMARK    5  A    between atoms: C10_13  and  N3_14 
REMARK    6  A    between atoms: N3_14  and  C11_15 
REMARK    7  A    between atoms: C11_15  and  C12_16 
REMARK    8  A    between atoms: C11_15  and  C13_18 
REMARK    9  A    between atoms: C12_16  and  O2_17 
ROOT
HETATM    1  N2  UNL     1      26.268   6.084  49.143  1.00  0.00    -0.372 N 
HETATM    2  C6  UNL     1      26.884   4.753  48.906  1.00  0.00     0.151 C 
HETATM    3  C7  UNL     1      26.192   3.913  49.946  1.00  0.00     0.003 C 
HETATM    4  C8  UNL     1      25.000   4.465  50.156  1.00  0.00    -0.015 C 
HETATM    5  C9  UNL     1      23.670   4.968  50.480  1.00  0.00     0.045 A 
HETATM    6  C10 UNL     1      22.569   4.842  51.335  1.00  0.00     0.138 A 
HETATM    7  N4  UNL     1      21.551   5.737  51.243  1.00  0.00    -0.224 NA
HETATM    8  C19 UNL     1      21.730   6.696  50.286  1.00  0.00     0.235 A 
HETATM    9  N5  UNL     1      22.779   6.863  49.426  1.00  0.00    -0.243 NA
HETATM   10  C20 UNL     1      23.777   5.955  49.538  1.00  0.00     0.077 A 
HETATM   11  C21 UNL     1      25.022   5.438  49.022  1.00  0.00     0.171 C 
ENDROOT
BRANCH   6  12
HETATM   12  N3  UNL     1      22.508   3.779  52.294  1.00  0.00    -0.363 N 
HETATM   13  H12 UNL     1      22.938   3.949  53.230  1.00  0.00     0.162 HD
BRANCH  12  14
HETATM   14  C11 UNL     1      21.878   2.510  51.987  1.00  0.00     0.140 C 
BRANCH  14  15
HETATM   15  C12 UNL     1      20.556   2.330  52.723  1.00  0.00     0.194 C 
BRANCH  15  16
HETATM   16  O2  UNL     1      19.777   3.445  52.356  1.00  0.00    -0.399 OA
HETATM   17  H16 UNL     1      18.841   3.196  52.205  1.00  0.00     0.209 HD
ENDBRANCH  15  16
ENDBRANCH  14  15
BRANCH  14  18
HETATM   18  C13 UNL     1      22.762   1.418  52.506  1.00  0.00    -0.034 A 
HETATM   19  C14 UNL     1      24.098   1.599  52.220  1.00  0.00     0.009 A 
HETATM   20  C15 UNL     1      24.937   0.584  52.688  1.00  0.00     0.001 A 
HETATM   21  C16 UNL     1      24.501  -0.510  53.375  1.00  0.00     0.000 A 
HETATM   22  C17 UNL     1      23.150  -0.627  53.628  1.00  0.00     0.001 A 
HETATM   23  C18 UNL     1      22.256   0.353  53.187  1.00  0.00     0.009 A 
ENDBRANCH  14  18
ENDBRANCH  12  14
ENDBRANCH   6  12
BRANCH   1  24
HETATM   24  C5  UNL     1      26.687   7.409  49.376  1.00  0.00     0.084 C 
HETATM   25  C4  UNL     1      27.534   8.357  49.082  1.00  0.00     0.010 C 
BRANCH  25  26
HETATM   26  C3  UNL     1      27.618   9.723  49.616  1.00  0.00     0.153 C 
BRANCH  26  27
HETATM   27  N1  UNL     1      27.900  10.656  48.521  1.00  0.00    -0.360 N 
HETATM   28  C1  UNL     1      27.414  10.425  47.171  1.00  0.00     0.152 C 
BRANCH  27  29
HETATM   29  C2  UNL     1      28.671  11.797  48.855  1.00  0.00     0.350 C 
HETATM   30  O1  UNL     1      28.204  12.850  49.361  1.00  0.00    -0.284 OA
ENDBRANCH  27  29
ENDBRANCH  26  27
ENDBRANCH  25  26
ENDBRANCH   1  24
TORSDOF 9
ENDMDL
MODEL 9
REMARK VINA RESULT:      -6.9      3.495      5.620
REMARK  9 active torsions:
REMARK  status: ('A' for Active; 'I' for Inactive)
REMARK    1  A    between atoms: N1_2  and  C2_3 
REMARK    2  A    between atoms: N1_2  and  C3_5 
REMARK    3  A    between atoms: C3_5  and  C4_6 
REMARK    4  A    between atoms: C5_7  and  N2_8 
REMARK    5  A    between atoms: C10_13  and  N3_14 
REMARK    6  A    between atoms: N3_14  and  C11_15 
REMARK    7  A    between atoms: C11_15  and  C12_16 
REMARK    8  A    between atoms: C11_15  and  C13_18 
REMARK    9  A    between atoms: C12_16  and  O2_17 
ROOT
HETATM    1  N2  UNL     1      22.502   6.146  49.942  1.00  0.00    -0.372 N 
HETATM    2  C6  UNL     1      21.886   6.108  51.292  1.00  0.00     0.151 C 
HETATM    3  C7  UNL     1      22.434   4.815  51.835  1.00  0.00     0.003 C 
HETATM    4  C8  UNL     1      23.607   4.615  51.242  1.00  0.00    -0.015 C 
HETATM    5  C9  UNL     1      24.903   4.276  50.666  1.00  0.00     0.045 A 
HETATM    6  C10 UNL     1      25.895   3.295  50.562  1.00  0.00     0.138 A 
HETATM    7  N4  UNL     1      26.939   3.492  49.715  1.00  0.00    -0.224 NA
HETATM    8  C19 UNL     1      26.895   4.675  49.034  1.00  0.00     0.235 A 
HETATM    9  N5  UNL     1      25.954   5.666  49.097  1.00  0.00    -0.243 NA
HETATM   10  C20 UNL     1      24.928   5.444  49.952  1.00  0.00     0.077 A 
HETATM   11  C21 UNL     1      23.739   5.953  50.590  1.00  0.00     0.171 C 
ENDROOT
BRANCH   6  12
HETATM   12  N3  UNL     1      25.820   2.097  51.346  1.00  0.00    -0.363 N 
HETATM   13  H12 UNL     1      26.130   1.207  50.896  1.00  0.00     0.162 HD
BRANCH  12  14
HETATM   14  C11 UNL     1      25.334   2.108  52.711  1.00  0.00     0.140 C 
BRANCH  14  15
HETATM   15  C12 UNL     1      26.388   1.634  53.703  1.00  0.00     0.194 C 
BRANCH  15  16
HETATM   16  O2  UNL     1      27.188   2.766  53.956  1.00  0.00    -0.399 OA
HETATM   17  H16 UNL     1      26.977   3.169  54.825  1.00  0.00     0.209 HD
ENDBRANCH  15  16
ENDBRANCH  14  15
BRANCH  14  18
HETATM   18  C13 UNL     1      24.226   1.104  52.814  1.00  0.00    -0.034 A 
HETATM   19  C14 UNL     1      24.454   0.116  53.748  1.00  0.00     0.009 A 
HETATM   20  C15 UNL     1      23.436  -0.836  53.850  1.00  0.00     0.001 A 
HETATM   21  C16 UNL     1      22.296  -0.816  53.101  1.00  0.00     0.000 A 
HETATM   22  C17 UNL     1      22.132   0.202  52.186  1.00  0.00     0.001 A 
HETATM   23  C18 UNL     1      23.113   1.187  52.033  1.00  0.00     0.009 A 
ENDBRANCH  14  18
ENDBRANCH  12  14
ENDBRANCH   6  12
BRANCH   1  24
HETATM   24  C5  UNL     1      22.092   6.308  48.604  1.00  0.00     0.084 C 
HETATM   25  C4  UNL     1      22.227   5.927  47.363  1.00  0.00     0.010 C 
BRANCH  25  26
HETATM   26  C3  UNL     1      21.531   6.411  46.164  1.00  0.00     0.153 C 
BRANCH  26  27
HETATM   27  N1  UNL     1      20.777   5.307  45.562  1.00  0.00    -0.360 N 
HETATM   28  C1  UNL     1      19.527   4.830  46.130  1.00  0.00     0.152 C 
BRANCH  27  29
HETATM   29  C2  UNL     1      21.335   4.734  44.392  1.00  0.00     0.350 C 
HETATM   30  O1  UNL     1      21.104   3.565  43.990  1.00  0.00    -0.284 OA
ENDBRANCH  27  29
ENDBRANCH  26  27
ENDBRANCH  25  26
ENDBRANCH   1  24
TORSDOF 9
ENDMDL
