MODEL 1
REMARK VINA RESULT:      -7.0      0.000      0.000
REMARK  7 active torsions:
REMARK  status: ('A' for Active; 'I' for Inactive)
REMARK    1  A    between atoms: O1_2  and  C2_3 
REMARK    2  A    between atoms: N1_7  and  C6_8 
REMARK    3  A    between atoms: C6_8  and  C7_9 
REMARK    4  A    between atoms: C7_9  and  N2_10 
REMARK       I    between atoms: N2_10  and  C8_11 
REMARK       I    between atoms: C8_11  and  N3_13 
REMARK    5  A    between atoms: N3_13  and  C9_14 
REMARK    6  A    between atoms: C12_17  and  O3_18 
REMARK    7  A    between atoms: O3_18  and  C13_19 
ROOT
HETATM    1  N2  UNL     1      23.899   1.300  51.752  1.00  0.00    -0.341 N 
HETATM    2  C8  UNL     1      24.569   2.481  51.345  1.00  0.00     0.320 C 
HETATM    3  O2  UNL     1      24.948   3.201  52.283  1.00  0.00    -0.247 OA
HETATM    4  N3  UNL     1      24.801   2.839  50.003  1.00  0.00    -0.309 N 
HETATM    5  H11 UNL     1      23.546   0.638  51.013  1.00  0.00     0.164 HD
HETATM    6  H12 UNL     1      24.416   2.117  49.354  1.00  0.00     0.170 HD
ENDROOT
BRANCH   1   7
HETATM    7  C7  UNL     1      23.682   0.967  53.148  1.00  0.00     0.144 C 
BRANCH   7   8
HETATM    8  C6  UNL     1      24.111  -0.456  53.445  1.00  0.00     0.142 C 
BRANCH   8   9
HETATM    9  N1  UNL     1      25.555  -0.471  53.533  1.00  0.00    -0.382 N 
HETATM   10  C5  UNL     1      26.328  -1.408  52.776  1.00  0.00     0.086 A 
HETATM   11  C4  UNL     1      27.636  -1.527  52.769  1.00  0.00     0.019 A 
HETATM   12  C3  UNL     1      28.404  -0.634  53.599  1.00  0.00     0.035 A 
HETATM   13  C2  UNL     1      27.727   0.235  54.303  1.00  0.00     0.063 A 
HETATM   14  C18 UNL     1      26.278   0.437  54.370  1.00  0.00     0.186 A 
BRANCH  13  15
HETATM   15  O1  UNL     1      28.552   1.053  55.073  1.00  0.00    -0.359 OA
HETATM   16  C1  UNL     1      29.323   2.030  54.405  1.00  0.00     0.209 C 
ENDBRANCH  13  15
ENDBRANCH   8   9
ENDBRANCH   7   8
ENDBRANCH   1   7
BRANCH   4  17
HETATM   17  C9  UNL     1      25.457   3.994  49.523  1.00  0.00     0.036 A 
HETATM   18  C10 UNL     1      26.790   3.838  49.229  1.00  0.00     0.032 A 
HETATM   19  C11 UNL     1      27.554   4.869  48.752  1.00  0.00     0.039 A 
HETATM   20  C12 UNL     1      27.070   6.132  48.528  1.00  0.00     0.069 A 
HETATM   21  C16 UNL     1      25.711   6.299  48.826  1.00  0.00     0.039 A 
HETATM   22  C17 UNL     1      24.948   5.231  49.312  1.00  0.00     0.032 A 
BRANCH  20  23
HETATM   23  O3  UNL     1      27.625   7.300  48.067  1.00  0.00    -0.347 OA
BRANCH  23  24
HETATM   24  C13 UNL     1      26.837   8.316  47.532  1.00  0.00     0.120 C 
HETATM   25  C14 UNL     1      27.136   9.605  48.269  1.00  0.00     0.040 C 
HETATM   26  C15 UNL     1      27.135   8.444  46.054  1.00  0.00     0.040 C 
ENDBRANCH  23  24
ENDBRANCH  20  23
ENDBRANCH   4  17
TORSDOF 7
ENDMDL
MODEL 2
REMARK VINA RESULT:      -6.9      3.281      8.735
REMARK  7 active torsions:
REMARK  status: ('A' for Active; 'I' for Inactive)
REMARK    1  A    between atoms: O1_2  and  C2_3 
REMARK    2  A    between atoms: N1_7  and  C6_8 
REMARK    3  A    between atoms: C6_8  and  C7_9 
REMARK    4  A    between atoms: C7_9  and  N2_10 
REMARK       I    between atoms: N2_10  and  C8_11 
REMARK       I    between atoms: C8_11  and  N3_13 
REMARK    5  A    between atoms: N3_13  and  C9_14 
REMARK    6  A    between atoms: C12_17  and  O3_18 
REMARK    7  A    between atoms: O3_18  and  C13_19 
ROOT
HETATM    1  N2  UNL     1      26.797   5.206  49.587  1.00  0.00    -0.341 N 
HETATM    2  C8  UNL     1      26.322   3.975  50.106  1.00  0.00     0.320 C 
HETATM    3  O2  UNL     1      26.816   2.971  49.566  1.00  0.00    -0.247 OA
HETATM    4  N3  UNL     1      25.374   3.863  51.140  1.00  0.00    -0.309 N 
HETATM    5  H11 UNL     1      26.424   6.104  49.992  1.00  0.00     0.164 HD
HETATM    6  H12 UNL     1      25.072   4.807  51.472  1.00  0.00     0.170 HD
ENDROOT
BRANCH   1   7
HETATM    7  C7  UNL     1      27.778   5.278  48.520  1.00  0.00     0.144 C 
BRANCH   7   8
HETATM    8  C6  UNL     1      28.018   6.712  48.091  1.00  0.00     0.142 C 
BRANCH   8   9
HETATM    9  N1  UNL     1      29.355   7.077  48.508  1.00  0.00    -0.382 N 
HETATM   10  C5  UNL     1      29.674   8.428  48.852  1.00  0.00     0.086 A 
HETATM   11  C4  UNL     1      30.842   8.888  49.240  1.00  0.00     0.019 A 
HETATM   12  C3  UNL     1      31.938   7.960  49.340  1.00  0.00     0.035 A 
HETATM   13  C2  UNL     1      31.679   6.716  49.032  1.00  0.00     0.063 A 
HETATM   14  C18 UNL     1      30.415   6.120  48.595  1.00  0.00     0.186 A 
BRANCH  13  15
HETATM   15  O1  UNL     1      32.798   5.893  49.157  1.00  0.00    -0.359 OA
HETATM   16  C1  UNL     1      33.022   4.928  48.151  1.00  0.00     0.209 C 
ENDBRANCH  13  15
ENDBRANCH   8   9
ENDBRANCH   7   8
ENDBRANCH   1   7
BRANCH   4  17
HETATM   17  C9  UNL     1      24.854   2.678  51.705  1.00  0.00     0.036 A 
HETATM   18  C10 UNL     1      23.557   2.378  51.361  1.00  0.00     0.032 A 
HETATM   19  C11 UNL     1      22.922   1.261  51.830  1.00  0.00     0.039 A 
HETATM   20  C12 UNL     1      23.508   0.351  52.672  1.00  0.00     0.069 A 
HETATM   21  C16 UNL     1      24.829   0.649  53.027  1.00  0.00     0.039 A 
HETATM   22  C17 UNL     1      25.461   1.798  52.536  1.00  0.00     0.032 A 
BRANCH  20  23
HETATM   23  O3  UNL     1      23.085  -0.815  53.261  1.00  0.00    -0.347 OA
BRANCH  23  24
HETATM   24  C13 UNL     1      22.353  -0.804  54.446  1.00  0.00     0.120 C 
HETATM   25  C14 UNL     1      21.052  -1.548  54.222  1.00  0.00     0.040 C 
HETATM   26  C15 UNL     1      23.176  -1.450  55.539  1.00  0.00     0.040 C 
ENDBRANCH  23  24
ENDBRANCH  20  23
ENDBRANCH   4  17
TORSDOF 7
ENDMDL
MODEL 3
REMARK VINA RESULT:      -6.8      3.146      8.893
REMARK  7 active torsions:
REMARK  status: ('A' for Active; 'I' for Inactive)
REMARK    1  A    between atoms: O1_2  and  C2_3 
REMARK    2  A    between atoms: N1_7  and  C6_8 
REMARK    3  A    between atoms: C6_8  and  C7_9 
REMARK    4  A    between atoms: C7_9  and  N2_10 
REMARK       I    between atoms: N2_10  and  C8_11 
REMARK       I    between atoms: C8_11  and  N3_13 
REMARK    5  A    between atoms: N3_13  and  C9_14 
REMARK    6  A    between atoms: C12_17  and  O3_18 
REMARK    7  A    between atoms: O3_18  and  C13_19 
ROOT
HETATM    1  N2  UNL     1      26.992   5.293  49.545  1.00  0.00    -0.341 N 
HETATM    2  C8  UNL     1      26.325   4.114  49.965  1.00  0.00     0.320 C 
HETATM    3  O2  UNL     1      26.672   3.089  49.356  1.00  0.00    -0.247 OA
HETATM    4  N3  UNL     1      25.351   4.073  50.979  1.00  0.00    -0.309 N 
HETATM    5  H11 UNL     1      26.751   6.205  50.013  1.00  0.00     0.164 HD
HETATM    6  H12 UNL     1      25.188   5.024  51.379  1.00  0.00     0.170 HD
ENDROOT
BRANCH   1   7
HETATM    7  C7  UNL     1      27.994   5.292  48.495  1.00  0.00     0.144 C 
BRANCH   7   8
HETATM    8  C6  UNL     1      28.130   6.664  47.866  1.00  0.00     0.142 C 
BRANCH   8   9
HETATM    9  N1  UNL     1      29.311   7.288  48.421  1.00  0.00    -0.382 N 
HETATM   10  C5  UNL     1      30.511   6.536  48.626  1.00  0.00     0.086 A 
HETATM   11  C4  UNL     1      31.644   6.981  49.122  1.00  0.00     0.019 A 
HETATM   12  C3  UNL     1      31.719   8.365  49.512  1.00  0.00     0.035 A 
HETATM   13  C2  UNL     1      30.638   9.080  49.336  1.00  0.00     0.063 A 
HETATM   14  C18 UNL     1      29.342   8.670  48.792  1.00  0.00     0.186 A 
BRANCH  13  15
HETATM   15  O1  UNL     1      30.804  10.403  49.741  1.00  0.00    -0.359 OA
HETATM   16  C1  UNL     1      30.795  11.404  48.744  1.00  0.00     0.209 C 
ENDBRANCH  13  15
ENDBRANCH   8   9
ENDBRANCH   7   8
ENDBRANCH   1   7
BRANCH   4  17
HETATM   17  C9  UNL     1      24.646   2.942  51.448  1.00  0.00     0.036 A 
HETATM   18  C10 UNL     1      25.136   2.377  52.601  1.00  0.00     0.032 A 
HETATM   19  C11 UNL     1      24.555   1.278  53.174  1.00  0.00     0.039 A 
HETATM   20  C12 UNL     1      23.449   0.649  52.662  1.00  0.00     0.069 A 
HETATM   21  C16 UNL     1      22.945   1.220  51.487  1.00  0.00     0.039 A 
HETATM   22  C17 UNL     1      23.554   2.344  50.917  1.00  0.00     0.032 A 
BRANCH  20  23
HETATM   23  O3  UNL     1      22.705  -0.439  53.047  1.00  0.00    -0.347 OA
BRANCH  23  24
HETATM   24  C13 UNL     1      22.023  -0.457  54.261  1.00  0.00     0.120 C 
HETATM   25  C14 UNL     1      20.619  -0.976  54.023  1.00  0.00     0.040 C 
HETATM   26  C15 UNL     1      22.776  -1.334  55.237  1.00  0.00     0.040 C 
ENDBRANCH  23  24
ENDBRANCH  20  23
ENDBRANCH   4  17
TORSDOF 7
ENDMDL
MODEL 4
REMARK VINA RESULT:      -6.7      3.851      8.561
REMARK  7 active torsions:
REMARK  status: ('A' for Active; 'I' for Inactive)
REMARK    1  A    between atoms: O1_2  and  C2_3 
REMARK    2  A    between atoms: N1_7  and  C6_8 
REMARK    3  A    between atoms: C6_8  and  C7_9 
REMARK    4  A    between atoms: C7_9  and  N2_10 
REMARK       I    between atoms: N2_10  and  C8_11 
REMARK       I    between atoms: C8_11  and  N3_13 
REMARK    5  A    between atoms: N3_13  and  C9_14 
REMARK    6  A    between atoms: C12_17  and  O3_18 
REMARK    7  A    between atoms: O3_18  and  C13_19 
ROOT
HETATM    1  N2  UNL     1      27.246   5.462  49.348  1.00  0.00    -0.341 N 
HETATM    2  C8  UNL     1      26.599   4.309  49.858  1.00  0.00     0.320 C 
HETATM    3  O2  UNL     1      27.016   3.240  49.383  1.00  0.00    -0.247 OA
HETATM    4  N3  UNL     1      25.570   4.336  50.818  1.00  0.00    -0.309 N 
HETATM    5  H11 UNL     1      26.947   6.408  49.700  1.00  0.00     0.164 HD
HETATM    6  H12 UNL     1      25.352   5.318  51.102  1.00  0.00     0.170 HD
ENDROOT
BRANCH   1   7
HETATM    7  C7  UNL     1      28.306   5.390  48.358  1.00  0.00     0.144 C 
BRANCH   7   8
HETATM    8  C6  UNL     1      29.099   6.681  48.309  1.00  0.00     0.142 C 
BRANCH   8   9
HETATM    9  N1  UNL     1      30.500   6.334  48.223  1.00  0.00    -0.382 N 
HETATM   10  C5  UNL     1      30.910   5.041  47.766  1.00  0.00     0.086 A 
HETATM   11  C4  UNL     1      32.143   4.602  47.646  1.00  0.00     0.019 A 
HETATM   12  C3  UNL     1      33.218   5.491  48.003  1.00  0.00     0.035 A 
HETATM   13  C2  UNL     1      32.877   6.681  48.423  1.00  0.00     0.063 A 
HETATM   14  C18 UNL     1      31.538   7.250  48.586  1.00  0.00     0.186 A 
BRANCH  13  15
HETATM   15  O1  UNL     1      33.981   7.468  48.745  1.00  0.00    -0.359 OA
HETATM   16  C1  UNL     1      35.266   6.935  48.498  1.00  0.00     0.209 C 
ENDBRANCH  13  15
ENDBRANCH   8   9
ENDBRANCH   7   8
ENDBRANCH   1   7
BRANCH   4  17
HETATM   17  C9  UNL     1      24.880   3.234  51.369  1.00  0.00     0.036 A 
HETATM   18  C10 UNL     1      23.749   2.845  50.691  1.00  0.00     0.032 A 
HETATM   19  C11 UNL     1      22.980   1.792  51.106  1.00  0.00     0.039 A 
HETATM   20  C12 UNL     1      23.259   1.040  52.218  1.00  0.00     0.069 A 
HETATM   21  C16 UNL     1      24.410   1.430  52.914  1.00  0.00     0.039 A 
HETATM   22  C17 UNL     1      25.182   2.510  52.473  1.00  0.00     0.032 A 
BRANCH  20  23
HETATM   23  O3  UNL     1      22.654  -0.036  52.819  1.00  0.00    -0.347 OA
BRANCH  23  24
HETATM   24  C13 UNL     1      21.853   0.121  53.947  1.00  0.00     0.120 C 
HETATM   25  C14 UNL     1      20.409   0.250  53.507  1.00  0.00     0.040 C 
HETATM   26  C15 UNL     1      22.046  -1.072  54.858  1.00  0.00     0.040 C 
ENDBRANCH  23  24
ENDBRANCH  20  23
ENDBRANCH   4  17
TORSDOF 7
ENDMDL
MODEL 5
REMARK VINA RESULT:      -6.7      3.849      8.665
REMARK  7 active torsions:
REMARK  status: ('A' for Active; 'I' for Inactive)
REMARK    1  A    between atoms: O1_2  and  C2_3 
REMARK    2  A    between atoms: N1_7  and  C6_8 
REMARK    3  A    between atoms: C6_8  and  C7_9 
REMARK    4  A    between atoms: C7_9  and  N2_10 
REMARK       I    between atoms: N2_10  and  C8_11 
REMARK       I    between atoms: C8_11  and  N3_13 
REMARK    5  A    between atoms: N3_13  and  C9_14 
REMARK    6  A    between atoms: C12_17  and  O3_18 
REMARK    7  A    between atoms: O3_18  and  C13_19 
ROOT
HETATM    1  N2  UNL     1      24.658   7.730  51.136  1.00  0.00    -0.341 N 
HETATM    2  C8  UNL     1      24.123   6.417  51.160  1.00  0.00     0.320 C 
HETATM    3  O2  UNL     1      23.998   5.899  50.038  1.00  0.00    -0.247 OA
HETATM    4  N3  UNL     1      23.754   5.732  52.333  1.00  0.00    -0.309 N 
HETATM    5  H11 UNL     1      24.793   8.238  52.048  1.00  0.00     0.164 HD
HETATM    6  H12 UNL     1      23.930   6.320  53.178  1.00  0.00     0.170 HD
ENDROOT
BRANCH   1   7
HETATM    7  C7  UNL     1      25.028   8.401  49.904  1.00  0.00     0.144 C 
BRANCH   7   8
HETATM    8  C6  UNL     1      26.328   9.163  50.063  1.00  0.00     0.142 C 
BRANCH   8   9
HETATM    9  N1  UNL     1      27.365   8.410  49.392  1.00  0.00    -0.382 N 
HETATM   10  C5  UNL     1      27.087   7.131  48.814  1.00  0.00     0.086 A 
HETATM   11  C4  UNL     1      27.936   6.350  48.184  1.00  0.00     0.019 A 
HETATM   12  C3  UNL     1      29.297   6.799  48.043  1.00  0.00     0.035 A 
HETATM   13  C2  UNL     1      29.583   7.965  48.560  1.00  0.00     0.063 A 
HETATM   14  C18 UNL     1      28.706   8.897  49.273  1.00  0.00     0.186 A 
BRANCH  13  15
HETATM   15  O1  UNL     1      30.920   8.315  48.377  1.00  0.00    -0.359 OA
HETATM   16  C1  UNL     1      31.841   7.950  49.383  1.00  0.00     0.209 C 
ENDBRANCH  13  15
ENDBRANCH   8   9
ENDBRANCH   7   8
ENDBRANCH   1   7
BRANCH   4  17
HETATM   17  C9  UNL     1      23.215   4.430  52.434  1.00  0.00     0.036 A 
HETATM   18  C10 UNL     1      24.107   3.448  52.796  1.00  0.00     0.032 A 
HETATM   19  C11 UNL     1      23.728   2.141  52.936  1.00  0.00     0.039 A 
HETATM   20  C12 UNL     1      22.447   1.694  52.732  1.00  0.00     0.069 A 
HETATM   21  C16 UNL     1      21.534   2.690  52.363  1.00  0.00     0.039 A 
HETATM   22  C17 UNL     1      21.942   4.022  52.225  1.00  0.00     0.032 A 
BRANCH  20  23
HETATM   23  O3  UNL     1      21.841   0.465  52.809  1.00  0.00    -0.347 OA
BRANCH  23  24
HETATM   24  C13 UNL     1      20.995   0.140  53.867  1.00  0.00     0.120 C 
HETATM   25  C14 UNL     1      19.732  -0.484  53.307  1.00  0.00     0.040 C 
HETATM   26  C15 UNL     1      21.713  -0.812  54.797  1.00  0.00     0.040 C 
ENDBRANCH  23  24
ENDBRANCH  20  23
ENDBRANCH   4  17
TORSDOF 7
ENDMDL
MODEL 6
REMARK VINA RESULT:      -6.5      2.175      3.025
REMARK  7 active torsions:
REMARK  status: ('A' for Active; 'I' for Inactive)
REMARK    1  A    between atoms: O1_2  and  C2_3 
REMARK    2  A    between atoms: N1_7  and  C6_8 
REMARK    3  A    between atoms: C6_8  and  C7_9 
REMARK    4  A    between atoms: C7_9  and  N2_10 
REMARK       I    between atoms: N2_10  and  C8_11 
REMARK       I    between atoms: C8_11  and  N3_13 
REMARK    5  A    between atoms: N3_13  and  C9_14 
REMARK    6  A    between atoms: C12_17  and  O3_18 
REMARK    7  A    between atoms: O3_18  and  C13_19 
ROOT
HETATM    1  N2  UNL     1      23.724   3.495  50.293  1.00  0.00    -0.341 N 
HETATM    2  C8  UNL     1      25.026   3.900  49.906  1.00  0.00     0.320 C 
HETATM    3  O2  UNL     1      25.912   3.065  50.150  1.00  0.00    -0.247 OA
HETATM    4  N3  UNL     1      25.324   5.134  49.297  1.00  0.00    -0.309 N 
HETATM    5  H11 UNL     1      22.917   4.150  50.121  1.00  0.00     0.164 HD
HETATM    6  H12 UNL     1      24.459   5.705  49.169  1.00  0.00     0.170 HD
ENDROOT
BRANCH   1   7
HETATM    7  C7  UNL     1      23.458   2.212  50.917  1.00  0.00     0.144 C 
BRANCH   7   8
HETATM    8  C6  UNL     1      23.262   2.360  52.413  1.00  0.00     0.142 C 
BRANCH   8   9
HETATM    9  N1  UNL     1      24.242   1.523  53.070  1.00  0.00    -0.382 N 
HETATM   10  C5  UNL     1      23.947   0.160  53.392  1.00  0.00     0.086 A 
HETATM   11  C4  UNL     1      24.743  -0.699  53.988  1.00  0.00     0.019 A 
HETATM   12  C3  UNL     1      26.059  -0.254  54.369  1.00  0.00     0.035 A 
HETATM   13  C2  UNL     1      26.360   0.986  54.088  1.00  0.00     0.063 A 
HETATM   14  C18 UNL     1      25.540   2.006  53.430  1.00  0.00     0.186 A 
BRANCH  13  15
HETATM   15  O1  UNL     1      27.649   1.326  54.494  1.00  0.00    -0.359 OA
HETATM   16  C1  UNL     1      28.510   0.282  54.898  1.00  0.00     0.209 C 
ENDBRANCH  13  15
ENDBRANCH   8   9
ENDBRANCH   7   8
ENDBRANCH   1   7
BRANCH   4  17
HETATM   17  C9  UNL     1      26.591   5.606  48.888  1.00  0.00     0.036 A 
HETATM   18  C10 UNL     1      26.698   6.970  48.754  1.00  0.00     0.032 A 
HETATM   19  C11 UNL     1      27.865   7.571  48.366  1.00  0.00     0.039 A 
HETATM   20  C12 UNL     1      29.016   6.883  48.080  1.00  0.00     0.069 A 
HETATM   21  C16 UNL     1      28.914   5.492  48.214  1.00  0.00     0.039 A 
HETATM   22  C17 UNL     1      27.711   4.897  48.612  1.00  0.00     0.032 A 
BRANCH  20  23
HETATM   23  O3  UNL     1      30.276   7.254  47.682  1.00  0.00    -0.347 OA
BRANCH  23  24
HETATM   24  C13 UNL     1      31.259   7.589  48.610  1.00  0.00     0.120 C 
HETATM   25  C14 UNL     1      32.409   6.610  48.480  1.00  0.00     0.040 C 
HETATM   26  C15 UNL     1      31.714   9.010  48.354  1.00  0.00     0.040 C 
ENDBRANCH  23  24
ENDBRANCH  20  23
ENDBRANCH   4  17
TORSDOF 7
ENDMDL
MODEL 7
REMARK VINA RESULT:      -6.4      1.872      2.749
REMARK  7 active torsions:
REMARK  status: ('A' for Active; 'I' for Inactive)
REMARK    1  A    between atoms: O1_2  and  C2_3 
REMARK    2  A    between atoms: N1_7  and  C6_8 
REMARK    3  A    between atoms: C6_8  and  C7_9 
REMARK    4  A    between atoms: C7_9  and  N2_10 
REMARK       I    between atoms: N2_10  and  C8_11 
REMARK       I    between atoms: C8_11  and  N3_13 
REMARK    5  A    between atoms: N3_13  and  C9_14 
REMARK    6  A    between atoms: C12_17  and  O3_18 
REMARK    7  A    between atoms: O3_18  and  C13_19 
ROOT
HETATM    1  N2  UNL     1      25.080   3.019  50.416  1.00  0.00    -0.341 N 
HETATM    2  C8  UNL     1      25.656   4.211  49.909  1.00  0.00     0.320 C 
HETATM    3  O2  UNL     1      25.042   5.245  50.220  1.00  0.00    -0.247 OA
HETATM    4  N3  UNL     1      26.819   4.256  49.118  1.00  0.00    -0.309 N 
HETATM    5  H11 UNL     1      25.542   2.099  50.194  1.00  0.00     0.164 HD
HETATM    6  H12 UNL     1      27.198   3.295  48.959  1.00  0.00     0.170 HD
ENDROOT
BRANCH   1   7
HETATM    7  C7  UNL     1      23.879   3.017  51.231  1.00  0.00     0.144 C 
BRANCH   7   8
HETATM    8  C6  UNL     1      24.208   3.233  52.695  1.00  0.00     0.142 C 
BRANCH   8   9
HETATM    9  N1  UNL     1      24.799   2.011  53.197  1.00  0.00    -0.382 N 
HETATM   10  C5  UNL     1      24.157   0.748  52.999  1.00  0.00     0.086 A 
HETATM   11  C4  UNL     1      24.584  -0.425  53.405  1.00  0.00     0.019 A 
HETATM   12  C3  UNL     1      25.827  -0.482  54.131  1.00  0.00     0.035 A 
HETATM   13  C2  UNL     1      26.439   0.656  54.329  1.00  0.00     0.063 A 
HETATM   14  C18 UNL     1      26.039   2.001  53.913  1.00  0.00     0.186 A 
BRANCH  13  15
HETATM   15  O1  UNL     1      27.629   0.503  55.039  1.00  0.00    -0.359 OA
HETATM   16  C1  UNL     1      28.736  -0.051  54.358  1.00  0.00     0.209 C 
ENDBRANCH  13  15
ENDBRANCH   8   9
ENDBRANCH   7   8
ENDBRANCH   1   7
BRANCH   4  17
HETATM   17  C9  UNL     1      27.447   5.399  48.577  1.00  0.00     0.036 A 
HETATM   18  C10 UNL     1      28.795   5.275  48.336  1.00  0.00     0.032 A 
HETATM   19  C11 UNL     1      29.536   6.299  47.812  1.00  0.00     0.039 A 
HETATM   20  C12 UNL     1      29.013   7.524  47.483  1.00  0.00     0.069 A 
HETATM   21  C16 UNL     1      27.640   7.658  47.726  1.00  0.00     0.039 A 
HETATM   22  C17 UNL     1      26.901   6.597  48.263  1.00  0.00     0.032 A 
BRANCH  20  23
HETATM   23  O3  UNL     1      29.541   8.677  46.957  1.00  0.00    -0.347 OA
BRANCH  23  24
HETATM   24  C13 UNL     1      29.681   9.827  47.730  1.00  0.00     0.120 C 
HETATM   25  C14 UNL     1      30.582   9.517  48.908  1.00  0.00     0.040 C 
HETATM   26  C15 UNL     1      30.260  10.930  46.870  1.00  0.00     0.040 C 
ENDBRANCH  23  24
ENDBRANCH  20  23
ENDBRANCH   4  17
TORSDOF 7
ENDMDL
MODEL 8
REMARK VINA RESULT:      -6.3      2.092      3.219
REMARK  7 active torsions:
REMARK  status: ('A' for Active; 'I' for Inactive)
REMARK    1  A    between atoms: O1_2  and  C2_3 
REMARK    2  A    between atoms: N1_7  and  C6_8 
REMARK    3  A    between atoms: C6_8  and  C7_9 
REMARK    4  A    between atoms: C7_9  and  N2_10 
REMARK       I    between atoms: N2_10  and  C8_11 
REMARK       I    between atoms: C8_11  and  N3_13 
REMARK    5  A    between atoms: N3_13  and  C9_14 
REMARK    6  A    between atoms: C12_17  and  O3_18 
REMARK    7  A    between atoms: O3_18  and  C13_19 
ROOT
HETATM    1  N2  UNL     1      22.903   2.840  51.971  1.00  0.00    -0.341 N 
HETATM    2  C8  UNL     1      23.718   3.398  50.955  1.00  0.00     0.320 C 
HETATM    3  O2  UNL     1      23.313   3.182  49.801  1.00  0.00    -0.247 OA
HETATM    4  N3  UNL     1      24.890   4.139  51.196  1.00  0.00    -0.309 N 
HETATM    5  H11 UNL     1      23.181   2.978  52.977  1.00  0.00     0.164 HD
HETATM    6  H12 UNL     1      25.075   4.221  52.221  1.00  0.00     0.170 HD
ENDROOT
BRANCH   1   7
HETATM    7  C7  UNL     1      21.699   2.083  51.679  1.00  0.00     0.144 C 
BRANCH   7   8
HETATM    8  C6  UNL     1      22.019   0.628  51.403  1.00  0.00     0.142 C 
BRANCH   8   9
HETATM    9  N1  UNL     1      22.349   0.003  52.665  1.00  0.00    -0.382 N 
HETATM   10  C5  UNL     1      21.322  -0.457  53.548  1.00  0.00     0.086 A 
HETATM   11  C4  UNL     1      21.488  -1.035  54.717  1.00  0.00     0.019 A 
HETATM   12  C3  UNL     1      22.832  -1.241  55.188  1.00  0.00     0.035 A 
HETATM   13  C2  UNL     1      23.795  -0.832  54.404  1.00  0.00     0.063 A 
HETATM   14  C18 UNL     1      23.702  -0.185  53.093  1.00  0.00     0.186 A 
BRANCH  13  15
HETATM   15  O1  UNL     1      25.058  -1.073  54.942  1.00  0.00    -0.359 OA
HETATM   16  C1  UNL     1      26.071  -0.119  54.699  1.00  0.00     0.209 C 
ENDBRANCH  13  15
ENDBRANCH   8   9
ENDBRANCH   7   8
ENDBRANCH   1   7
BRANCH   4  17
HETATM   17  C9  UNL     1      25.751   4.722  50.239  1.00  0.00     0.036 A 
HETATM   18  C10 UNL     1      25.510   6.046  49.957  1.00  0.00     0.032 A 
HETATM   19  C11 UNL     1      26.264   6.744  49.053  1.00  0.00     0.039 A 
HETATM   20  C12 UNL     1      27.311   6.199  48.356  1.00  0.00     0.069 A 
HETATM   21  C16 UNL     1      27.562   4.850  48.638  1.00  0.00     0.039 A 
HETATM   22  C17 UNL     1      26.779   4.154  49.566  1.00  0.00     0.032 A 
BRANCH  20  23
HETATM   23  O3  UNL     1      28.192   6.684  47.421  1.00  0.00    -0.347 OA
BRANCH  23  24
HETATM   24  C13 UNL     1      28.755   7.952  47.547  1.00  0.00     0.120 C 
HETATM   25  C14 UNL     1      29.832   7.905  48.612  1.00  0.00     0.040 C 
HETATM   26  C15 UNL     1      29.323   8.373  46.209  1.00  0.00     0.040 C 
ENDBRANCH  23  24
ENDBRANCH  20  23
ENDBRANCH   4  17
TORSDOF 7
ENDMDL
MODEL 9
REMARK VINA RESULT:      -6.3      4.436      8.270
REMARK  7 active torsions:
REMARK  status: ('A' for Active; 'I' for Inactive)
REMARK    1  A    between atoms: O1_2  and  C2_3 
REMARK    2  A    between atoms: N1_7  and  C6_8 
REMARK    3  A    between atoms: C6_8  and  C7_9 
REMARK    4  A    between atoms: C7_9  and  N2_10 
REMARK       I    between atoms: N2_10  and  C8_11 
REMARK       I    between atoms: C8_11  and  N3_13 
REMARK    5  A    between atoms: N3_13  and  C9_14 
REMARK    6  A    between atoms: C12_17  and  O3_18 
REMARK    7  A    between atoms: O3_18  and  C13_19 
ROOT
HETATM    1  N2  UNL     1      21.455   3.444  50.448  1.00  0.00    -0.341 N 
HETATM    2  C8  UNL     1      22.416   2.454  50.771  1.00  0.00     0.320 C 
HETATM    3  O2  UNL     1      22.238   1.366  50.198  1.00  0.00    -0.247 OA
HETATM    4  N3  UNL     1      23.489   2.650  51.660  1.00  0.00    -0.309 N 
HETATM    5  H11 UNL     1      21.536   4.394  50.896  1.00  0.00     0.164 HD
HETATM    6  H12 UNL     1      23.480   3.621  52.045  1.00  0.00     0.170 HD
ENDROOT
BRANCH   1   7
HETATM    7  C7  UNL     1      20.363   3.201  49.523  1.00  0.00     0.144 C 
BRANCH   7   8
HETATM    8  C6  UNL     1      19.019   3.395  50.198  1.00  0.00     0.142 C 
BRANCH   8   9
HETATM    9  N1  UNL     1      18.494   2.086  50.517  1.00  0.00    -0.382 N 
HETATM   10  C5  UNL     1      17.466   1.492  49.718  1.00  0.00     0.086 A 
HETATM   11  C4  UNL     1      16.905   0.318  49.902  1.00  0.00     0.019 A 
HETATM   12  C3  UNL     1      17.348  -0.480  51.016  1.00  0.00     0.035 A 
HETATM   13  C2  UNL     1      18.287   0.034  51.766  1.00  0.00     0.063 A 
HETATM   14  C18 UNL     1      18.965   1.326  51.634  1.00  0.00     0.186 A 
BRANCH  13  15
HETATM   15  O1  UNL     1      18.650  -0.807  52.816  1.00  0.00    -0.359 OA
HETATM   16  C1  UNL     1      19.789  -0.460  53.575  1.00  0.00     0.209 C 
ENDBRANCH  13  15
ENDBRANCH   8   9
ENDBRANCH   7   8
ENDBRANCH   1   7
BRANCH   4  17
HETATM   17  C9  UNL     1      24.480   1.715  52.031  1.00  0.00     0.036 A 
HETATM   18  C10 UNL     1      24.133   0.859  53.051  1.00  0.00     0.032 A 
HETATM   19  C11 UNL     1      24.990  -0.101  53.515  1.00  0.00     0.039 A 
HETATM   20  C12 UNL     1      26.253  -0.298  53.017  1.00  0.00     0.069 A 
HETATM   21  C16 UNL     1      26.613   0.571  51.978  1.00  0.00     0.039 A 
HETATM   22  C17 UNL     1      25.721   1.546  51.518  1.00  0.00     0.032 A 
BRANCH  20  23
HETATM   23  O3  UNL     1      27.270  -1.172  53.311  1.00  0.00    -0.347 OA
BRANCH  23  24
HETATM   24  C13 UNL     1      28.584  -0.734  53.449  1.00  0.00     0.120 C 
HETATM   25  C14 UNL     1      28.711   0.023  54.756  1.00  0.00     0.040 C 
HETATM   26  C15 UNL     1      29.509  -1.931  53.414  1.00  0.00     0.040 C 
ENDBRANCH  23  24
ENDBRANCH  20  23
ENDBRANCH   4  17
TORSDOF 7
ENDMDL
