MODEL 1
REMARK VINA RESULT:      -8.0      0.000      0.000
REMARK  6 active torsions:
REMARK  status: ('A' for Active; 'I' for Inactive)
REMARK    1  A    between atoms: C2_2  and  C3_3 
REMARK    2  A    between atoms: C5_5  and  O1_6 
REMARK    3  A    between atoms: C7_8  and  O2_9 
REMARK    4  A    between atoms: C10_12  and  N1_13 
REMARK    5  A    between atoms: N1_13  and  C11_14 
REMARK    6  A    between atoms: C16_20  and  N2_21 
ROOT
HETATM    1  C11 UNL     1      23.021   3.070  52.027  1.00  0.00     0.120 C 
HETATM    2  C12 UNL     1      22.359   4.327  51.490  1.00  0.00     0.056 C 
HETATM    3  C13 UNL     1      22.783   4.637  50.084  1.00  0.00     0.178 C 
HETATM    4  O3  UNL     1      23.784   3.693  49.730  1.00  0.00    -0.345 OA
HETATM    5  C14 UNL     1      24.826   3.364  50.579  1.00  0.00     0.144 A 
HETATM    6  C15 UNL     1      24.460   3.029  51.803  1.00  0.00     0.034 A 
HETATM    7  C16 UNL     1      25.604   2.687  52.686  1.00  0.00     0.359 A 
HETATM    8  N3  UNL     1      26.739   2.866  51.774  1.00  0.00    -0.322 N 
HETATM    9  C21 UNL     1      26.293   3.280  50.489  1.00  0.00     0.277 A 
HETATM   10  O5  UNL     1      26.995   3.527  49.475  1.00  0.00    -0.265 OA
HETATM   11  H29 UNL     1      27.734   2.706  52.051  1.00  0.00     0.165 HD
ENDROOT
BRANCH   1  12
HETATM   12  N1  UNL     1      22.301   1.945  51.497  1.00  0.00    -0.381 N 
HETATM   13  H14 UNL     1      22.432   1.846  50.467  1.00  0.00     0.160 HD
BRANCH  12  14
HETATM   14  C10 UNL     1      21.473   0.988  52.139  1.00  0.00     0.037 A 
HETATM   15  C3  UNL     1      20.200   0.723  51.678  1.00  0.00    -0.029 A 
HETATM   16  C4  UNL     1      19.408  -0.216  52.298  1.00  0.00     0.049 A 
HETATM   17  C5  UNL     1      19.843  -0.928  53.395  1.00  0.00     0.102 A 
HETATM   18  C7  UNL     1      21.099  -0.683  53.867  1.00  0.00     0.103 A 
HETATM   19  C9  UNL     1      21.881   0.259  53.237  1.00  0.00     0.069 A 
BRANCH  15  20
HETATM   20  C2  UNL     1      19.636   1.437  50.500  1.00  0.00     0.036 C 
HETATM   21  C1  UNL     1      18.341   0.765  50.136  1.00  0.00     0.010 C 
ENDBRANCH  15  20
BRANCH  17  22
HETATM   22  O1  UNL     1      19.034  -1.872  54.011  1.00  0.00    -0.353 OA
HETATM   23  C6  UNL     1      17.743  -2.066  53.445  1.00  0.00     0.210 C 
ENDBRANCH  17  22
BRANCH  18  24
HETATM   24  O2  UNL     1      21.520  -1.416  54.979  1.00  0.00    -0.353 OA
HETATM   25  C8  UNL     1      22.906  -1.360  55.315  1.00  0.00     0.210 C 
ENDBRANCH  18  24
ENDBRANCH  12  14
ENDBRANCH   1  12
BRANCH   7  26
HETATM   26  N2  UNL     1      25.545   1.394  53.275  1.00  0.00     0.119 N 
HETATM   27  C17 UNL     1      25.601   0.283  52.386  1.00  0.00     0.301 C 
HETATM   28  C18 UNL     1      26.733  -0.672  52.689  1.00  0.00     0.198 C 
HETATM   29  O4  UNL     1      26.591  -1.090  54.006  1.00  0.00    -0.388 OA
HETATM   30  C19 UNL     1      26.618  -0.061  54.932  1.00  0.00     0.198 C 
HETATM   31  C20 UNL     1      26.560   1.310  54.301  1.00  0.00     0.301 C 
ENDBRANCH   7  26
TORSDOF 6
ENDMDL
MODEL 2
REMARK VINA RESULT:      -8.0      1.007      2.568
REMARK  6 active torsions:
REMARK  status: ('A' for Active; 'I' for Inactive)
REMARK    1  A    between atoms: C2_2  and  C3_3 
REMARK    2  A    between atoms: C5_5  and  O1_6 
REMARK    3  A    between atoms: C7_8  and  O2_9 
REMARK    4  A    between atoms: C10_12  and  N1_13 
REMARK    5  A    between atoms: N1_13  and  C11_14 
REMARK    6  A    between atoms: C16_20  and  N2_21 
ROOT
HETATM    1  C11 UNL     1      23.134   2.648  52.151  1.00  0.00     0.120 C 
HETATM    2  C12 UNL     1      22.282   3.848  51.774  1.00  0.00     0.056 C 
HETATM    3  C13 UNL     1      22.493   4.270  50.349  1.00  0.00     0.178 C 
HETATM    4  O3  UNL     1      23.535   3.461  49.822  1.00  0.00    -0.345 OA
HETATM    5  C14 UNL     1      24.704   3.209  50.520  1.00  0.00     0.144 A 
HETATM    6  C15 UNL     1      24.530   2.778  51.756  1.00  0.00     0.034 A 
HETATM    7  C16 UNL     1      25.805   2.525  52.475  1.00  0.00     0.359 A 
HETATM    8  N3  UNL     1      26.792   2.872  51.447  1.00  0.00    -0.322 N 
HETATM    9  C21 UNL     1      26.148   3.294  50.251  1.00  0.00     0.277 A 
HETATM   10  O5  UNL     1      26.689   3.665  49.178  1.00  0.00    -0.265 OA
HETATM   11  H29 UNL     1      27.825   2.810  51.594  1.00  0.00     0.165 HD
ENDROOT
BRANCH   1  12
HETATM   12  N1  UNL     1      22.475   1.477  51.644  1.00  0.00    -0.381 N 
HETATM   13  H14 UNL     1      22.959   1.088  50.806  1.00  0.00     0.160 HD
BRANCH  12  14
HETATM   14  C10 UNL     1      21.313   0.798  52.093  1.00  0.00     0.037 A 
HETATM   15  C3  UNL     1      21.375  -0.116  53.125  1.00  0.00    -0.029 A 
HETATM   16  C4  UNL     1      20.241  -0.760  53.563  1.00  0.00     0.049 A 
HETATM   17  C5  UNL     1      19.005  -0.527  53.001  1.00  0.00     0.102 A 
HETATM   18  C7  UNL     1      18.920   0.374  51.980  1.00  0.00     0.103 A 
HETATM   19  C9  UNL     1      20.063   1.011  51.551  1.00  0.00     0.069 A 
BRANCH  15  20
HETATM   20  C2  UNL     1      22.662  -0.440  53.800  1.00  0.00     0.036 C 
HETATM   21  C1  UNL     1      22.339  -1.201  55.056  1.00  0.00     0.010 C 
ENDBRANCH  15  20
BRANCH  17  22
HETATM   22  O1  UNL     1      17.870  -1.184  53.453  1.00  0.00    -0.353 OA
HETATM   23  C6  UNL     1      17.985  -2.589  53.644  1.00  0.00     0.210 C 
ENDBRANCH  17  22
BRANCH  18  24
HETATM   24  O2  UNL     1      17.658   0.596  51.424  1.00  0.00    -0.353 OA
HETATM   25  C8  UNL     1      17.411   0.065  50.124  1.00  0.00     0.210 C 
ENDBRANCH  18  24
ENDBRANCH  12  14
ENDBRANCH   1  12
BRANCH   7  26
HETATM   26  N2  UNL     1      25.955   1.206  52.987  1.00  0.00     0.119 N 
HETATM   27  C17 UNL     1      26.835   0.341  52.278  1.00  0.00     0.301 C 
HETATM   28  C18 UNL     1      27.945  -0.220  53.136  1.00  0.00     0.198 C 
HETATM   29  O4  UNL     1      27.359  -0.874  54.212  1.00  0.00    -0.388 OA
HETATM   30  C19 UNL     1      26.557  -0.064  54.997  1.00  0.00     0.198 C 
HETATM   31  C20 UNL     1      26.305   1.296  54.387  1.00  0.00     0.301 C 
ENDBRANCH   7  26
TORSDOF 6
ENDMDL
MODEL 3
REMARK VINA RESULT:      -7.9      2.191      5.899
REMARK  6 active torsions:
REMARK  status: ('A' for Active; 'I' for Inactive)
REMARK    1  A    between atoms: C2_2  and  C3_3 
REMARK    2  A    between atoms: C5_5  and  O1_6 
REMARK    3  A    between atoms: C7_8  and  O2_9 
REMARK    4  A    between atoms: C10_12  and  N1_13 
REMARK    5  A    between atoms: N1_13  and  C11_14 
REMARK    6  A    between atoms: C16_20  and  N2_21 
ROOT
HETATM    1  C11 UNL     1      23.446   1.179  52.171  1.00  0.00     0.120 C 
HETATM    2  C12 UNL     1      22.266   0.700  51.343  1.00  0.00     0.056 C 
HETATM    3  C13 UNL     1      21.148   0.177  52.196  1.00  0.00     0.178 C 
HETATM    4  O3  UNL     1      21.605   0.191  53.541  1.00  0.00    -0.345 OA
HETATM    5  C14 UNL     1      22.860  -0.269  53.903  1.00  0.00     0.144 A 
HETATM    6  C15 UNL     1      23.858   0.232  53.200  1.00  0.00     0.034 A 
HETATM    7  C16 UNL     1      25.187  -0.287  53.611  1.00  0.00     0.359 A 
HETATM    8  N3  UNL     1      24.819  -1.193  54.705  1.00  0.00    -0.322 N 
HETATM    9  C21 UNL     1      23.410  -1.202  54.899  1.00  0.00     0.277 A 
HETATM   10  O5  UNL     1      22.755  -1.865  55.744  1.00  0.00    -0.265 OA
HETATM   11  H29 UNL     1      25.513  -1.748  55.255  1.00  0.00     0.165 HD
ENDROOT
BRANCH   1  12
HETATM   12  N1  UNL     1      23.124   2.490  52.660  1.00  0.00    -0.381 N 
HETATM   13  H14 UNL     1      22.912   2.487  53.681  1.00  0.00     0.160 HD
BRANCH  12  14
HETATM   14  C10 UNL     1      23.055   3.739  51.989  1.00  0.00     0.037 A 
HETATM   15  C3  UNL     1      21.847   4.375  51.788  1.00  0.00    -0.029 A 
HETATM   16  C4  UNL     1      21.791   5.592  51.148  1.00  0.00     0.049 A 
HETATM   17  C5  UNL     1      22.922   6.226  50.685  1.00  0.00     0.102 A 
HETATM   18  C7  UNL     1      24.128   5.617  50.875  1.00  0.00     0.103 A 
HETATM   19  C9  UNL     1      24.170   4.400  51.516  1.00  0.00     0.069 A 
BRANCH  15  20
HETATM   20  C2  UNL     1      20.567   3.773  52.249  1.00  0.00     0.036 C 
HETATM   21  C1  UNL     1      19.549   3.973  51.159  1.00  0.00     0.010 C 
ENDBRANCH  15  20
BRANCH  17  22
HETATM   22  O1  UNL     1      22.850   7.454  50.042  1.00  0.00    -0.353 OA
HETATM   23  C6  UNL     1      21.557   8.035  49.928  1.00  0.00     0.210 C 
ENDBRANCH  17  22
BRANCH  18  24
HETATM   24  O2  UNL     1      25.263   6.278  50.399  1.00  0.00    -0.353 OA
HETATM   25  C8  UNL     1      25.920   5.718  49.264  1.00  0.00     0.210 C 
ENDBRANCH  18  24
ENDBRANCH  12  14
ENDBRANCH   1  12
BRANCH   7  26
HETATM   26  N2  UNL     1      26.131   0.707  53.989  1.00  0.00     0.119 N 
HETATM   27  C17 UNL     1      26.995   0.390  55.075  1.00  0.00     0.301 C 
HETATM   28  C18 UNL     1      28.462   0.485  54.723  1.00  0.00     0.198 C 
HETATM   29  O4  UNL     1      28.700   1.770  54.251  1.00  0.00    -0.388 OA
HETATM   30  C19 UNL     1      27.952   2.112  53.137  1.00  0.00     0.198 C 
HETATM   31  C20 UNL     1      26.872   1.106  52.814  1.00  0.00     0.301 C 
ENDBRANCH   7  26
TORSDOF 6
ENDMDL
MODEL 4
REMARK VINA RESULT:      -7.6      2.384      6.489
REMARK  6 active torsions:
REMARK  status: ('A' for Active; 'I' for Inactive)
REMARK    1  A    between atoms: C2_2  and  C3_3 
REMARK    2  A    between atoms: C5_5  and  O1_6 
REMARK    3  A    between atoms: C7_8  and  O2_9 
REMARK    4  A    between atoms: C10_12  and  N1_13 
REMARK    5  A    between atoms: N1_13  and  C11_14 
REMARK    6  A    between atoms: C16_20  and  N2_21 
ROOT
HETATM    1  C11 UNL     1      23.743   1.632  51.687  1.00  0.00     0.120 C 
HETATM    2  C12 UNL     1      22.610   1.357  50.714  1.00  0.00     0.056 C 
HETATM    3  C13 UNL     1      21.318   1.053  51.416  1.00  0.00     0.178 C 
HETATM    4  O3  UNL     1      21.598   1.007  52.808  1.00  0.00    -0.345 OA
HETATM    5  C14 UNL     1      22.696   0.339  53.322  1.00  0.00     0.144 A 
HETATM    6  C15 UNL     1      23.848   0.644  52.754  1.00  0.00     0.034 A 
HETATM    7  C16 UNL     1      25.001  -0.095  53.327  1.00  0.00     0.359 A 
HETATM    8  N3  UNL     1      24.343  -0.904  54.359  1.00  0.00    -0.322 N 
HETATM    9  C21 UNL     1      22.942  -0.661  54.374  1.00  0.00     0.277 A 
HETATM   10  O5  UNL     1      22.080  -1.185  55.125  1.00  0.00    -0.265 OA
HETATM   11  H29 UNL     1      24.854  -1.565  54.988  1.00  0.00     0.165 HD
ENDROOT
BRANCH   1  12
HETATM   12  N1  UNL     1      23.600   2.988  52.141  1.00  0.00    -0.381 N 
HETATM   13  H14 UNL     1      23.402   3.040  53.164  1.00  0.00     0.160 HD
BRANCH  12  14
HETATM   14  C10 UNL     1      23.684   4.216  51.435  1.00  0.00     0.037 A 
HETATM   15  C3  UNL     1      24.772   4.508  50.639  1.00  0.00    -0.029 A 
HETATM   16  C4  UNL     1      24.839   5.696  49.947  1.00  0.00     0.049 A 
HETATM   17  C5  UNL     1      23.837   6.637  50.015  1.00  0.00     0.102 A 
HETATM   18  C7  UNL     1      22.750   6.369  50.795  1.00  0.00     0.103 A 
HETATM   19  C9  UNL     1      22.696   5.178  51.482  1.00  0.00     0.069 A 
BRANCH  15  20
HETATM   20  C2  UNL     1      25.909   3.557  50.498  1.00  0.00     0.036 C 
HETATM   21  C1  UNL     1      26.752   4.022  49.342  1.00  0.00     0.010 C 
ENDBRANCH  15  20
BRANCH  17  22
HETATM   22  O1  UNL     1      23.918   7.831  49.312  1.00  0.00    -0.353 OA
HETATM   23  C6  UNL     1      25.030   8.668  49.611  1.00  0.00     0.210 C 
ENDBRANCH  17  22
BRANCH  18  24
HETATM   24  O2  UNL     1      21.745   7.338  50.849  1.00  0.00    -0.353 OA
HETATM   25  C8  UNL     1      20.622   7.166  49.987  1.00  0.00     0.210 C 
ENDBRANCH  18  24
ENDBRANCH  12  14
ENDBRANCH   1  12
BRANCH   7  26
HETATM   26  N2  UNL     1      26.051   0.722  53.828  1.00  0.00     0.119 N 
HETATM   27  C17 UNL     1      26.667   0.301  55.040  1.00  0.00     0.301 C 
HETATM   28  C18 UNL     1      28.161   0.105  54.917  1.00  0.00     0.198 C 
HETATM   29  O4  UNL     1      28.709   1.298  54.464  1.00  0.00    -0.388 OA
HETATM   30  C19 UNL     1      28.214   1.720  53.242  1.00  0.00     0.198 C 
HETATM   31  C20 UNL     1      27.022   0.919  52.774  1.00  0.00     0.301 C 
ENDBRANCH   7  26
TORSDOF 6
ENDMDL
MODEL 5
REMARK VINA RESULT:      -7.4      2.428      5.883
REMARK  6 active torsions:
REMARK  status: ('A' for Active; 'I' for Inactive)
REMARK    1  A    between atoms: C2_2  and  C3_3 
REMARK    2  A    between atoms: C5_5  and  O1_6 
REMARK    3  A    between atoms: C7_8  and  O2_9 
REMARK    4  A    between atoms: C10_12  and  N1_13 
REMARK    5  A    between atoms: N1_13  and  C11_14 
REMARK    6  A    between atoms: C16_20  and  N2_21 
ROOT
HETATM    1  C11 UNL     1      21.792   2.591  52.430  1.00  0.00     0.120 C 
HETATM    2  C12 UNL     1      20.573   1.840  52.935  1.00  0.00     0.056 C 
HETATM    3  C13 UNL     1      19.766   1.247  51.817  1.00  0.00     0.178 C 
HETATM    4  O3  UNL     1      20.353   1.683  50.599  1.00  0.00    -0.345 OA
HETATM    5  C14 UNL     1      20.737   2.996  50.390  1.00  0.00     0.144 A 
HETATM    6  C15 UNL     1      21.499   3.510  51.337  1.00  0.00     0.034 A 
HETATM    7  C16 UNL     1      21.886   4.921  51.081  1.00  0.00     0.359 A 
HETATM    8  N3  UNL     1      21.227   5.174  49.795  1.00  0.00    -0.322 N 
HETATM    9  C21 UNL     1      20.520   4.021  49.356  1.00  0.00     0.277 A 
HETATM   10  O5  UNL     1      19.844   3.890  48.303  1.00  0.00    -0.265 OA
HETATM   11  H29 UNL     1      21.283   6.085  49.287  1.00  0.00     0.165 HD
ENDROOT
BRANCH   1  12
HETATM   12  N1  UNL     1      22.806   1.616  52.134  1.00  0.00    -0.381 N 
HETATM   13  H14 UNL     1      22.668   1.180  51.197  1.00  0.00     0.160 HD
BRANCH  12  14
HETATM   14  C10 UNL     1      23.920   1.176  52.896  1.00  0.00     0.037 A 
HETATM   15  C3  UNL     1      23.962  -0.095  53.429  1.00  0.00    -0.029 A 
HETATM   16  C4  UNL     1      25.052  -0.518  54.155  1.00  0.00     0.049 A 
HETATM   17  C5  UNL     1      26.139   0.297  54.381  1.00  0.00     0.102 A 
HETATM   18  C7  UNL     1      26.120   1.559  53.862  1.00  0.00     0.103 A 
HETATM   19  C9  UNL     1      25.023   1.969  53.137  1.00  0.00     0.069 A 
BRANCH  15  20
HETATM   20  C2  UNL     1      22.838  -1.053  53.243  1.00  0.00     0.036 C 
HETATM   21  C1  UNL     1      22.144  -1.206  54.569  1.00  0.00     0.010 C 
ENDBRANCH  15  20
BRANCH  17  22
HETATM   22  O1  UNL     1      27.232  -0.142  55.115  1.00  0.00    -0.353 OA
HETATM   23  C6  UNL     1      28.334  -0.648  54.371  1.00  0.00     0.210 C 
ENDBRANCH  17  22
BRANCH  18  24
HETATM   24  O2  UNL     1      27.232   2.368  54.101  1.00  0.00    -0.353 OA
HETATM   25  C8  UNL     1      28.188   2.497  53.051  1.00  0.00     0.210 C 
ENDBRANCH  18  24
ENDBRANCH  12  14
ENDBRANCH   1  12
BRANCH   7  26
HETATM   26  N2  UNL     1      23.287   5.166  51.062  1.00  0.00     0.119 N 
HETATM   27  C17 UNL     1      24.061   4.382  50.162  1.00  0.00     0.301 C 
HETATM   28  C18 UNL     1      24.864   5.208  49.183  1.00  0.00     0.198 C 
HETATM   29  O4  UNL     1      25.669   6.069  49.917  1.00  0.00    -0.388 OA
HETATM   30  C19 UNL     1      24.969   6.924  50.751  1.00  0.00     0.198 C 
HETATM   31  C20 UNL     1      23.501   6.582  50.859  1.00  0.00     0.301 C 
ENDBRANCH   7  26
TORSDOF 6
ENDMDL
MODEL 6
REMARK VINA RESULT:      -7.3      1.963      6.659
REMARK  6 active torsions:
REMARK  status: ('A' for Active; 'I' for Inactive)
REMARK    1  A    between atoms: C2_2  and  C3_3 
REMARK    2  A    between atoms: C5_5  and  O1_6 
REMARK    3  A    between atoms: C7_8  and  O2_9 
REMARK    4  A    between atoms: C10_12  and  N1_13 
REMARK    5  A    between atoms: N1_13  and  C11_14 
REMARK    6  A    between atoms: C16_20  and  N2_21 
ROOT
HETATM    1  C11 UNL     1      21.797   1.264  53.315  1.00  0.00     0.120 C 
HETATM    2  C12 UNL     1      20.963   0.330  54.176  1.00  0.00     0.056 C 
HETATM    3  C13 UNL     1      20.010  -0.494  53.361  1.00  0.00     0.178 C 
HETATM    4  O3  UNL     1      20.112  -0.048  52.016  1.00  0.00    -0.345 OA
HETATM    5  C14 UNL     1      20.134   1.295  51.680  1.00  0.00     0.144 A 
HETATM    6  C15 UNL     1      21.013   2.020  52.347  1.00  0.00     0.034 A 
HETATM    7  C16 UNL     1      21.004   3.454  51.964  1.00  0.00     0.359 A 
HETATM    8  N3  UNL     1      19.962   3.473  50.931  1.00  0.00    -0.322 N 
HETATM    9  C21 UNL     1      19.415   2.173  50.743  1.00  0.00     0.277 A 
HETATM   10  O5  UNL     1      18.506   1.831  49.944  1.00  0.00    -0.265 OA
HETATM   11  H29 UNL     1      19.674   4.335  50.415  1.00  0.00     0.165 HD
ENDROOT
BRANCH   1  12
HETATM   12  N1  UNL     1      22.862   0.486  52.744  1.00  0.00    -0.381 N 
HETATM   13  H14 UNL     1      22.504  -0.293  52.151  1.00  0.00     0.160 HD
BRANCH  12  14
HETATM   14  C10 UNL     1      24.270   0.614  52.862  1.00  0.00     0.037 A 
HETATM   15  C3  UNL     1      24.980  -0.131  53.781  1.00  0.00    -0.029 A 
HETATM   16  C4  UNL     1      26.347  -0.010  53.880  1.00  0.00     0.049 A 
HETATM   17  C5  UNL     1      27.064   0.849  53.077  1.00  0.00     0.102 A 
HETATM   18  C7  UNL     1      26.383   1.595  52.160  1.00  0.00     0.103 A 
HETATM   19  C9  UNL     1      25.015   1.465  52.072  1.00  0.00     0.069 A 
BRANCH  15  20
HETATM   20  C2  UNL     1      24.300  -1.089  54.696  1.00  0.00     0.036 C 
HETATM   21  C1  UNL     1      24.969  -0.990  56.039  1.00  0.00     0.010 C 
ENDBRANCH  15  20
BRANCH  17  22
HETATM   22  O1  UNL     1      28.443   0.961  53.188  1.00  0.00    -0.353 OA
HETATM   23  C6  UNL     1      29.076   0.094  54.121  1.00  0.00     0.210 C 
ENDBRANCH  17  22
BRANCH  18  24
HETATM   24  O2  UNL     1      27.129   2.460  51.355  1.00  0.00    -0.353 OA
HETATM   25  C8  UNL     1      26.441   3.132  50.302  1.00  0.00     0.210 C 
ENDBRANCH  18  24
ENDBRANCH  12  14
ENDBRANCH   1  12
BRANCH   7  26
HETATM   26  N2  UNL     1      22.254   3.967  51.520  1.00  0.00     0.119 N 
HETATM   27  C17 UNL     1      22.653   3.624  50.198  1.00  0.00     0.301 C 
HETATM   28  C18 UNL     1      22.927   4.826  49.323  1.00  0.00     0.198 C 
HETATM   29  O4  UNL     1      23.894   5.597  49.954  1.00  0.00    -0.388 OA
HETATM   30  C19 UNL     1      23.531   6.039  51.216  1.00  0.00     0.198 C 
HETATM   31  C20 UNL     1      22.262   5.398  51.728  1.00  0.00     0.301 C 
ENDBRANCH   7  26
TORSDOF 6
ENDMDL
MODEL 7
REMARK VINA RESULT:      -7.1      2.117      7.012
REMARK  6 active torsions:
REMARK  status: ('A' for Active; 'I' for Inactive)
REMARK    1  A    between atoms: C2_2  and  C3_3 
REMARK    2  A    between atoms: C5_5  and  O1_6 
REMARK    3  A    between atoms: C7_8  and  O2_9 
REMARK    4  A    between atoms: C10_12  and  N1_13 
REMARK    5  A    between atoms: N1_13  and  C11_14 
REMARK    6  A    between atoms: C16_20  and  N2_21 
ROOT
HETATM    1  C11 UNL     1      21.515   0.954  53.343  1.00  0.00     0.120 C 
HETATM    2  C12 UNL     1      21.430   0.065  54.572  1.00  0.00     0.056 C 
HETATM    3  C13 UNL     1      20.713  -1.224  54.294  1.00  0.00     0.178 C 
HETATM    4  O3  UNL     1      20.228  -1.154  52.960  1.00  0.00    -0.345 OA
HETATM    5  C14 UNL     1      19.594  -0.030  52.460  1.00  0.00     0.144 A 
HETATM    6  C15 UNL     1      20.245   1.103  52.643  1.00  0.00     0.034 A 
HETATM    7  C16 UNL     1      19.532   2.287  52.099  1.00  0.00     0.359 A 
HETATM    8  N3  UNL     1      18.327   1.667  51.538  1.00  0.00    -0.322 N 
HETATM    9  C21 UNL     1      18.339   0.260  51.747  1.00  0.00     0.277 A 
HETATM   10  O5  UNL     1      17.465  -0.575  51.400  1.00  0.00    -0.265 OA
HETATM   11  H29 UNL     1      17.573   2.204  51.053  1.00  0.00     0.165 HD
ENDROOT
BRANCH   1  12
HETATM   12  N1  UNL     1      22.591   0.460  52.529  1.00  0.00    -0.381 N 
HETATM   13  H14 UNL     1      22.246  -0.107  51.725  1.00  0.00     0.160 HD
BRANCH  12  14
HETATM   14  C10 UNL     1      23.996   0.622  52.650  1.00  0.00     0.037 A 
HETATM   15  C3  UNL     1      24.605   1.820  52.338  1.00  0.00    -0.029 A 
HETATM   16  C4  UNL     1      25.966   1.972  52.471  1.00  0.00     0.049 A 
HETATM   17  C5  UNL     1      26.775   0.951  52.918  1.00  0.00     0.102 A 
HETATM   18  C7  UNL     1      26.193  -0.242  53.233  1.00  0.00     0.103 A 
HETATM   19  C9  UNL     1      24.831  -0.381  53.095  1.00  0.00     0.069 A 
BRANCH  15  20
HETATM   20  C2  UNL     1      23.821   2.986  51.847  1.00  0.00     0.036 C 
HETATM   21  C1  UNL     1      23.788   4.010  52.948  1.00  0.00     0.010 C 
ENDBRANCH  15  20
BRANCH  17  22
HETATM   22  O1  UNL     1      28.147   1.118  53.047  1.00  0.00    -0.353 OA
HETATM   23  C6  UNL     1      28.589   2.390  53.506  1.00  0.00     0.210 C 
ENDBRANCH  17  22
BRANCH  18  24
HETATM   24  O2  UNL     1      27.031  -1.265  53.685  1.00  0.00    -0.353 OA
HETATM   25  C8  UNL     1      27.348  -2.307  52.764  1.00  0.00     0.210 C 
ENDBRANCH  18  24
ENDBRANCH  12  14
ENDBRANCH   1  12
BRANCH   7  26
HETATM   26  N2  UNL     1      20.271   3.052  51.155  1.00  0.00     0.119 N 
HETATM   27  C17 UNL     1      20.633   2.398  49.943  1.00  0.00     0.301 C 
HETATM   28  C18 UNL     1      20.136   3.110  48.706  1.00  0.00     0.198 C 
HETATM   29  O4  UNL     1      20.627   4.409  48.740  1.00  0.00    -0.388 OA
HETATM   30  C19 UNL     1      20.237   5.132  49.855  1.00  0.00     0.198 C 
HETATM   31  C20 UNL     1      19.558   4.285  50.906  1.00  0.00     0.301 C 
ENDBRANCH   7  26
TORSDOF 6
ENDMDL
MODEL 8
REMARK VINA RESULT:      -7.0      2.243      5.548
REMARK  6 active torsions:
REMARK  status: ('A' for Active; 'I' for Inactive)
REMARK    1  A    between atoms: C2_2  and  C3_3 
REMARK    2  A    between atoms: C5_5  and  O1_6 
REMARK    3  A    between atoms: C7_8  and  O2_9 
REMARK    4  A    between atoms: C10_12  and  N1_13 
REMARK    5  A    between atoms: N1_13  and  C11_14 
REMARK    6  A    between atoms: C16_20  and  N2_21 
ROOT
HETATM    1  C11 UNL     1      24.844   3.128  49.694  1.00  0.00     0.120 C 
HETATM    2  C12 UNL     1      26.304   3.268  49.297  1.00  0.00     0.056 C 
HETATM    3  C13 UNL     1      26.830   4.652  49.543  1.00  0.00     0.178 C 
HETATM    4  O3  UNL     1      25.735   5.446  49.976  1.00  0.00    -0.345 OA
HETATM    5  C14 UNL     1      24.500   5.410  49.352  1.00  0.00     0.144 A 
HETATM    6  C15 UNL     1      23.998   4.201  49.186  1.00  0.00     0.034 A 
HETATM    7  C16 UNL     1      22.676   4.200  48.509  1.00  0.00     0.359 A 
HETATM    8  N3  UNL     1      22.456   5.635  48.300  1.00  0.00    -0.322 N 
HETATM    9  C21 UNL     1      23.552   6.391  48.800  1.00  0.00     0.277 A 
HETATM   10  O5  UNL     1      23.695   7.641  48.782  1.00  0.00    -0.265 OA
HETATM   11  H29 UNL     1      21.603   6.029  47.842  1.00  0.00     0.165 HD
ENDROOT
BRANCH   1  12
HETATM   12  N1  UNL     1      24.801   2.957  51.119  1.00  0.00    -0.381 N 
HETATM   13  H14 UNL     1      25.302   3.721  51.621  1.00  0.00     0.160 HD
BRANCH  12  14
HETATM   14  C10 UNL     1      24.202   1.945  51.914  1.00  0.00     0.037 A 
HETATM   15  C3  UNL     1      24.931   0.860  52.354  1.00  0.00    -0.029 A 
HETATM   16  C4  UNL     1      24.346  -0.110  53.136  1.00  0.00     0.049 A 
HETATM   17  C5  UNL     1      23.022  -0.045  53.511  1.00  0.00     0.102 A 
HETATM   18  C7  UNL     1      22.283   1.020  53.088  1.00  0.00     0.103 A 
HETATM   19  C9  UNL     1      22.880   1.983  52.306  1.00  0.00     0.069 A 
BRANCH  15  20
HETATM   20  C2  UNL     1      26.368   0.695  52.005  1.00  0.00     0.036 C 
HETATM   21  C1  UNL     1      26.759  -0.720  52.332  1.00  0.00     0.010 C 
ENDBRANCH  15  20
BRANCH  17  22
HETATM   22  O1  UNL     1      22.445  -1.031  54.299  1.00  0.00    -0.353 OA
HETATM   23  C6  UNL     1      23.147  -1.386  55.485  1.00  0.00     0.210 C 
ENDBRANCH  17  22
BRANCH  18  24
HETATM   24  O2  UNL     1      20.943   1.067  53.480  1.00  0.00    -0.353 OA
HETATM   25  C8  UNL     1      19.958   0.799  52.483  1.00  0.00     0.210 C 
ENDBRANCH  18  24
ENDBRANCH  12  14
ENDBRANCH   1  12
BRANCH   7  26
HETATM   26  N2  UNL     1      21.629   3.564  49.232  1.00  0.00     0.119 N 
HETATM   27  C17 UNL     1      20.931   4.361  50.182  1.00  0.00     0.301 C 
HETATM   28  C18 UNL     1      19.440   4.418  49.937  1.00  0.00     0.198 C 
HETATM   29  O4  UNL     1      18.963   3.114  49.930  1.00  0.00    -0.388 OA
HETATM   30  C19 UNL     1      19.541   2.305  48.967  1.00  0.00     0.198 C 
HETATM   31  C20 UNL     1      20.728   2.946  48.285  1.00  0.00     0.301 C 
ENDBRANCH   7  26
TORSDOF 6
ENDMDL
MODEL 9
REMARK VINA RESULT:      -6.9      2.244      4.120
REMARK  6 active torsions:
REMARK  status: ('A' for Active; 'I' for Inactive)
REMARK    1  A    between atoms: C2_2  and  C3_3 
REMARK    2  A    between atoms: C5_5  and  O1_6 
REMARK    3  A    between atoms: C7_8  and  O2_9 
REMARK    4  A    between atoms: C10_12  and  N1_13 
REMARK    5  A    between atoms: N1_13  and  C11_14 
REMARK    6  A    between atoms: C16_20  and  N2_21 
ROOT
HETATM    1  C11 UNL     1      22.305   3.472  52.309  1.00  0.00     0.120 C 
HETATM    2  C12 UNL     1      22.844   4.893  52.335  1.00  0.00     0.056 C 
HETATM    3  C13 UNL     1      23.999   5.079  51.395  1.00  0.00     0.178 C 
HETATM    4  O3  UNL     1      24.305   3.804  50.847  1.00  0.00    -0.345 OA
HETATM    5  C14 UNL     1      24.382   2.662  51.625  1.00  0.00     0.144 A 
HETATM    6  C15 UNL     1      23.342   2.454  52.411  1.00  0.00     0.034 A 
HETATM    7  C16 UNL     1      23.463   1.224  53.234  1.00  0.00     0.359 A 
HETATM    8  N3  UNL     1      24.767   0.711  52.800  1.00  0.00    -0.322 N 
HETATM    9  C21 UNL     1      25.347   1.569  51.825  1.00  0.00     0.277 A 
HETATM   10  O5  UNL     1      26.455   1.434  51.245  1.00  0.00    -0.265 OA
HETATM   11  H29 UNL     1      25.195  -0.169  53.169  1.00  0.00     0.165 HD
ENDROOT
BRANCH   1  12
HETATM   12  N1  UNL     1      21.462   3.353  51.152  1.00  0.00    -0.381 N 
HETATM   13  H14 UNL     1      21.839   3.882  50.336  1.00  0.00     0.160 HD
BRANCH  12  14
HETATM   14  C10 UNL     1      20.244   2.651  50.960  1.00  0.00     0.037 A 
HETATM   15  C3  UNL     1      20.209   1.458  50.268  1.00  0.00    -0.029 A 
HETATM   16  C4  UNL     1      19.024   0.778  50.098  1.00  0.00     0.049 A 
HETATM   17  C5  UNL     1      17.833   1.248  50.605  1.00  0.00     0.102 A 
HETATM   18  C7  UNL     1      17.844   2.425  51.294  1.00  0.00     0.103 A 
HETATM   19  C9  UNL     1      19.036   3.096  51.457  1.00  0.00     0.069 A 
BRANCH  15  20
HETATM   20  C2  UNL     1      21.440   0.864  49.680  1.00  0.00     0.036 C 
HETATM   21  C1  UNL     1      21.617   1.446  48.305  1.00  0.00     0.010 C 
ENDBRANCH  15  20
BRANCH  17  22
HETATM   22  O1  UNL     1      16.646   0.552  50.426  1.00  0.00    -0.353 OA
HETATM   23  C6  UNL     1      16.063   0.616  49.130  1.00  0.00     0.210 C 
ENDBRANCH  17  22
BRANCH  18  24
HETATM   24  O2  UNL     1      16.626   2.884  51.800  1.00  0.00    -0.353 OA
HETATM   25  C8  UNL     1      16.377   4.287  51.740  1.00  0.00     0.210 C 
ENDBRANCH  18  24
ENDBRANCH  12  14
ENDBRANCH   1  12
BRANCH   7  26
HETATM   26  N2  UNL     1      22.403   0.288  53.078  1.00  0.00     0.119 N 
HETATM   27  C17 UNL     1      22.704  -1.073  53.363  1.00  0.00     0.301 C 
HETATM   28  C18 UNL     1      21.810  -1.677  54.422  1.00  0.00     0.198 C 
HETATM   29  O4  UNL     1      20.495  -1.532  53.998  1.00  0.00    -0.388 OA
HETATM   30  C19 UNL     1      20.111  -0.218  53.787  1.00  0.00     0.198 C 
HETATM   31  C20 UNL     1      21.265   0.755  53.838  1.00  0.00     0.301 C 
ENDBRANCH   7  26
TORSDOF 6
ENDMDL
