MODEL 1
REMARK VINA RESULT:      -8.0      0.000      0.000
REMARK  6 active torsions:
REMARK  status: ('A' for Active; 'I' for Inactive)
REMARK    1  A    between atoms: N1_2  and  C3_4 
REMARK    2  A    between atoms: C3_4  and  C4_5 
REMARK    3  A    between atoms: C4_5  and  O1_6 
REMARK    4  A    between atoms: O1_6  and  C5_7 
REMARK    5  A    between atoms: C8_10  and  N2_11 
REMARK    6  A    between atoms: N2_11  and  C9_12 
ROOT
HETATM    1  C5  UNL     1      25.226  -0.685  54.489  1.00  0.00     0.165 A 
HETATM    2  C6  UNL     1      24.428  -0.226  53.444  1.00  0.00     0.074 A 
HETATM    3  C7  UNL     1      23.068  -0.415  53.573  1.00  0.00     0.026 A 
HETATM    4  C8  UNL     1      22.247   0.023  52.566  1.00  0.00     0.068 A 
HETATM    5  C15 UNL     1      20.864  -0.146  52.651  1.00  0.00     0.089 A 
HETATM    6  C16 UNL     1      19.939   0.283  51.644  1.00  0.00     0.103 C 
HETATM    7  N3  UNL     1      19.209   0.639  50.836  1.00  0.00    -0.191 NA
HETATM    8  C17 UNL     1      20.357  -0.761  53.767  1.00  0.00     0.142 A 
HETATM    9  N4  UNL     1      21.144  -1.203  54.777  1.00  0.00    -0.257 NA
HETATM   10  C18 UNL     1      22.474  -1.023  54.660  1.00  0.00     0.086 A 
HETATM   11  C19 UNL     1      23.310  -1.456  55.661  1.00  0.00     0.152 A 
HETATM   12  N5  UNL     1      24.639  -1.282  55.557  1.00  0.00    -0.235 NA
ENDROOT
BRANCH   4  13
HETATM   13  N2  UNL     1      22.693   0.667  51.384  1.00  0.00    -0.354 N 
HETATM   14  H12 UNL     1      22.761   0.211  50.447  1.00  0.00     0.166 HD
BRANCH  13  15
HETATM   15  C9  UNL     1      23.077   2.033  51.472  1.00  0.00     0.033 A 
HETATM   16  C10 UNL     1      22.438   2.900  52.356  1.00  0.00     0.029 A 
HETATM   17  C11 UNL     1      22.838   4.234  52.419  1.00  0.00     0.004 A 
HETATM   18  C12 UNL     1      23.839   4.744  51.646  1.00  0.00     0.019 A 
HETATM   19  C13 UNL     1      24.489   3.900  50.759  1.00  0.00     0.013 A 
HETATM   20 BR1  UNL     1      25.895   4.579  49.661  1.00  0.00    -0.051 Br
HETATM   21  C14 UNL     1      24.084   2.582  50.706  1.00  0.00     0.048 A 
ENDBRANCH  13  15
ENDBRANCH   4  13
BRANCH   1  22
HETATM   22  O1  UNL     1      26.620  -0.524  54.424  1.00  0.00    -0.333 OA
BRANCH  22  23
HETATM   23  C4  UNL     1      27.231  -0.575  53.150  1.00  0.00     0.207 C 
BRANCH  23  24
HETATM   24  C3  UNL     1      27.959   0.711  52.814  1.00  0.00     0.298 C 
BRANCH  24  25
HETATM   25  N1  UNL     1      29.302   0.756  53.341  1.00  0.00     0.082 N 
HETATM   26  C1  UNL     1      29.327   1.587  54.523  1.00  0.00     0.309 C 
HETATM   27  C2  UNL     1      29.840  -0.542  53.585  1.00  0.00     0.309 C 
ENDBRANCH  24  25
ENDBRANCH  23  24
ENDBRANCH  22  23
ENDBRANCH   1  22
TORSDOF 6
ENDMDL
MODEL 2
REMARK VINA RESULT:      -7.7      2.111      5.875
REMARK  6 active torsions:
REMARK  status: ('A' for Active; 'I' for Inactive)
REMARK    1  A    between atoms: N1_2  and  C3_4 
REMARK    2  A    between atoms: C3_4  and  C4_5 
REMARK    3  A    between atoms: C4_5  and  O1_6 
REMARK    4  A    between atoms: O1_6  and  C5_7 
REMARK    5  A    between atoms: C8_10  and  N2_11 
REMARK    6  A    between atoms: N2_11  and  C9_12 
ROOT
HETATM    1  C5  UNL     1      21.738  -1.305  54.292  1.00  0.00     0.165 A 
HETATM    2  C6  UNL     1      22.395  -0.480  53.382  1.00  0.00     0.074 A 
HETATM    3  C7  UNL     1      23.723  -0.208  53.639  1.00  0.00     0.026 A 
HETATM    4  C8  UNL     1      24.406   0.600  52.767  1.00  0.00     0.068 A 
HETATM    5  C15 UNL     1      25.751   0.904  52.984  1.00  0.00     0.089 A 
HETATM    6  C16 UNL     1      26.536   1.739  52.123  1.00  0.00     0.103 C 
HETATM    7  N3  UNL     1      27.155   2.399  51.421  1.00  0.00    -0.191 NA
HETATM    8  C17 UNL     1      26.362   0.372  54.091  1.00  0.00     0.142 A 
HETATM    9  N4  UNL     1      25.712  -0.429  54.969  1.00  0.00    -0.257 NA
HETATM   10  C18 UNL     1      24.414  -0.700  54.726  1.00  0.00     0.086 A 
HETATM   11  C19 UNL     1      23.715  -1.509  55.590  1.00  0.00     0.152 A 
HETATM   12  N5  UNL     1      22.421  -1.788  55.360  1.00  0.00    -0.235 NA
ENDROOT
BRANCH   4  13
HETATM   13  N2  UNL     1      23.848   1.187  51.603  1.00  0.00    -0.354 N 
HETATM   14  H12 UNL     1      23.885   0.767  50.649  1.00  0.00     0.166 HD
BRANCH  13  15
HETATM   15  C9  UNL     1      23.188   2.439  51.738  1.00  0.00     0.033 A 
HETATM   16  C10 UNL     1      21.865   2.506  52.170  1.00  0.00     0.029 A 
HETATM   17  C11 UNL     1      21.244   3.749  52.292  1.00  0.00     0.004 A 
HETATM   18  C12 UNL     1      21.877   4.923  52.005  1.00  0.00     0.019 A 
HETATM   19  C13 UNL     1      23.193   4.880  51.574  1.00  0.00     0.013 A 
HETATM   20 BR1  UNL     1      24.110   6.504  51.164  1.00  0.00    -0.051 Br
HETATM   21  C14 UNL     1      23.795   3.645  51.458  1.00  0.00     0.048 A 
ENDBRANCH  13  15
ENDBRANCH   4  13
BRANCH   1  22
HETATM   22  O1  UNL     1      20.385  -1.624  54.091  1.00  0.00    -0.333 OA
BRANCH  22  23
HETATM   23  C4  UNL     1      19.557  -0.644  53.498  1.00  0.00     0.207 C 
BRANCH  23  24
HETATM   24  C3  UNL     1      18.178  -1.181  53.172  1.00  0.00     0.298 C 
BRANCH  24  25
HETATM   25  N1  UNL     1      17.665  -0.697  51.913  1.00  0.00     0.082 N 
HETATM   26  C1  UNL     1      16.404  -0.026  52.135  1.00  0.00     0.309 C 
HETATM   27  C2  UNL     1      18.599   0.127  51.220  1.00  0.00     0.309 C 
ENDBRANCH  24  25
ENDBRANCH  23  24
ENDBRANCH  22  23
ENDBRANCH   1  22
TORSDOF 6
ENDMDL
MODEL 3
REMARK VINA RESULT:      -7.5      2.172      3.387
REMARK  6 active torsions:
REMARK  status: ('A' for Active; 'I' for Inactive)
REMARK    1  A    between atoms: N1_2  and  C3_4 
REMARK    2  A    between atoms: C3_4  and  C4_5 
REMARK    3  A    between atoms: C4_5  and  O1_6 
REMARK    4  A    between atoms: O1_6  and  C5_7 
REMARK    5  A    between atoms: C8_10  and  N2_11 
REMARK    6  A    between atoms: N2_11  and  C9_12 
ROOT
HETATM    1  C5  UNL     1      24.114   0.202  53.413  1.00  0.00     0.165 A 
HETATM    2  C6  UNL     1      24.109   1.542  53.034  1.00  0.00     0.074 A 
HETATM    3  C7  UNL     1      22.935   2.031  52.502  1.00  0.00     0.026 A 
HETATM    4  C8  UNL     1      22.888   3.346  52.116  1.00  0.00     0.068 A 
HETATM    5  C15 UNL     1      21.722   3.887  51.573  1.00  0.00     0.089 A 
HETATM    6  C16 UNL     1      21.590   5.249  51.145  1.00  0.00     0.103 C 
HETATM    7  N3  UNL     1      21.496   6.342  50.817  1.00  0.00    -0.191 NA
HETATM    8  C17 UNL     1      20.632   3.066  51.438  1.00  0.00     0.142 A 
HETATM    9  N4  UNL     1      20.649   1.764  51.810  1.00  0.00    -0.257 NA
HETATM   10  C18 UNL     1      21.793   1.277  52.331  1.00  0.00     0.086 A 
HETATM   11  C19 UNL     1      21.855  -0.039  52.723  1.00  0.00     0.152 A 
HETATM   12  N5  UNL     1      22.989  -0.538  53.244  1.00  0.00    -0.235 NA
ENDROOT
BRANCH   4  13
HETATM   13  N2  UNL     1      23.968   4.258  52.223  1.00  0.00    -0.354 N 
HETATM   14  H12 UNL     1      24.147   4.876  53.044  1.00  0.00     0.166 HD
BRANCH  13  15
HETATM   15  C9  UNL     1      24.881   4.341  51.136  1.00  0.00     0.033 A 
HETATM   16  C10 UNL     1      25.696   3.261  50.802  1.00  0.00     0.029 A 
HETATM   17  C11 UNL     1      26.581   3.374  49.730  1.00  0.00     0.004 A 
HETATM   18  C12 UNL     1      26.693   4.507  48.979  1.00  0.00     0.019 A 
HETATM   19  C13 UNL     1      25.892   5.594  49.294  1.00  0.00     0.013 A 
HETATM   20 BR1  UNL     1      26.023   7.196  48.263  1.00  0.00    -0.051 Br
HETATM   21  C14 UNL     1      25.021   5.470  50.355  1.00  0.00     0.048 A 
ENDBRANCH  13  15
ENDBRANCH   4  13
BRANCH   1  22
HETATM   22  O1  UNL     1      25.277  -0.363  53.963  1.00  0.00    -0.333 OA
BRANCH  22  23
HETATM   23  C4  UNL     1      26.216  -0.936  53.074  1.00  0.00     0.207 C 
BRANCH  23  24
HETATM   24  C3  UNL     1      27.345   0.018  52.742  1.00  0.00     0.298 C 
BRANCH  24  25
HETATM   25  N1  UNL     1      27.727   0.854  53.855  1.00  0.00     0.082 N 
HETATM   26  C1  UNL     1      28.706   0.161  54.661  1.00  0.00     0.309 C 
HETATM   27  C2  UNL     1      28.182   2.141  53.443  1.00  0.00     0.309 C 
ENDBRANCH  24  25
ENDBRANCH  23  24
ENDBRANCH  22  23
ENDBRANCH   1  22
TORSDOF 6
ENDMDL
MODEL 4
REMARK VINA RESULT:      -7.3      2.407      4.646
REMARK  6 active torsions:
REMARK  status: ('A' for Active; 'I' for Inactive)
REMARK    1  A    between atoms: N1_2  and  C3_4 
REMARK    2  A    between atoms: C3_4  and  C4_5 
REMARK    3  A    between atoms: C4_5  and  O1_6 
REMARK    4  A    between atoms: O1_6  and  C5_7 
REMARK    5  A    between atoms: C8_10  and  N2_11 
REMARK    6  A    between atoms: N2_11  and  C9_12 
ROOT
HETATM    1  C5  UNL     1      26.868   1.995  51.897  1.00  0.00     0.165 A 
HETATM    2  C6  UNL     1      25.621   1.380  51.981  1.00  0.00     0.074 A 
HETATM    3  C7  UNL     1      25.371   0.636  53.114  1.00  0.00     0.026 A 
HETATM    4  C8  UNL     1      24.154   0.014  53.235  1.00  0.00     0.068 A 
HETATM    5  C15 UNL     1      23.855  -0.750  54.364  1.00  0.00     0.089 A 
HETATM    6  C16 UNL     1      22.610  -1.430  54.567  1.00  0.00     0.103 C 
HETATM    7  N3  UNL     1      21.606  -1.960  54.722  1.00  0.00    -0.191 NA
HETATM    8  C17 UNL     1      24.811  -0.858  55.341  1.00  0.00     0.142 A 
HETATM    9  N4  UNL     1      26.020  -0.257  55.249  1.00  0.00    -0.257 NA
HETATM   10  C18 UNL     1      26.274   0.473  54.144  1.00  0.00     0.086 A 
HETATM   11  C19 UNL     1      27.488   1.102  54.008  1.00  0.00     0.152 A 
HETATM   12  N5  UNL     1      27.754   1.833  52.913  1.00  0.00    -0.235 NA
ENDROOT
BRANCH   4  13
HETATM   13  N2  UNL     1      23.116   0.078  52.272  1.00  0.00    -0.354 N 
HETATM   14  H12 UNL     1      22.954  -0.630  51.523  1.00  0.00     0.166 HD
BRANCH  13  15
HETATM   15  C9  UNL     1      22.225   1.185  52.324  1.00  0.00     0.033 A 
HETATM   16  C10 UNL     1      20.880   1.007  52.642  1.00  0.00     0.029 A 
HETATM   17  C11 UNL     1      20.031   2.111  52.685  1.00  0.00     0.004 A 
HETATM   18  C12 UNL     1      20.456   3.381  52.426  1.00  0.00     0.019 A 
HETATM   19  C13 UNL     1      21.790   3.583  52.107  1.00  0.00     0.013 A 
HETATM   20 BR1  UNL     1      22.420   5.348  51.739  1.00  0.00    -0.051 Br
HETATM   21  C14 UNL     1      22.619   2.482  52.068  1.00  0.00     0.048 A 
ENDBRANCH  13  15
ENDBRANCH   4  13
BRANCH   1  22
HETATM   22  O1  UNL     1      27.189   2.769  50.771  1.00  0.00    -0.333 OA
BRANCH  22  23
HETATM   23  C4  UNL     1      26.134   3.152  49.910  1.00  0.00     0.207 C 
BRANCH  23  24
HETATM   24  C3  UNL     1      25.780   4.617  50.056  1.00  0.00     0.298 C 
BRANCH  24  25
HETATM   25  N1  UNL     1      25.828   5.339  48.808  1.00  0.00     0.082 N 
HETATM   26  C1  UNL     1      24.589   6.061  48.622  1.00  0.00     0.309 C 
HETATM   27  C2  UNL     1      26.967   6.191  48.710  1.00  0.00     0.309 C 
ENDBRANCH  24  25
ENDBRANCH  23  24
ENDBRANCH  22  23
ENDBRANCH   1  22
TORSDOF 6
ENDMDL
MODEL 5
REMARK VINA RESULT:      -7.2      2.881      5.224
REMARK  6 active torsions:
REMARK  status: ('A' for Active; 'I' for Inactive)
REMARK    1  A    between atoms: N1_2  and  C3_4 
REMARK    2  A    between atoms: C3_4  and  C4_5 
REMARK    3  A    between atoms: C4_5  and  O1_6 
REMARK    4  A    between atoms: O1_6  and  C5_7 
REMARK    5  A    between atoms: C8_10  and  N2_11 
REMARK    6  A    between atoms: N2_11  and  C9_12 
ROOT
HETATM    1  C5  UNL     1      23.394   3.306  50.401  1.00  0.00     0.165 A 
HETATM    2  C6  UNL     1      23.476   2.106  51.104  1.00  0.00     0.074 A 
HETATM    3  C7  UNL     1      22.424   1.806  51.944  1.00  0.00     0.026 A 
HETATM    4  C8  UNL     1      22.465   0.633  52.653  1.00  0.00     0.068 A 
HETATM    5  C15 UNL     1      21.424   0.287  53.516  1.00  0.00     0.089 A 
HETATM    6  C16 UNL     1      21.391  -0.917  54.292  1.00  0.00     0.103 C 
HETATM    7  N3  UNL     1      21.372  -1.889  54.899  1.00  0.00    -0.191 NA
HETATM    8  C17 UNL     1      20.366   1.152  53.630  1.00  0.00     0.142 A 
HETATM    9  N4  UNL     1      20.298   2.316  52.942  1.00  0.00    -0.257 NA
HETATM   10  C18 UNL     1      21.322   2.617  52.118  1.00  0.00     0.086 A 
HETATM   11  C19 UNL     1      21.295   3.789  51.400  1.00  0.00     0.152 A 
HETATM   12  N5  UNL     1      22.309   4.101  50.575  1.00  0.00    -0.235 NA
ENDROOT
BRANCH   4  13
HETATM   13  N2  UNL     1      23.520  -0.311  52.591  1.00  0.00    -0.354 N 
HETATM   14  H12 UNL     1      23.529  -1.155  51.977  1.00  0.00     0.166 HD
BRANCH  13  15
HETATM   15  C9  UNL     1      24.655  -0.101  53.421  1.00  0.00     0.033 A 
HETATM   16  C10 UNL     1      24.788  -0.773  54.634  1.00  0.00     0.029 A 
HETATM   17  C11 UNL     1      25.913  -0.547  55.426  1.00  0.00     0.004 A 
HETATM   18  C12 UNL     1      26.907   0.316  55.070  1.00  0.00     0.019 A 
HETATM   19  C13 UNL     1      26.796   0.997  53.867  1.00  0.00     0.013 A 
HETATM   20 BR1  UNL     1      28.170   2.212  53.335  1.00  0.00    -0.051 Br
HETATM   21  C14 UNL     1      25.679   0.763  53.093  1.00  0.00     0.048 A 
ENDBRANCH  13  15
ENDBRANCH   4  13
BRANCH   1  22
HETATM   22  O1  UNL     1      24.430   3.673  49.527  1.00  0.00    -0.333 OA
BRANCH  22  23
HETATM   23  C4  UNL     1      25.507   4.421  50.058  1.00  0.00     0.207 C 
BRANCH  23  24
HETATM   24  C3  UNL     1      26.801   4.167  49.314  1.00  0.00     0.298 C 
BRANCH  24  25
HETATM   25  N1  UNL     1      27.203   5.274  48.481  1.00  0.00     0.082 N 
HETATM   26  C1  UNL     1      26.577   6.486  48.958  1.00  0.00     0.309 C 
HETATM   27  C2  UNL     1      28.620   5.402  48.384  1.00  0.00     0.309 C 
ENDBRANCH  24  25
ENDBRANCH  23  24
ENDBRANCH  22  23
ENDBRANCH   1  22
TORSDOF 6
ENDMDL
MODEL 6
REMARK VINA RESULT:      -7.2      2.845      5.110
REMARK  6 active torsions:
REMARK  status: ('A' for Active; 'I' for Inactive)
REMARK    1  A    between atoms: N1_2  and  C3_4 
REMARK    2  A    between atoms: C3_4  and  C4_5 
REMARK    3  A    between atoms: C4_5  and  O1_6 
REMARK    4  A    between atoms: O1_6  and  C5_7 
REMARK    5  A    between atoms: C8_10  and  N2_11 
REMARK    6  A    between atoms: N2_11  and  C9_12 
ROOT
HETATM    1  C5  UNL     1      26.695   2.597  51.449  1.00  0.00     0.165 A 
HETATM    2  C6  UNL     1      25.391   2.662  51.933  1.00  0.00     0.074 A 
HETATM    3  C7  UNL     1      24.434   3.158  51.072  1.00  0.00     0.026 A 
HETATM    4  C8  UNL     1      23.137   3.238  51.510  1.00  0.00     0.068 A 
HETATM    5  C15 UNL     1      22.133   3.733  50.676  1.00  0.00     0.089 A 
HETATM    6  C16 UNL     1      20.757   3.849  51.056  1.00  0.00     0.103 C 
HETATM    7  N3  UNL     1      19.657   3.927  51.370  1.00  0.00    -0.191 NA
HETATM    8  C17 UNL     1      22.485   4.134  49.412  1.00  0.00     0.142 A 
HETATM    9  N4  UNL     1      23.757   4.066  48.953  1.00  0.00    -0.257 NA
HETATM   10  C18 UNL     1      24.699   3.583  49.787  1.00  0.00     0.086 A 
HETATM   11  C19 UNL     1      26.003   3.496  49.362  1.00  0.00     0.152 A 
HETATM   12  N5  UNL     1      26.952   3.016  50.184  1.00  0.00    -0.235 NA
ENDROOT
BRANCH   4  13
HETATM   13  N2  UNL     1      22.694   2.845  52.798  1.00  0.00    -0.354 N 
HETATM   14  H12 UNL     1      22.585   3.488  53.613  1.00  0.00     0.166 HD
BRANCH  13  15
HETATM   15  C9  UNL     1      22.373   1.475  53.004  1.00  0.00     0.033 A 
HETATM   16  C10 UNL     1      23.373   0.530  53.223  1.00  0.00     0.029 A 
HETATM   17  C11 UNL     1      23.026  -0.805  53.423  1.00  0.00     0.004 A 
HETATM   18  C12 UNL     1      21.735  -1.243  53.413  1.00  0.00     0.019 A 
HETATM   19  C13 UNL     1      20.723  -0.321  53.197  1.00  0.00     0.013 A 
HETATM   20 BR1  UNL     1      18.903  -0.899  53.177  1.00  0.00    -0.051 Br
HETATM   21  C14 UNL     1      21.079   0.997  53.002  1.00  0.00     0.048 A 
ENDBRANCH  13  15
ENDBRANCH   4  13
BRANCH   1  22
HETATM   22  O1  UNL     1      27.720   2.102  52.271  1.00  0.00    -0.333 OA
BRANCH  22  23
HETATM   23  C4  UNL     1      27.447   1.958  53.651  1.00  0.00     0.207 C 
BRANCH  23  24
HETATM   24  C3  UNL     1      27.804   0.577  54.164  1.00  0.00     0.298 C 
BRANCH  24  25
HETATM   25  N1  UNL     1      27.979  -0.391  53.108  1.00  0.00     0.082 N 
HETATM   26  C1  UNL     1      29.146  -1.198  53.386  1.00  0.00     0.309 C 
HETATM   27  C2  UNL     1      26.815  -1.185  52.892  1.00  0.00     0.309 C 
ENDBRANCH  24  25
ENDBRANCH  23  24
ENDBRANCH  22  23
ENDBRANCH   1  22
TORSDOF 6
ENDMDL
MODEL 7
REMARK VINA RESULT:      -7.0      1.838      2.339
REMARK  6 active torsions:
REMARK  status: ('A' for Active; 'I' for Inactive)
REMARK    1  A    between atoms: N1_2  and  C3_4 
REMARK    2  A    between atoms: C3_4  and  C4_5 
REMARK    3  A    between atoms: C4_5  and  O1_6 
REMARK    4  A    between atoms: O1_6  and  C5_7 
REMARK    5  A    between atoms: C8_10  and  N2_11 
REMARK    6  A    between atoms: N2_11  and  C9_12 
ROOT
HETATM    1  C5  UNL     1      24.389   0.341  53.346  1.00  0.00     0.165 A 
HETATM    2  C6  UNL     1      23.606   1.444  53.018  1.00  0.00     0.074 A 
HETATM    3  C7  UNL     1      22.271   1.205  52.767  1.00  0.00     0.026 A 
HETATM    4  C8  UNL     1      21.465   2.266  52.440  1.00  0.00     0.068 A 
HETATM    5  C15 UNL     1      20.108   2.073  52.177  1.00  0.00     0.089 A 
HETATM    6  C16 UNL     1      19.199   3.125  51.830  1.00  0.00     0.103 C 
HETATM    7  N3  UNL     1      18.481   3.978  51.564  1.00  0.00    -0.191 NA
HETATM    8  C17 UNL     1      19.611   0.797  52.256  1.00  0.00     0.142 A 
HETATM    9  N4  UNL     1      20.382  -0.268  52.575  1.00  0.00    -0.257 NA
HETATM   10  C18 UNL     1      21.688  -0.044  52.823  1.00  0.00     0.086 A 
HETATM   11  C19 UNL     1      22.509  -1.096  53.151  1.00  0.00     0.152 A 
HETATM   12  N5  UNL     1      23.812  -0.886  53.401  1.00  0.00    -0.235 NA
ENDROOT
BRANCH   4  13
HETATM   13  N2  UNL     1      21.902   3.610  52.340  1.00  0.00    -0.354 N 
HETATM   14  H12 UNL     1      21.711   4.353  53.048  1.00  0.00     0.166 HD
BRANCH  13  15
HETATM   15  C9  UNL     1      22.656   3.984  51.194  1.00  0.00     0.033 A 
HETATM   16  C10 UNL     1      22.550   3.267  50.004  1.00  0.00     0.029 A 
HETATM   17  C11 UNL     1      23.302   3.658  48.897  1.00  0.00     0.004 A 
HETATM   18  C12 UNL     1      24.152   4.724  48.919  1.00  0.00     0.019 A 
HETATM   19  C13 UNL     1      24.273   5.452  50.093  1.00  0.00     0.013 A 
HETATM   20 BR1  UNL     1      25.454   6.952  50.160  1.00  0.00    -0.051 Br
HETATM   21  C14 UNL     1      23.524   5.056  51.180  1.00  0.00     0.048 A 
ENDBRANCH  13  15
ENDBRANCH   4  13
BRANCH   1  22
HETATM   22  O1  UNL     1      25.756   0.512  53.615  1.00  0.00    -0.333 OA
BRANCH  22  23
HETATM   23  C4  UNL     1      26.246   0.056  54.861  1.00  0.00     0.207 C 
BRANCH  23  24
HETATM   24  C3  UNL     1      27.754   0.160  54.956  1.00  0.00     0.298 C 
BRANCH  24  25
HETATM   25  N1  UNL     1      28.397   0.269  53.669  1.00  0.00     0.082 N 
HETATM   26  C1  UNL     1      29.011   1.572  53.547  1.00  0.00     0.309 C 
HETATM   27  C2  UNL     1      29.324  -0.787  53.427  1.00  0.00     0.309 C 
ENDBRANCH  24  25
ENDBRANCH  23  24
ENDBRANCH  22  23
ENDBRANCH   1  22
TORSDOF 6
ENDMDL
MODEL 8
REMARK VINA RESULT:      -7.0      2.540      6.094
REMARK  6 active torsions:
REMARK  status: ('A' for Active; 'I' for Inactive)
REMARK    1  A    between atoms: N1_2  and  C3_4 
REMARK    2  A    between atoms: C3_4  and  C4_5 
REMARK    3  A    between atoms: C4_5  and  O1_6 
REMARK    4  A    between atoms: O1_6  and  C5_7 
REMARK    5  A    between atoms: C8_10  and  N2_11 
REMARK    6  A    between atoms: N2_11  and  C9_12 
ROOT
HETATM    1  C5  UNL     1      21.441   0.945  53.108  1.00  0.00     0.165 A 
HETATM    2  C6  UNL     1      22.584   1.736  53.021  1.00  0.00     0.074 A 
HETATM    3  C7  UNL     1      23.797   1.082  53.083  1.00  0.00     0.026 A 
HETATM    4  C8  UNL     1      24.947   1.824  53.000  1.00  0.00     0.068 A 
HETATM    5  C15 UNL     1      26.198   1.207  53.058  1.00  0.00     0.089 A 
HETATM    6  C16 UNL     1      27.445   1.909  52.980  1.00  0.00     0.103 C 
HETATM    7  N3  UNL     1      28.434   2.481  52.906  1.00  0.00    -0.191 NA
HETATM    8  C17 UNL     1      26.238  -0.157  53.199  1.00  0.00     0.142 A 
HETATM    9  N4  UNL     1      25.119  -0.915  53.283  1.00  0.00    -0.257 NA
HETATM   10  C18 UNL     1      23.929  -0.284  53.224  1.00  0.00     0.086 A 
HETATM   11  C19 UNL     1      22.768  -1.014  53.304  1.00  0.00     0.152 A 
HETATM   12  N5  UNL     1      21.575  -0.398  53.246  1.00  0.00    -0.235 NA
ENDROOT
BRANCH   4  13
HETATM   13  N2  UNL     1      24.989   3.233  52.854  1.00  0.00    -0.354 N 
HETATM   14  H12 UNL     1      25.334   3.898  53.581  1.00  0.00     0.166 HD
BRANCH  13  15
HETATM   15  C9  UNL     1      24.531   3.791  51.629  1.00  0.00     0.033 A 
HETATM   16  C10 UNL     1      24.957   3.278  50.405  1.00  0.00     0.029 A 
HETATM   17  C11 UNL     1      24.489   3.846  49.221  1.00  0.00     0.004 A 
HETATM   18  C12 UNL     1      23.621   4.898  49.198  1.00  0.00     0.019 A 
HETATM   19  C13 UNL     1      23.183   5.424  50.403  1.00  0.00     0.013 A 
HETATM   20 BR1  UNL     1      21.966   6.896  50.408  1.00  0.00    -0.051 Br
HETATM   21  C14 UNL     1      23.653   4.853  51.567  1.00  0.00     0.048 A 
ENDBRANCH  13  15
ENDBRANCH   4  13
BRANCH   1  22
HETATM   22  O1  UNL     1      20.173   1.545  53.051  1.00  0.00    -0.333 OA
BRANCH  22  23
HETATM   23  C4  UNL     1      20.048   2.758  52.333  1.00  0.00     0.207 C 
BRANCH  23  24
HETATM   24  C3  UNL     1      18.859   2.747  51.394  1.00  0.00     0.298 C 
BRANCH  24  25
HETATM   25  N1  UNL     1      19.199   3.128  50.045  1.00  0.00     0.082 N 
HETATM   26  C1  UNL     1      20.583   2.798  49.786  1.00  0.00     0.309 C 
HETATM   27  C2  UNL     1      18.320   2.559  49.076  1.00  0.00     0.309 C 
ENDBRANCH  24  25
ENDBRANCH  23  24
ENDBRANCH  22  23
ENDBRANCH   1  22
TORSDOF 6
ENDMDL
MODEL 9
REMARK VINA RESULT:      -6.9      3.231      6.211
REMARK  6 active torsions:
REMARK  status: ('A' for Active; 'I' for Inactive)
REMARK    1  A    between atoms: N1_2  and  C3_4 
REMARK    2  A    between atoms: C3_4  and  C4_5 
REMARK    3  A    between atoms: C4_5  and  O1_6 
REMARK    4  A    between atoms: O1_6  and  C5_7 
REMARK    5  A    between atoms: C8_10  and  N2_11 
REMARK    6  A    between atoms: N2_11  and  C9_12 
ROOT
HETATM    1  C5  UNL     1      25.012   3.480  51.170  1.00  0.00     0.165 A 
HETATM    2  C6  UNL     1      24.036   2.818  51.911  1.00  0.00     0.074 A 
HETATM    3  C7  UNL     1      24.376   1.584  52.424  1.00  0.00     0.026 A 
HETATM    4  C8  UNL     1      23.443   0.900  53.160  1.00  0.00     0.068 A 
HETATM    5  C15 UNL     1      23.741  -0.352  53.700  1.00  0.00     0.089 A 
HETATM    6  C16 UNL     1      22.825  -1.131  54.479  1.00  0.00     0.103 C 
HETATM    7  N3  UNL     1      22.085  -1.738  55.109  1.00  0.00    -0.191 NA
HETATM    8  C17 UNL     1      24.990  -0.872  53.471  1.00  0.00     0.142 A 
HETATM    9  N4  UNL     1      25.931  -0.220  52.748  1.00  0.00    -0.257 NA
HETATM   10  C18 UNL     1      25.606   0.987  52.243  1.00  0.00     0.086 A 
HETATM   11  C19 UNL     1      26.531   1.685  51.503  1.00  0.00     0.152 A 
HETATM   12  N5  UNL     1      26.221   2.890  50.994  1.00  0.00    -0.235 NA
ENDROOT
BRANCH   4  13
HETATM   13  N2  UNL     1      22.135   1.369  53.441  1.00  0.00    -0.354 N 
HETATM   14  H12 UNL     1      21.883   1.983  54.246  1.00  0.00     0.166 HD
BRANCH  13  15
HETATM   15  C9  UNL     1      21.084   0.977  52.568  1.00  0.00     0.033 A 
HETATM   16  C10 UNL     1      21.121   1.302  51.213  1.00  0.00     0.029 A 
HETATM   17  C11 UNL     1      20.075   0.904  50.382  1.00  0.00     0.004 A 
HETATM   18  C12 UNL     1      18.997   0.201  50.834  1.00  0.00     0.019 A 
HETATM   19  C13 UNL     1      18.939  -0.134  52.178  1.00  0.00     0.013 A 
HETATM   20 BR1  UNL     1      17.445  -1.117  52.846  1.00  0.00    -0.051 Br
HETATM   21  C14 UNL     1      19.980   0.266  52.990  1.00  0.00     0.048 A 
ENDBRANCH  13  15
ENDBRANCH   4  13
BRANCH   1  22
HETATM   22  O1  UNL     1      24.733   4.741  50.619  1.00  0.00    -0.333 OA
BRANCH  22  23
HETATM   23  C4  UNL     1      23.699   5.505  51.209  1.00  0.00     0.207 C 
BRANCH  23  24
HETATM   24  C3  UNL     1      22.617   5.868  50.213  1.00  0.00     0.298 C 
BRANCH  24  25
HETATM   25  N1  UNL     1      21.635   4.825  50.037  1.00  0.00     0.082 N 
HETATM   26  C1  UNL     1      20.310   5.389  50.158  1.00  0.00     0.309 C 
HETATM   27  C2  UNL     1      21.807   4.109  48.816  1.00  0.00     0.309 C 
ENDBRANCH  24  25
ENDBRANCH  23  24
ENDBRANCH  22  23
ENDBRANCH   1  22
TORSDOF 6
ENDMDL
