MODEL 1
REMARK VINA RESULT:      -9.0      0.000      0.000
REMARK  1 active torsions:
REMARK  status: ('A' for Active; 'I' for Inactive)
REMARK    1  A    between atoms: C3_3  and  C4_4 
ROOT
HETATM    1  C1  UNL     1      29.030  -0.265  53.792  1.00  0.00     0.012 C 
HETATM    2  C2  UNL     1      27.989  -0.568  53.283  1.00  0.00    -0.114 C 
HETATM    3  C3  UNL     1      26.703  -0.948  52.642  1.00  0.00     0.122 C 
ENDROOT
BRANCH   3   4
HETATM    4  C4  UNL     1      25.817   0.257  52.813  1.00  0.00     0.014 C 
HETATM    5  C5  UNL     1      24.544   0.190  53.132  1.00  0.00     0.026 C 
HETATM    6  C6  UNL     1      23.460  -0.670  53.437  1.00  0.00     0.025 C 
HETATM    7  N3  UNL     1      23.961   1.528  53.044  1.00  0.00    -0.369 N 
HETATM    8  C7  UNL     1      22.277  -1.158  53.759  1.00  0.00    -0.019 C 
HETATM    9  C8  UNL     1      21.171  -0.193  54.041  1.00  0.00     0.083 C 
HETATM   10  C9  UNL     1      20.054  -0.209  53.146  1.00  0.00     0.032 A 
HETATM   11  N1  UNL     1      19.893   0.970  52.655  1.00  0.00    -0.309 N 
HETATM   12  C16 UNL     1      18.936  -0.226  52.251  1.00  0.00     0.180 A 
HETATM   13  N2  UNL     1      20.762   1.988  53.042  1.00  0.00    -0.229 NA
HETATM   14  C10 UNL     1      20.745   3.094  52.335  1.00  0.00     0.294 C 
HETATM   15  C11 UNL     1      20.477   4.164  51.359  1.00  0.00     0.086 C 
HETATM   16  C12 UNL     1      19.507   4.012  50.494  1.00  0.00    -0.026 C 
HETATM   17  O2  UNL     1      21.500   4.930  51.863  1.00  0.00    -0.348 OA
HETATM   18  C13 UNL     1      19.593   5.273  49.732  1.00  0.00     0.048 C 
HETATM   19  C14 UNL     1      18.563   2.887  50.389  1.00  0.00     0.205 C 
HETATM   20  O1  UNL     1      18.799   1.950  51.353  1.00  0.00    -0.376 OA
HETATM   21  C15 UNL     1      18.367   0.671  51.468  1.00  0.00     0.183 C 
HETATM   22  C17 UNL     1      22.761   5.144  51.259  1.00  0.00     0.202 C 
HETATM   23  C18 UNL     1      23.712   4.014  51.721  1.00  0.00     0.196 C 
HETATM   24  O3  UNL     1      23.163   2.836  51.300  1.00  0.00    -0.370 OA
HETATM   25  C19 UNL     1      23.817   1.708  51.609  1.00  0.00     0.290 C 
HETATM   26  H23 UNL     1      23.885   1.827  54.020  1.00  0.00     0.161 HD
ENDBRANCH   3   4
TORSDOF 1
ENDMDL
MODEL 2
REMARK VINA RESULT:      -8.5      2.696      4.582
REMARK  1 active torsions:
REMARK  status: ('A' for Active; 'I' for Inactive)
REMARK    1  A    between atoms: C3_3  and  C4_4 
ROOT
HETATM    1  C1  UNL     1      28.153   7.129  47.871  1.00  0.00     0.012 C 
HETATM    2  C2  UNL     1      27.888   6.013  48.214  1.00  0.00    -0.114 C 
HETATM    3  C3  UNL     1      27.562   4.623  48.630  1.00  0.00     0.122 C 
ENDROOT
BRANCH   3   4
HETATM    4  C4  UNL     1      26.310   4.752  49.456  1.00  0.00     0.014 C 
HETATM    5  C5  UNL     1      26.024   3.976  50.477  1.00  0.00     0.026 C 
HETATM    6  C6  UNL     1      26.455   2.887  51.273  1.00  0.00     0.025 C 
HETATM    7  N3  UNL     1      24.665   4.271  50.932  1.00  0.00    -0.369 N 
HETATM    8  C7  UNL     1      26.550   1.941  52.188  1.00  0.00    -0.019 C 
HETATM    9  C8  UNL     1      25.461   1.835  53.206  1.00  0.00     0.083 C 
HETATM   10  C9  UNL     1      24.674   0.640  53.190  1.00  0.00     0.032 A 
HETATM   11  N1  UNL     1      23.434   0.955  53.052  1.00  0.00    -0.309 N 
HETATM   12  C16 UNL     1      23.888  -0.558  53.175  1.00  0.00     0.180 A 
HETATM   13  N2  UNL     1      23.086   2.300  52.949  1.00  0.00    -0.229 NA
HETATM   14  C10 UNL     1      21.868   2.577  52.545  1.00  0.00     0.294 C 
HETATM   15  C11 UNL     1      20.471   2.535  52.080  1.00  0.00     0.086 C 
HETATM   16  C12 UNL     1      19.864   1.381  51.981  1.00  0.00    -0.026 C 
HETATM   17  O2  UNL     1      20.438   3.902  51.941  1.00  0.00    -0.348 OA
HETATM   18  C13 UNL     1      18.533   1.790  51.490  1.00  0.00     0.048 C 
HETATM   19  C14 UNL     1      20.392   0.054  52.337  1.00  0.00     0.205 C 
HETATM   20  O1  UNL     1      21.662   0.140  52.829  1.00  0.00    -0.376 OA
HETATM   21  C15 UNL     1      22.603  -0.815  53.025  1.00  0.00     0.183 C 
HETATM   22  C17 UNL     1      20.477   4.621  50.724  1.00  0.00     0.202 C 
HETATM   23  C18 UNL     1      21.962   4.868  50.361  1.00  0.00     0.196 C 
HETATM   24  O3  UNL     1      22.547   3.642  50.223  1.00  0.00    -0.370 OA
HETATM   25  C19 UNL     1      23.852   3.613  49.923  1.00  0.00     0.290 C 
HETATM   26  H23 UNL     1      24.806   4.831  51.778  1.00  0.00     0.161 HD
ENDBRANCH   3   4
TORSDOF 1
ENDMDL
MODEL 3
REMARK VINA RESULT:      -8.3      3.753      5.292
REMARK  1 active torsions:
REMARK  status: ('A' for Active; 'I' for Inactive)
REMARK    1  A    between atoms: C3_3  and  C4_4 
ROOT
HETATM    1  C1  UNL     1      26.109  -0.142  54.601  1.00  0.00     0.012 C 
HETATM    2  C2  UNL     1      26.287  -0.131  53.417  1.00  0.00    -0.114 C 
HETATM    3  C3  UNL     1      26.514  -0.126  51.948  1.00  0.00     0.122 C 
ENDROOT
BRANCH   3   4
HETATM    4  C4  UNL     1      26.759   1.318  51.601  1.00  0.00     0.014 C 
HETATM    5  C5  UNL     1      25.903   2.285  51.843  1.00  0.00     0.026 C 
HETATM    6  C6  UNL     1      24.633   2.614  52.378  1.00  0.00     0.025 C 
HETATM    7  N3  UNL     1      26.391   3.518  51.225  1.00  0.00    -0.369 N 
HETATM    8  C7  UNL     1      23.553   3.252  52.785  1.00  0.00    -0.019 C 
HETATM    9  C8  UNL     1      23.507   4.736  52.617  1.00  0.00     0.083 C 
HETATM   10  C9  UNL     1      22.516   5.257  51.724  1.00  0.00     0.032 A 
HETATM   11  N1  UNL     1      23.096   5.965  50.820  1.00  0.00    -0.309 N 
HETATM   12  C16 UNL     1      21.523   5.777  50.833  1.00  0.00     0.180 A 
HETATM   13  N2  UNL     1      24.482   6.099  50.853  1.00  0.00    -0.229 NA
HETATM   14  C10 UNL     1      25.064   6.593  49.784  1.00  0.00     0.294 C 
HETATM   15  C11 UNL     1      25.384   7.163  48.464  1.00  0.00     0.086 C 
HETATM   16  C12 UNL     1      24.410   7.502  47.660  1.00  0.00    -0.026 C 
HETATM   17  O2  UNL     1      26.733   7.063  48.708  1.00  0.00    -0.348 OA
HETATM   18  C13 UNL     1      25.156   8.003  46.489  1.00  0.00     0.048 C 
HETATM   19  C14 UNL     1      22.963   7.440  47.924  1.00  0.00     0.205 C 
HETATM   20  O1  UNL     1      22.708   6.973  49.180  1.00  0.00    -0.376 OA
HETATM   21  C15 UNL     1      21.561   6.513  49.739  1.00  0.00     0.183 C 
HETATM   22  C17 UNL     1      27.617   6.112  48.148  1.00  0.00     0.202 C 
HETATM   23  C18 UNL     1      27.612   4.859  49.057  1.00  0.00     0.196 C 
HETATM   24  O3  UNL     1      26.331   4.385  49.073  1.00  0.00    -0.370 OA
HETATM   25  C19 UNL     1      26.086   3.301  49.820  1.00  0.00     0.290 C 
HETATM   26  H23 UNL     1      26.765   4.054  52.012  1.00  0.00     0.161 HD
ENDBRANCH   3   4
TORSDOF 1
ENDMDL
MODEL 4
REMARK VINA RESULT:      -8.1      2.697      6.718
REMARK  1 active torsions:
REMARK  status: ('A' for Active; 'I' for Inactive)
REMARK    1  A    between atoms: C3_3  and  C4_4 
ROOT
HETATM    1  C1  UNL     1      22.186   6.255  45.640  1.00  0.00     0.012 C 
HETATM    2  C2  UNL     1      22.069   5.073  45.795  1.00  0.00    -0.114 C 
HETATM    3  C3  UNL     1      21.918   3.605  45.979  1.00  0.00     0.122 C 
ENDROOT
BRANCH   3   4
HETATM    4  C4  UNL     1      21.566   3.433  47.432  1.00  0.00     0.014 C 
HETATM    5  C5  UNL     1      22.443   3.489  48.409  1.00  0.00     0.026 C 
HETATM    6  C6  UNL     1      23.806   3.671  48.746  1.00  0.00     0.025 C 
HETATM    7  N3  UNL     1      21.785   3.110  49.660  1.00  0.00    -0.369 N 
HETATM    8  C7  UNL     1      24.949   3.801  49.392  1.00  0.00    -0.019 C 
HETATM    9  C8  UNL     1      24.925   3.722  50.885  1.00  0.00     0.083 C 
HETATM   10  C9  UNL     1      25.621   2.625  51.486  1.00  0.00     0.032 A 
HETATM   11  N1  UNL     1      24.802   1.964  52.227  1.00  0.00    -0.309 N 
HETATM   12  C16 UNL     1      26.319   1.528  52.087  1.00  0.00     0.180 A 
HETATM   13  N2  UNL     1      23.479   2.388  52.316  1.00  0.00    -0.229 NA
HETATM   14  C10 UNL     1      22.615   1.556  52.852  1.00  0.00     0.294 C 
HETATM   15  C11 UNL     1      21.932   0.417  53.487  1.00  0.00     0.086 C 
HETATM   16  C12 UNL     1      22.638  -0.603  53.901  1.00  0.00    -0.026 C 
HETATM   17  O2  UNL     1      20.706   1.019  53.332  1.00  0.00    -0.348 OA
HETATM   18  C13 UNL     1      21.589  -1.487  54.445  1.00  0.00     0.048 C 
HETATM   19  C14 UNL     1      24.103  -0.755  53.868  1.00  0.00     0.205 C 
HETATM   20  O1  UNL     1      24.704   0.349  53.338  1.00  0.00    -0.376 OA
HETATM   21  C15 UNL     1      25.967   0.536  52.883  1.00  0.00     0.183 C 
HETATM   22  C17 UNL     1      19.714   0.666  52.387  1.00  0.00     0.202 C 
HETATM   23  C18 UNL     1      19.990   1.456  51.085  1.00  0.00     0.196 C 
HETATM   24  O3  UNL     1      21.231   1.086  50.650  1.00  0.00    -0.370 OA
HETATM   25  C19 UNL     1      21.689   1.666  49.533  1.00  0.00     0.290 C 
HETATM   26  H23 UNL     1      21.638   4.003  50.139  1.00  0.00     0.161 HD
ENDBRANCH   3   4
TORSDOF 1
ENDMDL
MODEL 5
REMARK VINA RESULT:      -8.1      1.881      7.220
REMARK  1 active torsions:
REMARK  status: ('A' for Active; 'I' for Inactive)
REMARK    1  A    between atoms: C3_3  and  C4_4 
ROOT
HETATM    1  C1  UNL     1      16.058   4.220  51.998  1.00  0.00     0.012 C 
HETATM    2  C2  UNL     1      16.679   3.374  51.422  1.00  0.00    -0.114 C 
HETATM    3  C3  UNL     1      17.441   2.318  50.704  1.00  0.00     0.122 C 
ENDROOT
BRANCH   3   4
HETATM    4  C4  UNL     1      18.612   2.012  51.600  1.00  0.00     0.014 C 
HETATM    5  C5  UNL     1      19.670   2.784  51.710  1.00  0.00     0.026 C 
HETATM    6  C6  UNL     1      20.294   3.980  51.279  1.00  0.00     0.025 C 
HETATM    7  N3  UNL     1      20.673   2.100  52.527  1.00  0.00    -0.369 N 
HETATM    8  C7  UNL     1      21.127   4.988  51.108  1.00  0.00    -0.019 C 
HETATM    9  C8  UNL     1      22.391   4.999  51.906  1.00  0.00     0.083 C 
HETATM   10  C9  UNL     1      23.618   4.892  51.178  1.00  0.00     0.032 A 
HETATM   11  N1  UNL     1      24.281   3.880  51.618  1.00  0.00    -0.309 N 
HETATM   12  C16 UNL     1      24.847   4.787  50.449  1.00  0.00     0.180 A 
HETATM   13  N2  UNL     1      23.739   3.114  52.648  1.00  0.00    -0.229 NA
HETATM   14  C10 UNL     1      24.299   1.951  52.890  1.00  0.00     0.294 C 
HETATM   15  C11 UNL     1      25.139   0.742  52.897  1.00  0.00     0.086 C 
HETATM   16  C12 UNL     1      26.179   0.681  52.106  1.00  0.00    -0.026 C 
HETATM   17  O2  UNL     1      24.344   0.150  53.848  1.00  0.00    -0.348 OA
HETATM   18  C13 UNL     1      26.710  -0.660  52.420  1.00  0.00     0.048 C 
HETATM   19  C14 UNL     1      26.685   1.729  51.203  1.00  0.00     0.205 C 
HETATM   20  O1  UNL     1      25.922   2.858  51.277  1.00  0.00    -0.376 OA
HETATM   21  C15 UNL     1      25.856   3.937  50.460  1.00  0.00     0.183 C 
HETATM   22  C17 UNL     1      23.415  -0.894  53.631  1.00  0.00     0.202 C 
HETATM   23  C18 UNL     1      22.057  -0.256  53.251  1.00  0.00     0.196 C 
HETATM   24  O3  UNL     1      22.261   0.460  52.106  1.00  0.00    -0.370 OA
HETATM   25  C19 UNL     1      21.212   1.120  51.598  1.00  0.00     0.290 C 
HETATM   26  H23 UNL     1      20.607   2.566  53.436  1.00  0.00     0.161 HD
ENDBRANCH   3   4
TORSDOF 1
ENDMDL
MODEL 6
REMARK VINA RESULT:      -8.1      2.814      5.262
REMARK  1 active torsions:
REMARK  status: ('A' for Active; 'I' for Inactive)
REMARK    1  A    between atoms: C3_3  and  C4_4 
ROOT
HETATM    1  C1  UNL     1      28.232   6.228  48.132  1.00  0.00     0.012 C 
HETATM    2  C2  UNL     1      27.111   6.210  48.554  1.00  0.00    -0.114 C 
HETATM    3  C3  UNL     1      25.721   6.198  49.082  1.00  0.00     0.122 C 
ENDROOT
BRANCH   3   4
HETATM    4  C4  UNL     1      25.516   4.796  49.593  1.00  0.00     0.014 C 
HETATM    5  C5  UNL     1      24.499   4.036  49.256  1.00  0.00     0.026 C 
HETATM    6  C6  UNL     1      23.310   3.948  48.492  1.00  0.00     0.025 C 
HETATM    7  N3  UNL     1      24.528   2.818  50.064  1.00  0.00    -0.369 N 
HETATM    8  C7  UNL     1      22.195   3.535  47.919  1.00  0.00    -0.019 C 
HETATM    9  C8  UNL     1      21.736   2.140  48.197  1.00  0.00     0.083 C 
HETATM   10  C9  UNL     1      20.497   1.993  48.898  1.00  0.00     0.032 A 
HETATM   11  N1  UNL     1      20.696   1.296  49.961  1.00  0.00    -0.309 N 
HETATM   12  C16 UNL     1      19.256   1.847  49.598  1.00  0.00     0.180 A 
HETATM   13  N2  UNL     1      21.981   0.835  50.236  1.00  0.00    -0.229 NA
HETATM   14  C10 UNL     1      22.207   0.366  51.442  1.00  0.00     0.294 C 
HETATM   15  C11 UNL     1      22.119  -0.081  52.842  1.00  0.00     0.086 C 
HETATM   16  C12 UNL     1      20.959  -0.069  53.446  1.00  0.00    -0.026 C 
HETATM   17  O2  UNL     1      23.468  -0.337  52.883  1.00  0.00    -0.348 OA
HETATM   18  C13 UNL     1      21.319  -0.570  54.787  1.00  0.00     0.048 C 
HETATM   19  C14 UNL     1      19.652   0.298  52.875  1.00  0.00     0.205 C 
HETATM   20  O1  UNL     1      19.763   0.639  51.559  1.00  0.00    -0.376 OA
HETATM   21  C15 UNL     1      18.899   1.277  50.733  1.00  0.00     0.183 C 
HETATM   22  C17 UNL     1      24.448   0.445  53.538  1.00  0.00     0.202 C 
HETATM   23  C18 UNL     1      24.936   1.529  52.547  1.00  0.00     0.196 C 
HETATM   24  O3  UNL     1      23.848   2.286  52.219  1.00  0.00    -0.370 OA
HETATM   25  C19 UNL     1      24.035   3.287  51.348  1.00  0.00     0.290 C 
HETATM   26  H23 UNL     1      24.890   2.107  49.422  1.00  0.00     0.161 HD
ENDBRANCH   3   4
TORSDOF 1
ENDMDL
MODEL 7
REMARK VINA RESULT:      -7.9      2.175      6.344
REMARK  1 active torsions:
REMARK  status: ('A' for Active; 'I' for Inactive)
REMARK    1  A    between atoms: C3_3  and  C4_4 
ROOT
HETATM    1  C1  UNL     1      21.394   8.296  48.900  1.00  0.00     0.012 C 
HETATM    2  C2  UNL     1      21.371   7.680  49.927  1.00  0.00    -0.114 C 
HETATM    3  C3  UNL     1      21.344   6.926  51.207  1.00  0.00     0.122 C 
ENDROOT
BRANCH   3   4
HETATM    4  C4  UNL     1      22.191   5.707  50.954  1.00  0.00     0.014 C 
HETATM    5  C5  UNL     1      21.824   4.484  51.260  1.00  0.00     0.026 C 
HETATM    6  C6  UNL     1      20.803   3.676  51.820  1.00  0.00     0.025 C 
HETATM    7  N3  UNL     1      22.950   3.579  51.035  1.00  0.00    -0.369 N 
HETATM    8  C7  UNL     1      20.083   2.661  52.257  1.00  0.00    -0.019 C 
HETATM    9  C8  UNL     1      20.642   1.284  52.104  1.00  0.00     0.083 C 
HETATM   10  C9  UNL     1      20.937   0.567  53.308  1.00  0.00     0.032 A 
HETATM   11  N1  UNL     1      22.175   0.218  53.296  1.00  0.00    -0.309 N 
HETATM   12  C16 UNL     1      21.230  -0.150  54.513  1.00  0.00     0.180 A 
HETATM   13  N2  UNL     1      22.965   0.565  52.202  1.00  0.00    -0.229 NA
HETATM   14  C10 UNL     1      24.265   0.435  52.333  1.00  0.00     0.294 C 
HETATM   15  C11 UNL     1      25.636   0.175  52.803  1.00  0.00     0.086 C 
HETATM   16  C12 UNL     1      25.817  -0.377  53.975  1.00  0.00    -0.026 C 
HETATM   17  O2  UNL     1      26.170   0.701  51.651  1.00  0.00    -0.348 OA
HETATM   18  C13 UNL     1      27.290  -0.444  54.045  1.00  0.00     0.048 C 
HETATM   19  C14 UNL     1      24.787  -0.848  54.916  1.00  0.00     0.205 C 
HETATM   20  O1  UNL     1      23.532  -0.654  54.415  1.00  0.00    -0.376 OA
HETATM   21  C15 UNL     1      22.321  -0.688  55.023  1.00  0.00     0.183 C 
HETATM   22  C17 UNL     1      26.803   1.959  51.521  1.00  0.00     0.202 C 
HETATM   23  C18 UNL     1      25.715   3.013  51.203  1.00  0.00     0.196 C 
HETATM   24  O3  UNL     1      24.843   3.013  52.254  1.00  0.00    -0.370 OA
HETATM   25  C19 UNL     1      23.797   3.847  52.186  1.00  0.00     0.290 C 
HETATM   26  H23 UNL     1      22.717   3.111  50.155  1.00  0.00     0.161 HD
ENDBRANCH   3   4
TORSDOF 1
ENDMDL
MODEL 8
REMARK VINA RESULT:      -7.6      7.437      9.293
REMARK  1 active torsions:
REMARK  status: ('A' for Active; 'I' for Inactive)
REMARK    1  A    between atoms: C3_3  and  C4_4 
ROOT
HETATM    1  C1  UNL     1      34.226   5.083  47.753  1.00  0.00     0.012 C 
HETATM    2  C2  UNL     1      33.050   4.894  47.633  1.00  0.00    -0.114 C 
HETATM    3  C3  UNL     1      31.591   4.657  47.473  1.00  0.00     0.122 C 
ENDROOT
BRANCH   3   4
HETATM    4  C4  UNL     1      30.933   5.827  48.154  1.00  0.00     0.014 C 
HETATM    5  C5  UNL     1      29.666   5.856  48.499  1.00  0.00     0.026 C 
HETATM    6  C6  UNL     1      28.442   5.142  48.510  1.00  0.00     0.025 C 
HETATM    7  N3  UNL     1      29.333   7.198  48.976  1.00  0.00    -0.369 N 
HETATM    8  C7  UNL     1      27.188   4.774  48.687  1.00  0.00    -0.019 C 
HETATM    9  C8  UNL     1      26.269   5.721  49.390  1.00  0.00     0.083 C 
HETATM   10  C9  UNL     1      25.178   6.249  48.630  1.00  0.00     0.032 A 
HETATM   11  N1  UNL     1      25.236   7.535  48.648  1.00  0.00    -0.309 N 
HETATM   12  C16 UNL     1      24.084   6.776  47.869  1.00  0.00     0.180 A 
HETATM   13  N2  UNL     1      26.268   8.154  49.348  1.00  0.00    -0.229 NA
HETATM   14  C10 UNL     1      26.458   9.435  49.131  1.00  0.00     0.294 C 
HETATM   15  C11 UNL     1      26.397  10.832  48.668  1.00  0.00     0.086 C 
HETATM   16  C12 UNL     1      25.425  11.200  47.873  1.00  0.00    -0.026 C 
HETATM   17  O2  UNL     1      27.535  11.152  49.367  1.00  0.00    -0.348 OA
HETATM   18  C13 UNL     1      25.744  12.626  47.659  1.00  0.00     0.048 C 
HETATM   19  C14 UNL     1      24.296  10.385  47.395  1.00  0.00     0.205 C 
HETATM   20  O1  UNL     1      24.349   9.119  47.901  1.00  0.00    -0.376 OA
HETATM   21  C15 UNL     1      23.694   7.991  47.534  1.00  0.00     0.183 C 
HETATM   22  C17 UNL     1      28.820  11.371  48.819  1.00  0.00     0.202 C 
HETATM   23  C18 UNL     1      29.548  10.007  48.745  1.00  0.00     0.196 C 
HETATM   24  O3  UNL     1      28.802   9.202  47.932  1.00  0.00    -0.370 OA
HETATM   25  C19 UNL     1      29.239   7.951  47.736  1.00  0.00     0.290 C 
HETATM   26  H23 UNL     1      29.301   7.095  49.994  1.00  0.00     0.161 HD
ENDBRANCH   3   4
TORSDOF 1
ENDMDL
MODEL 9
REMARK VINA RESULT:      -7.3      2.112      6.038
REMARK  1 active torsions:
REMARK  status: ('A' for Active; 'I' for Inactive)
REMARK    1  A    between atoms: C3_3  and  C4_4 
ROOT
HETATM    1  C1  UNL     1      22.032   8.672  49.266  1.00  0.00     0.012 C 
HETATM    2  C2  UNL     1      21.331   7.854  49.790  1.00  0.00    -0.114 C 
HETATM    3  C3  UNL     1      20.458   6.847  50.448  1.00  0.00     0.122 C 
ENDROOT
BRANCH   3   4
HETATM    4  C4  UNL     1      21.306   5.607  50.547  1.00  0.00     0.014 C 
HETATM    5  C5  UNL     1      20.825   4.385  50.500  1.00  0.00     0.026 C 
HETATM    6  C6  UNL     1      19.657   3.594  50.377  1.00  0.00     0.025 C 
HETATM    7  N3  UNL     1      21.900   3.439  50.796  1.00  0.00    -0.369 N 
HETATM    8  C7  UNL     1      18.807   2.590  50.281  1.00  0.00    -0.019 C 
HETATM    9  C8  UNL     1      19.355   1.199  50.303  1.00  0.00     0.083 C 
HETATM   10  C9  UNL     1      18.983   0.374  51.411  1.00  0.00     0.032 A 
HETATM   11  N1  UNL     1      20.049  -0.043  52.001  1.00  0.00    -0.309 N 
HETATM   12  C16 UNL     1      18.609  -0.453  52.520  1.00  0.00     0.180 A 
HETATM   13  N2  UNL     1      21.291   0.346  51.505  1.00  0.00    -0.229 NA
HETATM   14  C10 UNL     1      22.337   0.133  52.270  1.00  0.00     0.294 C 
HETATM   15  C11 UNL     1      23.269  -0.241  53.347  1.00  0.00     0.086 C 
HETATM   16  C12 UNL     1      22.816  -0.894  54.386  1.00  0.00    -0.026 C 
HETATM   17  O2  UNL     1      24.323   0.346  52.689  1.00  0.00    -0.348 OA
HETATM   18  C13 UNL     1      24.043  -1.049  55.193  1.00  0.00     0.048 C 
HETATM   19  C14 UNL     1      21.446  -1.380  54.616  1.00  0.00     0.205 C 
HETATM   20  O1  UNL     1      20.629  -1.077  53.566  1.00  0.00    -0.376 OA
HETATM   21  C15 UNL     1      19.278  -1.091  53.461  1.00  0.00     0.183 C 
HETATM   22  C17 UNL     1      24.942   1.572  53.025  1.00  0.00     0.202 C 
HETATM   23  C18 UNL     1      24.180   2.708  52.300  1.00  0.00     0.196 C 
HETATM   24  O3  UNL     1      22.891   2.672  52.750  1.00  0.00    -0.370 OA
HETATM   25  C19 UNL     1      22.035   3.567  52.238  1.00  0.00     0.290 C 
HETATM   26  H23 UNL     1      22.150   3.058  49.879  1.00  0.00     0.161 HD
ENDBRANCH   3   4
TORSDOF 1
ENDMDL
