MODEL 1
REMARK VINA RESULT:      -7.8      0.000      0.000
REMARK  4 active torsions:
REMARK  status: ('A' for Active; 'I' for Inactive)
REMARK    1  A    between atoms: O1_1  and  C1_2 
REMARK    2  A    between atoms: C1_2  and  C2_3 
REMARK    3  A    between atoms: C7_8  and  C8_9 
REMARK    4  A    between atoms: C8_9  and  P1_10 
ROOT
HETATM    1  P1  UNL     1      25.456   1.497  52.007  1.00  0.00    -0.071 P 
HETATM    2  C9  UNL     1      23.762   1.257  51.757  1.00  0.00     0.121 C 
HETATM    3  N1  UNL     1      23.511   2.438  51.980  1.00  0.00    -0.269 NA
HETATM    4  P2  UNL     1      21.884   3.191  51.936  1.00  0.00     0.059 P 
HETATM    5  C10 UNL     1      22.239   4.802  51.033  1.00  0.00     0.120 C 
HETATM    6  N2  UNL     1      21.957   5.783  50.212  1.00  0.00    -0.252 NA
HETATM    7  C11 UNL     1      22.355   5.770  48.815  1.00  0.00     0.118 C 
HETATM    8  C12 UNL     1      23.590   5.606  48.301  1.00  0.00     0.020 C 
HETATM    9  C13 UNL     1      24.714   4.927  49.040  1.00  0.00     0.016 C 
HETATM   10  C14 UNL     1      24.953   4.465  50.307  1.00  0.00    -0.015 C 
HETATM   11  C15 UNL     1      25.985   3.464  50.007  1.00  0.00     0.051 C 
HETATM   12  C16 UNL     1      26.472   2.697  51.170  1.00  0.00     0.045 C 
HETATM   13  S1  UNL     1      23.917   5.363  51.519  1.00  0.00    -0.073 SA
HETATM   14  H11 UNL     1      21.517   3.573  53.290  1.00  0.00     0.089 HD
ENDROOT
BRANCH   1  15
HETATM   15  C8  UNL     1      26.097   0.991  53.634  1.00  0.00     0.079 C 
BRANCH  15  16
HETATM   16  C7  UNL     1      27.130  -0.056  53.412  1.00  0.00    -0.045 A 
HETATM   17  C2  UNL     1      28.474  -0.046  53.692  1.00  0.00    -0.028 A 
HETATM   18  C3  UNL     1      29.294  -1.128  53.483  1.00  0.00     0.010 A 
HETATM   19  C4  UNL     1      28.795  -2.321  52.963  1.00  0.00     0.001 A 
HETATM   20  C5  UNL     1      27.447  -2.348  52.674  1.00  0.00     0.001 A 
HETATM   21  C6  UNL     1      26.650  -1.252  52.894  1.00  0.00     0.008 A 
BRANCH  17  22
HETATM   22  C1  UNL     1      29.020   1.241  54.219  1.00  0.00     0.203 C 
BRANCH  22  23
HETATM   23  O1  UNL     1      29.373   2.031  53.122  1.00  0.00    -0.396 OA
HETATM   24  H1  UNL     1      30.310   2.266  53.199  1.00  0.00     0.209 HD
ENDBRANCH  22  23
ENDBRANCH  17  22
ENDBRANCH  15  16
ENDBRANCH   1  15
TORSDOF 4
ENDMDL
MODEL 2
REMARK VINA RESULT:      -7.2      1.272      1.956
REMARK  4 active torsions:
REMARK  status: ('A' for Active; 'I' for Inactive)
REMARK    1  A    between atoms: O1_1  and  C1_2 
REMARK    2  A    between atoms: C1_2  and  C2_3 
REMARK    3  A    between atoms: C7_8  and  C8_9 
REMARK    4  A    between atoms: C8_9  and  P1_10 
ROOT
HETATM    1  P1  UNL     1      25.199   1.344  52.033  1.00  0.00    -0.071 P 
HETATM    2  C9  UNL     1      23.533   1.197  51.594  1.00  0.00     0.121 C 
HETATM    3  N1  UNL     1      23.310   2.377  51.850  1.00  0.00    -0.269 NA
HETATM    4  P2  UNL     1      21.731   3.208  51.675  1.00  0.00     0.059 P 
HETATM    5  C10 UNL     1      22.249   4.840  50.899  1.00  0.00     0.120 C 
HETATM    6  N2  UNL     1      22.098   5.871  50.105  1.00  0.00    -0.252 NA
HETATM    7  C11 UNL     1      22.642   5.905  48.758  1.00  0.00     0.118 C 
HETATM    8  C12 UNL     1      23.917   5.706  48.369  1.00  0.00     0.020 C 
HETATM    9  C13 UNL     1      24.926   4.940  49.185  1.00  0.00     0.016 C 
HETATM   10  C14 UNL     1      25.008   4.408  50.445  1.00  0.00    -0.015 C 
HETATM   11  C15 UNL     1      26.023   3.374  50.203  1.00  0.00     0.051 C 
HETATM   12  C16 UNL     1      26.349   2.531  51.369  1.00  0.00     0.045 C 
HETATM   13  S1  UNL     1      23.887   5.298  51.586  1.00  0.00    -0.073 SA
HETATM   14  H11 UNL     1      21.237   3.543  53.001  1.00  0.00     0.089 HD
ENDROOT
BRANCH   1  15
HETATM   15  C8  UNL     1      25.641   0.732  53.690  1.00  0.00     0.079 C 
BRANCH  15  16
HETATM   16  C7  UNL     1      27.074   0.336  53.662  1.00  0.00    -0.045 A 
HETATM   17  C2  UNL     1      27.666  -0.806  53.184  1.00  0.00    -0.028 A 
HETATM   18  C3  UNL     1      29.026  -1.000  53.172  1.00  0.00     0.010 A 
HETATM   19  C4  UNL     1      29.898  -0.026  53.657  1.00  0.00     0.001 A 
HETATM   20  C5  UNL     1      29.320   1.128  54.142  1.00  0.00     0.001 A 
HETATM   21  C6  UNL     1      27.957   1.296  54.142  1.00  0.00     0.008 A 
BRANCH  17  22
HETATM   22  C1  UNL     1      26.736  -1.868  52.694  1.00  0.00     0.203 C 
BRANCH  22  23
HETATM   23  O1  UNL     1      27.494  -3.017  52.457  1.00  0.00    -0.396 OA
HETATM   24  H1  UNL     1      27.089  -3.509  51.726  1.00  0.00     0.209 HD
ENDBRANCH  22  23
ENDBRANCH  17  22
ENDBRANCH  15  16
ENDBRANCH   1  15
TORSDOF 4
ENDMDL
MODEL 3
REMARK VINA RESULT:      -7.2      2.645      3.848
REMARK  4 active torsions:
REMARK  status: ('A' for Active; 'I' for Inactive)
REMARK    1  A    between atoms: O1_1  and  C1_2 
REMARK    2  A    between atoms: C1_2  and  C2_3 
REMARK    3  A    between atoms: C7_8  and  C8_9 
REMARK    4  A    between atoms: C8_9  and  P1_10 
ROOT
HETATM    1  P1  UNL     1      24.654   1.994  52.541  1.00  0.00    -0.071 P 
HETATM    2  C9  UNL     1      23.681   3.418  52.410  1.00  0.00     0.121 C 
HETATM    3  N1  UNL     1      23.044   2.956  51.468  1.00  0.00    -0.269 NA
HETATM    4  P2  UNL     1      21.702   3.778  50.607  1.00  0.00     0.059 P 
HETATM    5  C10 UNL     1      20.461   2.377  50.422  1.00  0.00     0.120 C 
HETATM    6  N2  UNL     1      19.256   1.865  50.378  1.00  0.00    -0.252 NA
HETATM    7  C11 UNL     1      18.604   1.302  51.547  1.00  0.00     0.118 C 
HETATM    8  C12 UNL     1      19.057   0.336  52.371  1.00  0.00     0.020 C 
HETATM    9  C13 UNL     1      20.516  -0.006  52.527  1.00  0.00     0.016 C 
HETATM   10  C14 UNL     1      21.698   0.315  51.912  1.00  0.00    -0.015 C 
HETATM   11  C15 UNL     1      22.625   0.043  53.019  1.00  0.00     0.051 C 
HETATM   12  C16 UNL     1      24.044   0.332  52.733  1.00  0.00     0.045 C 
HETATM   13  S1  UNL     1      21.399   0.820  50.179  1.00  0.00    -0.073 SA
HETATM   14  H11 UNL     1      22.145   4.090  49.257  1.00  0.00     0.089 HD
ENDROOT
BRANCH   1  15
HETATM   15  C8  UNL     1      26.310   2.093  51.792  1.00  0.00     0.079 C 
BRANCH  15  16
HETATM   16  C7  UNL     1      27.152   1.031  52.406  1.00  0.00    -0.045 A 
HETATM   17  C2  UNL     1      28.187   1.131  53.301  1.00  0.00    -0.028 A 
HETATM   18  C3  UNL     1      28.833   0.040  53.831  1.00  0.00     0.010 A 
HETATM   19  C4  UNL     1      28.463  -1.257  53.478  1.00  0.00     0.001 A 
HETATM   20  C5  UNL     1      27.425  -1.377  52.578  1.00  0.00     0.001 A 
HETATM   21  C6  UNL     1      26.797  -0.269  52.065  1.00  0.00     0.008 A 
BRANCH  17  22
HETATM   22  C1  UNL     1      28.609   2.520  53.658  1.00  0.00     0.203 C 
BRANCH  22  23
HETATM   23  O1  UNL     1      29.637   2.420  54.599  1.00  0.00    -0.396 OA
HETATM   24  H1  UNL     1      30.040   1.542  54.524  1.00  0.00     0.209 HD
ENDBRANCH  22  23
ENDBRANCH  17  22
ENDBRANCH  15  16
ENDBRANCH   1  15
TORSDOF 4
ENDMDL
MODEL 4
REMARK VINA RESULT:      -7.1      2.477      3.718
REMARK  4 active torsions:
REMARK  status: ('A' for Active; 'I' for Inactive)
REMARK    1  A    between atoms: O1_1  and  C1_2 
REMARK    2  A    between atoms: C1_2  and  C2_3 
REMARK    3  A    between atoms: C7_8  and  C8_9 
REMARK    4  A    between atoms: C8_9  and  P1_10 
ROOT
HETATM    1  P1  UNL     1      24.984   0.882  52.412  1.00  0.00    -0.071 P 
HETATM    2  C9  UNL     1      25.107   2.449  51.690  1.00  0.00     0.121 C 
HETATM    3  N1  UNL     1      24.196   2.212  50.903  1.00  0.00    -0.269 NA
HETATM    4  P2  UNL     1      23.556   3.345  49.668  1.00  0.00     0.059 P 
HETATM    5  C10 UNL     1      21.701   3.085  49.845  1.00  0.00     0.120 C 
HETATM    6  N2  UNL     1      20.450   3.471  49.849  1.00  0.00    -0.252 NA
HETATM    7  C11 UNL     1      19.763   3.880  51.062  1.00  0.00     0.118 C 
HETATM    8  C12 UNL     1      19.625   3.193  52.214  1.00  0.00     0.020 C 
HETATM    9  C13 UNL     1      20.554   2.086  52.638  1.00  0.00     0.016 C 
HETATM   10  C14 UNL     1      21.576   1.360  52.084  1.00  0.00    -0.015 C 
HETATM   11  C15 UNL     1      22.275   0.955  53.311  1.00  0.00     0.051 C 
HETATM   12  C16 UNL     1      23.505   0.167  53.101  1.00  0.00     0.045 C 
HETATM   13  S1  UNL     1      21.415   1.322  50.261  1.00  0.00    -0.073 SA
HETATM   14  H11 UNL     1      23.899   2.833  48.351  1.00  0.00     0.089 HD
ENDROOT
BRANCH   1  15
HETATM   15  C8  UNL     1      26.212  -0.344  51.862  1.00  0.00     0.079 C 
BRANCH  15  16
HETATM   16  C7  UNL     1      27.421  -0.192  52.715  1.00  0.00    -0.045 A 
HETATM   17  C2  UNL     1      28.325  -1.132  53.142  1.00  0.00    -0.028 A 
HETATM   18  C3  UNL     1      29.440  -0.822  53.882  1.00  0.00     0.010 A 
HETATM   19  C4  UNL     1      29.720   0.494  54.248  1.00  0.00     0.001 A 
HETATM   20  C5  UNL     1      28.821   1.451  53.829  1.00  0.00     0.001 A 
HETATM   21  C6  UNL     1      27.714   1.113  53.089  1.00  0.00     0.008 A 
BRANCH  17  22
HETATM   22  C1  UNL     1      28.014  -2.548  52.780  1.00  0.00     0.203 C 
BRANCH  22  23
HETATM   23  O1  UNL     1      28.848  -3.372  53.541  1.00  0.00    -0.396 OA
HETATM   24  H1  UNL     1      29.662  -3.533  53.041  1.00  0.00     0.209 HD
ENDBRANCH  22  23
ENDBRANCH  17  22
ENDBRANCH  15  16
ENDBRANCH   1  15
TORSDOF 4
ENDMDL
MODEL 5
REMARK VINA RESULT:      -7.0      3.760      5.044
REMARK  4 active torsions:
REMARK  status: ('A' for Active; 'I' for Inactive)
REMARK    1  A    between atoms: O1_1  and  C1_2 
REMARK    2  A    between atoms: C1_2  and  C2_3 
REMARK    3  A    between atoms: C7_8  and  C8_9 
REMARK    4  A    between atoms: C8_9  and  P1_10 
ROOT
HETATM    1  P1  UNL     1      23.424   2.611  52.088  1.00  0.00    -0.071 P 
HETATM    2  C9  UNL     1      25.140   2.634  51.877  1.00  0.00     0.121 C 
HETATM    3  N1  UNL     1      25.047   3.160  50.771  1.00  0.00    -0.269 NA
HETATM    4  P2  UNL     1      26.418   3.615  49.708  1.00  0.00     0.059 P 
HETATM    5  C10 UNL     1      25.876   5.311  49.101  1.00  0.00     0.120 C 
HETATM    6  N2  UNL     1      26.074   6.550  48.727  1.00  0.00    -0.252 NA
HETATM    7  C11 UNL     1      25.986   7.667  49.652  1.00  0.00     0.118 C 
HETATM    8  C12 UNL     1      24.959   8.004  50.457  1.00  0.00     0.020 C 
HETATM    9  C13 UNL     1      23.905   7.028  50.913  1.00  0.00     0.016 C 
HETATM   10  C14 UNL     1      23.532   5.742  50.625  1.00  0.00    -0.015 C 
HETATM   11  C15 UNL     1      22.855   5.401  51.884  1.00  0.00     0.051 C 
HETATM   12  C16 UNL     1      22.341   4.021  51.966  1.00  0.00     0.045 C 
HETATM   13  S1  UNL     1      24.050   5.292  48.928  1.00  0.00    -0.073 SA
HETATM   14  H11 UNL     1      26.397   2.754  48.536  1.00  0.00     0.089 HD
ENDROOT
BRANCH   1  15
HETATM   15  C8  UNL     1      22.605   1.019  51.758  1.00  0.00     0.079 C 
BRANCH  15  16
HETATM   16  C7  UNL     1      22.620   0.229  53.017  1.00  0.00    -0.045 A 
HETATM   17  C2  UNL     1      21.579  -0.260  53.767  1.00  0.00    -0.028 A 
HETATM   18  C3  UNL     1      21.758  -1.036  54.886  1.00  0.00     0.010 A 
HETATM   19  C4  UNL     1      23.034  -1.376  55.332  1.00  0.00     0.001 A 
HETATM   20  C5  UNL     1      24.092  -0.892  54.592  1.00  0.00     0.001 A 
HETATM   21  C6  UNL     1      23.885  -0.118  53.477  1.00  0.00     0.008 A 
BRANCH  17  22
HETATM   22  C1  UNL     1      20.210   0.127  53.312  1.00  0.00     0.203 C 
BRANCH  22  23
HETATM   23  O1  UNL     1      19.312  -0.807  53.833  1.00  0.00    -0.396 OA
HETATM   24  H1  UNL     1      19.791  -1.632  54.008  1.00  0.00     0.209 HD
ENDBRANCH  22  23
ENDBRANCH  17  22
ENDBRANCH  15  16
ENDBRANCH   1  15
TORSDOF 4
ENDMDL
MODEL 6
REMARK VINA RESULT:      -6.9      2.179      3.135
REMARK  4 active torsions:
REMARK  status: ('A' for Active; 'I' for Inactive)
REMARK    1  A    between atoms: O1_1  and  C1_2 
REMARK    2  A    between atoms: C1_2  and  C2_3 
REMARK    3  A    between atoms: C7_8  and  C8_9 
REMARK    4  A    between atoms: C8_9  and  P1_10 
ROOT
HETATM    1  P1  UNL     1      22.911   2.943  51.834  1.00  0.00    -0.071 P 
HETATM    2  C9  UNL     1      21.778   4.228  52.067  1.00  0.00     0.121 C 
HETATM    3  N1  UNL     1      22.292   4.908  51.183  1.00  0.00    -0.269 NA
HETATM    4  P2  UNL     1      21.744   6.533  50.658  1.00  0.00     0.059 P 
HETATM    5  C10 UNL     1      21.862   6.382  48.787  1.00  0.00     0.120 C 
HETATM    6  N2  UNL     1      21.476   6.614  47.557  1.00  0.00    -0.252 NA
HETATM    7  C11 UNL     1      20.591   5.716  46.835  1.00  0.00     0.118 C 
HETATM    8  C12 UNL     1      20.746   4.396  46.609  1.00  0.00     0.020 C 
HETATM    9  C13 UNL     1      21.608   3.502  47.462  1.00  0.00     0.016 C 
HETATM   10  C14 UNL     1      22.522   3.649  48.472  1.00  0.00    -0.015 C 
HETATM   11  C15 UNL     1      22.409   2.322  49.093  1.00  0.00     0.051 C 
HETATM   12  C16 UNL     1      23.246   2.118  50.291  1.00  0.00     0.045 C 
HETATM   13  S1  UNL     1      23.295   5.307  48.396  1.00  0.00    -0.073 SA
HETATM   14  H11 UNL     1      22.756   7.505  51.037  1.00  0.00     0.089 HD
ENDROOT
BRANCH   1  15
HETATM   15  C8  UNL     1      24.286   2.870  53.025  1.00  0.00     0.079 C 
BRANCH  15  16
HETATM   16  C7  UNL     1      24.997   1.580  52.823  1.00  0.00    -0.045 A 
HETATM   17  C2  UNL     1      26.172   1.312  52.167  1.00  0.00    -0.028 A 
HETATM   18  C3  UNL     1      26.739   0.061  52.121  1.00  0.00     0.010 A 
HETATM   19  C4  UNL     1      26.138  -1.027  52.751  1.00  0.00     0.001 A 
HETATM   20  C5  UNL     1      24.955  -0.776  53.414  1.00  0.00     0.001 A 
HETATM   21  C6  UNL     1      24.411   0.484  53.445  1.00  0.00     0.008 A 
BRANCH  17  22
HETATM   22  C1  UNL     1      26.804   2.468  51.463  1.00  0.00     0.203 C 
BRANCH  22  23
HETATM   23  O1  UNL     1      27.936   2.840  52.193  1.00  0.00    -0.396 OA
HETATM   24  H1  UNL     1      27.964   2.314  53.007  1.00  0.00     0.209 HD
ENDBRANCH  22  23
ENDBRANCH  17  22
ENDBRANCH  15  16
ENDBRANCH   1  15
TORSDOF 4
ENDMDL
MODEL 7
REMARK VINA RESULT:      -6.8      4.626      7.851
REMARK  4 active torsions:
REMARK  status: ('A' for Active; 'I' for Inactive)
REMARK    1  A    between atoms: O1_1  and  C1_2 
REMARK    2  A    between atoms: C1_2  and  C2_3 
REMARK    3  A    between atoms: C7_8  and  C8_9 
REMARK    4  A    between atoms: C8_9  and  P1_10 
ROOT
HETATM    1  P1  UNL     1      21.780   0.663  52.187  1.00  0.00    -0.071 P 
HETATM    2  C9  UNL     1      22.623   1.251  50.797  1.00  0.00     0.121 C 
HETATM    3  N1  UNL     1      23.412   1.893  51.485  1.00  0.00    -0.269 NA
HETATM    4  P2  UNL     1      24.766   2.895  50.869  1.00  0.00     0.059 P 
HETATM    5  C10 UNL     1      26.146   2.434  52.060  1.00  0.00     0.120 C 
HETATM    6  N2  UNL     1      27.390   2.186  52.387  1.00  0.00    -0.252 NA
HETATM    7  C11 UNL     1      27.944   0.843  52.385  1.00  0.00     0.118 C 
HETATM    8  C12 UNL     1      27.486  -0.248  53.030  1.00  0.00     0.020 C 
HETATM    9  C13 UNL     1      26.058  -0.409  53.482  1.00  0.00     0.016 C 
HETATM   10  C14 UNL     1      24.935   0.371  53.570  1.00  0.00    -0.015 C 
HETATM   11  C15 UNL     1      23.909  -0.680  53.535  1.00  0.00     0.051 C 
HETATM   12  C16 UNL     1      22.515  -0.196  53.564  1.00  0.00     0.045 C 
HETATM   13  S1  UNL     1      25.396   2.137  53.707  1.00  0.00    -0.073 SA
HETATM   14  H11 UNL     1      24.464   4.292  51.139  1.00  0.00     0.089 HD
ENDROOT
BRANCH   1  15
HETATM   15  C8  UNL     1      20.226   1.519  52.594  1.00  0.00     0.079 C 
BRANCH  15  16
HETATM   16  C7  UNL     1      19.138   0.890  51.799  1.00  0.00    -0.045 A 
HETATM   17  C2  UNL     1      18.347  -0.194  52.086  1.00  0.00    -0.028 A 
HETATM   18  C3  UNL     1      17.328  -0.620  51.268  1.00  0.00     0.010 A 
HETATM   19  C4  UNL     1      17.038   0.040  50.075  1.00  0.00     0.001 A 
HETATM   20  C5  UNL     1      17.823   1.131  49.770  1.00  0.00     0.001 A 
HETATM   21  C6  UNL     1      18.834   1.536  50.606  1.00  0.00     0.008 A 
BRANCH  17  22
HETATM   22  C1  UNL     1      18.674  -0.925  53.348  1.00  0.00     0.203 C 
BRANCH  22  23
HETATM   23  O1  UNL     1      17.468  -1.247  53.975  1.00  0.00    -0.396 OA
HETATM   24  H1  UNL     1      17.604  -1.226  54.934  1.00  0.00     0.209 HD
ENDBRANCH  22  23
ENDBRANCH  17  22
ENDBRANCH  15  16
ENDBRANCH   1  15
TORSDOF 4
ENDMDL
MODEL 8
REMARK VINA RESULT:      -6.8      3.414      6.801
REMARK  4 active torsions:
REMARK  status: ('A' for Active; 'I' for Inactive)
REMARK    1  A    between atoms: O1_1  and  C1_2 
REMARK    2  A    between atoms: C1_2  and  C2_3 
REMARK    3  A    between atoms: C7_8  and  C8_9 
REMARK    4  A    between atoms: C8_9  and  P1_10 
ROOT
HETATM    1  P1  UNL     1      23.843   3.735  51.030  1.00  0.00    -0.071 P 
HETATM    2  C9  UNL     1      22.469   4.271  51.933  1.00  0.00     0.121 C 
HETATM    3  N1  UNL     1      21.841   3.247  51.680  1.00  0.00    -0.269 NA
HETATM    4  P2  UNL     1      20.183   2.867  52.247  1.00  0.00     0.059 P 
HETATM    5  C10 UNL     1      20.360   1.061  52.742  1.00  0.00     0.120 C 
HETATM    6  N2  UNL     1      20.110   0.010  53.482  1.00  0.00    -0.252 NA
HETATM    7  C11 UNL     1      20.941  -0.364  54.613  1.00  0.00     0.118 C 
HETATM    8  C12 UNL     1      22.271  -0.581  54.635  1.00  0.00     0.020 C 
HETATM    9  C13 UNL     1      23.223  -0.015  53.613  1.00  0.00     0.016 C 
HETATM   10  C14 UNL     1      23.140   0.648  52.417  1.00  0.00    -0.015 C 
HETATM   11  C15 UNL     1      24.447   1.317  52.422  1.00  0.00     0.051 C 
HETATM   12  C16 UNL     1      24.707   2.195  51.265  1.00  0.00     0.045 C 
HETATM   13  S1  UNL     1      21.550   0.274  51.590  1.00  0.00    -0.073 SA
HETATM   14  H11 UNL     1      19.291   2.873  51.098  1.00  0.00     0.089 HD
ENDROOT
BRANCH   1  15
HETATM   15  C8  UNL     1      24.014   4.432  49.357  1.00  0.00     0.079 C 
BRANCH  15  16
HETATM   16  C7  UNL     1      24.785   5.698  49.467  1.00  0.00    -0.045 A 
HETATM   17  C2  UNL     1      26.121   5.941  49.263  1.00  0.00    -0.028 A 
HETATM   18  C3  UNL     1      26.679   7.194  49.342  1.00  0.00     0.010 A 
HETATM   19  C4  UNL     1      25.902   8.311  49.642  1.00  0.00     0.001 A 
HETATM   20  C5  UNL     1      24.558   8.086  49.851  1.00  0.00     0.001 A 
HETATM   21  C6  UNL     1      24.026   6.823  49.764  1.00  0.00     0.008 A 
BRANCH  17  22
HETATM   22  C1  UNL     1      26.964   4.742  48.974  1.00  0.00     0.203 C 
BRANCH  22  23
HETATM   23  O1  UNL     1      28.300   5.116  49.138  1.00  0.00    -0.396 OA
HETATM   24  H1  UNL     1      28.481   5.207  50.086  1.00  0.00     0.209 HD
ENDBRANCH  22  23
ENDBRANCH  17  22
ENDBRANCH  15  16
ENDBRANCH   1  15
TORSDOF 4
ENDMDL
MODEL 9
REMARK VINA RESULT:      -6.7      3.592      6.730
REMARK  4 active torsions:
REMARK  status: ('A' for Active; 'I' for Inactive)
REMARK    1  A    between atoms: O1_1  and  C1_2 
REMARK    2  A    between atoms: C1_2  and  C2_3 
REMARK    3  A    between atoms: C7_8  and  C8_9 
REMARK    4  A    between atoms: C8_9  and  P1_10 
ROOT
HETATM    1  P1  UNL     1      25.096   5.125  50.314  1.00  0.00    -0.071 P 
HETATM    2  C9  UNL     1      23.834   5.586  51.404  1.00  0.00     0.121 C 
HETATM    3  N1  UNL     1      23.116   4.658  51.042  1.00  0.00    -0.269 NA
HETATM    4  P2  UNL     1      21.480   4.290  51.678  1.00  0.00     0.059 P 
HETATM    5  C10 UNL     1      21.559   2.420  51.860  1.00  0.00     0.120 C 
HETATM    6  N2  UNL     1      21.287   1.277  52.439  1.00  0.00    -0.252 NA
HETATM    7  C11 UNL     1      22.169   0.671  53.422  1.00  0.00     0.118 C 
HETATM    8  C12 UNL     1      23.477   0.373  53.297  1.00  0.00     0.020 C 
HETATM    9  C13 UNL     1      24.391   1.042  52.303  1.00  0.00     0.016 C 
HETATM   10  C14 UNL     1      24.270   1.898  51.241  1.00  0.00    -0.015 C 
HETATM   11  C15 UNL     1      25.620   2.477  51.244  1.00  0.00     0.051 C 
HETATM   12  C16 UNL     1      25.858   3.518  50.225  1.00  0.00     0.045 C 
HETATM   13  S1  UNL     1      22.601   1.764  50.500  1.00  0.00    -0.073 SA
HETATM   14  H11 UNL     1      20.509   4.541  50.624  1.00  0.00     0.089 HD
ENDROOT
BRANCH   1  15
HETATM   15  C8  UNL     1      25.195   6.078  48.766  1.00  0.00     0.079 C 
BRANCH  15  16
HETATM   16  C7  UNL     1      26.537   6.715  48.708  1.00  0.00    -0.045 A 
HETATM   17  C2  UNL     1      26.940   7.966  49.104  1.00  0.00    -0.028 A 
HETATM   18  C3  UNL     1      28.245   8.391  49.043  1.00  0.00     0.010 A 
HETATM   19  C4  UNL     1      29.253   7.555  48.565  1.00  0.00     0.001 A 
HETATM   20  C5  UNL     1      28.867   6.295  48.162  1.00  0.00     0.001 A 
HETATM   21  C6  UNL     1      27.555   5.896  48.234  1.00  0.00     0.008 A 
BRANCH  17  22
HETATM   22  C1  UNL     1      25.858   8.877  49.587  1.00  0.00     0.203 C 
BRANCH  22  23
HETATM   23  O1  UNL     1      26.370   9.607  50.662  1.00  0.00    -0.396 OA
HETATM   24  H1  UNL     1      26.831  10.386  50.316  1.00  0.00     0.209 HD
ENDBRANCH  22  23
ENDBRANCH  17  22
ENDBRANCH  15  16
ENDBRANCH   1  15
TORSDOF 4
ENDMDL
