MODEL 1
REMARK VINA RESULT:      -8.5      0.000      0.000
REMARK  1 active torsions:
REMARK  status: ('A' for Active; 'I' for Inactive)
REMARK    1  A    between atoms: O1_2  and  C2_3 
ROOT
HETATM    1  C2  UNL     1      24.603  -0.758  54.486  1.00  0.00     0.085 C 
HETATM    2  C3  UNL     1      25.861  -0.773  53.977  1.00  0.00     0.119 C 
HETATM    3  C4  UNL     1      26.484  -0.419  52.669  1.00  0.00     0.285 C 
HETATM    4  O2  UNL     1      27.623  -0.955  52.700  1.00  0.00    -0.260 OA
HETATM    5  O3  UNL     1      25.848   0.345  51.697  1.00  0.00    -0.317 OA
HETATM    6  C5  UNL     1      25.239   1.614  51.723  1.00  0.00     0.197 C 
HETATM    7  C6  UNL     1      23.809   1.689  51.971  1.00  0.00     0.050 C 
HETATM    8  C7  UNL     1      23.486   3.022  52.647  1.00  0.00     0.059 C 
HETATM    9  C8  UNL     1      23.569   4.148  51.694  1.00  0.00    -0.043 A 
HETATM   10  C9  UNL     1      23.807   5.391  52.263  1.00  0.00     0.008 A 
HETATM   11  C10 UNL     1      23.903   6.517  51.442  1.00  0.00     0.001 A 
HETATM   12  C11 UNL     1      23.763   6.416  50.060  1.00  0.00     0.001 A 
HETATM   13  C12 UNL     1      23.523   5.154  49.508  1.00  0.00     0.016 A 
HETATM   14  C13 UNL     1      23.429   4.040  50.325  1.00  0.00     0.019 A 
HETATM   15  C14 UNL     1      23.180   2.711  49.776  1.00  0.00     0.190 C 
HETATM   16  O4  UNL     1      23.159   2.533  48.510  1.00  0.00    -0.289 OA
HETATM   17  C15 UNL     1      22.957   1.598  50.688  1.00  0.00     0.219 C 
HETATM   18  O5  UNL     1      21.677   1.665  51.365  1.00  0.00    -0.336 OA
HETATM   19  C16 UNL     1      21.785   0.669  52.366  1.00  0.00     0.078 A 
HETATM   20  C17 UNL     1      20.771  -0.123  52.859  1.00  0.00     0.037 A 
HETATM   21  C18 UNL     1      21.099  -1.034  53.835  1.00  0.00     0.004 A 
HETATM   22  C19 UNL     1      22.384  -1.160  54.306  1.00  0.00     0.015 A 
HETATM   23  C20 UNL     1      23.369  -0.326  53.764  1.00  0.00     0.007 A 
HETATM   24  C21 UNL     1      23.138   0.640  52.764  1.00  0.00     0.002 A 
ENDROOT
BRANCH   1  25
HETATM   25  O1  UNL     1      24.290  -1.152  55.777  1.00  0.00    -0.355 OA
HETATM   26  C1  UNL     1      25.182  -0.848  56.828  1.00  0.00     0.210 C 
ENDBRANCH   1  25
TORSDOF 1
ENDMDL
MODEL 2
REMARK VINA RESULT:      -8.1      1.860      3.405
REMARK  1 active torsions:
REMARK  status: ('A' for Active; 'I' for Inactive)
REMARK    1  A    between atoms: O1_2  and  C2_3 
ROOT
HETATM    1  C2  UNL     1      22.353   0.777  52.399  1.00  0.00     0.085 C 
HETATM    2  C3  UNL     1      23.385   0.691  53.276  1.00  0.00     0.119 C 
HETATM    3  C4  UNL     1      24.833   1.047  53.253  1.00  0.00     0.285 C 
HETATM    4  O2  UNL     1      25.331   0.432  54.232  1.00  0.00    -0.260 OA
HETATM    5  O3  UNL     1      25.402   1.889  52.303  1.00  0.00    -0.317 OA
HETATM    6  C5  UNL     1      25.100   3.196  51.877  1.00  0.00     0.197 C 
HETATM    7  C6  UNL     1      24.219   3.362  50.732  1.00  0.00     0.050 C 
HETATM    8  C7  UNL     1      23.471   4.690  50.863  1.00  0.00     0.059 C 
HETATM    9  C8  UNL     1      24.357   5.840  50.587  1.00  0.00    -0.043 A 
HETATM   10  C9  UNL     1      23.963   7.043  51.157  1.00  0.00     0.008 A 
HETATM   11  C10 UNL     1      24.736   8.187  50.953  1.00  0.00     0.001 A 
HETATM   12  C11 UNL     1      25.898   8.146  50.185  1.00  0.00     0.001 A 
HETATM   13  C12 UNL     1      26.275   6.925  49.620  1.00  0.00     0.016 A 
HETATM   14  C13 UNL     1      25.506   5.791  49.825  1.00  0.00     0.019 A 
HETATM   15  C14 UNL     1      25.877   4.504  49.246  1.00  0.00     0.190 C 
HETATM   16  O4  UNL     1      26.990   4.374  48.631  1.00  0.00    -0.289 OA
HETATM   17  C15 UNL     1      24.964   3.378  49.381  1.00  0.00     0.219 C 
HETATM   18  O5  UNL     1      23.773   3.510  48.566  1.00  0.00    -0.336 OA
HETATM   19  C16 UNL     1      22.933   2.474  49.044  1.00  0.00     0.078 A 
HETATM   20  C17 UNL     1      22.027   1.738  48.312  1.00  0.00     0.037 A 
HETATM   21  C18 UNL     1      21.313   0.772  48.979  1.00  0.00     0.004 A 
HETATM   22  C19 UNL     1      21.487   0.539  50.322  1.00  0.00     0.015 A 
HETATM   23  C20 UNL     1      22.424   1.320  51.009  1.00  0.00     0.007 A 
HETATM   24  C21 UNL     1      23.205   2.335  50.421  1.00  0.00     0.002 A 
ENDROOT
BRANCH   1  25
HETATM   25  O1  UNL     1      21.063   0.360  52.686  1.00  0.00    -0.355 OA
HETATM   26  C1  UNL     1      20.697   0.118  54.027  1.00  0.00     0.210 C 
ENDBRANCH   1  25
TORSDOF 1
ENDMDL
MODEL 3
REMARK VINA RESULT:      -7.9      2.644      5.211
REMARK  1 active torsions:
REMARK  status: ('A' for Active; 'I' for Inactive)
REMARK    1  A    between atoms: O1_2  and  C2_3 
ROOT
HETATM    1  C2  UNL     1      22.959   1.367  52.068  1.00  0.00     0.085 C 
HETATM    2  C3  UNL     1      21.738   1.829  52.439  1.00  0.00     0.119 C 
HETATM    3  C4  UNL     1      20.987   3.107  52.269  1.00  0.00     0.285 C 
HETATM    4  O2  UNL     1      20.051   3.044  53.109  1.00  0.00    -0.260 OA
HETATM    5  O3  UNL     1      21.339   4.087  51.348  1.00  0.00    -0.317 OA
HETATM    6  C5  UNL     1      21.559   4.061  49.958  1.00  0.00     0.197 C 
HETATM    7  C6  UNL     1      22.917   3.864  49.478  1.00  0.00     0.050 C 
HETATM    8  C7  UNL     1      22.872   3.176  48.113  1.00  0.00     0.059 C 
HETATM    9  C8  UNL     1      22.431   4.104  47.051  1.00  0.00    -0.043 A 
HETATM   10  C9  UNL     1      21.871   3.505  45.932  1.00  0.00     0.008 A 
HETATM   11  C10 UNL     1      21.424   4.300  44.876  1.00  0.00     0.001 A 
HETATM   12  C11 UNL     1      21.531   5.688  44.922  1.00  0.00     0.001 A 
HETATM   13  C12 UNL     1      22.099   6.272  46.058  1.00  0.00     0.016 A 
HETATM   14  C13 UNL     1      22.541   5.479  47.105  1.00  0.00     0.019 A 
HETATM   15  C14 UNL     1      23.138   6.062  48.302  1.00  0.00     0.190 C 
HETATM   16  O4  UNL     1      23.157   7.331  48.458  1.00  0.00    -0.289 OA
HETATM   17  C15 UNL     1      23.707   5.179  49.311  1.00  0.00     0.219 C 
HETATM   18  O5  UNL     1      24.940   4.548  48.886  1.00  0.00    -0.336 OA
HETATM   19  C16 UNL     1      25.162   3.562  49.877  1.00  0.00     0.078 A 
HETATM   20  C17 UNL     1      26.380   3.122  50.349  1.00  0.00     0.037 A 
HETATM   21  C18 UNL     1      26.366   2.152  51.323  1.00  0.00     0.004 A 
HETATM   22  C19 UNL     1      25.191   1.635  51.815  1.00  0.00     0.015 A 
HETATM   23  C20 UNL     1      23.987   2.126  51.295  1.00  0.00     0.007 A 
HETATM   24  C21 UNL     1      23.891   3.115  50.296  1.00  0.00     0.002 A 
ENDROOT
BRANCH   1  25
HETATM   25  O1  UNL     1      23.423   0.096  52.365  1.00  0.00    -0.355 OA
HETATM   26  C1  UNL     1      22.647  -0.749  53.188  1.00  0.00     0.210 C 
ENDBRANCH   1  25
TORSDOF 1
ENDMDL
MODEL 4
REMARK VINA RESULT:      -7.8      8.820     11.821
REMARK  1 active torsions:
REMARK  status: ('A' for Active; 'I' for Inactive)
REMARK    1  A    between atoms: O1_2  and  C2_3 
ROOT
HETATM    1  C2  UNL     1      28.831   9.283  47.276  1.00  0.00     0.085 C 
HETATM    2  C3  UNL     1      29.809  10.210  47.436  1.00  0.00     0.119 C 
HETATM    3  C4  UNL     1      31.212  10.200  47.942  1.00  0.00     0.285 C 
HETATM    4  O2  UNL     1      31.488  11.411  48.149  1.00  0.00    -0.260 OA
HETATM    5  O3  UNL     1      31.959   9.039  48.112  1.00  0.00    -0.317 OA
HETATM    6  C5  UNL     1      32.290   7.978  47.248  1.00  0.00     0.197 C 
HETATM    7  C6  UNL     1      31.436   6.802  47.241  1.00  0.00     0.050 C 
HETATM    8  C7  UNL     1      31.492   6.148  45.860  1.00  0.00     0.059 C 
HETATM    9  C8  UNL     1      32.776   5.449  45.643  1.00  0.00    -0.043 A 
HETATM   10  C9  UNL     1      33.143   5.279  44.316  1.00  0.00     0.008 A 
HETATM   11  C10 UNL     1      34.341   4.630  44.010  1.00  0.00     0.001 A 
HETATM   12  C11 UNL     1      35.176   4.146  45.014  1.00  0.00     0.001 A 
HETATM   13  C12 UNL     1      34.787   4.327  46.344  1.00  0.00     0.016 A 
HETATM   14  C13 UNL     1      33.598   4.972  46.644  1.00  0.00     0.019 A 
HETATM   15  C14 UNL     1      33.167   5.174  48.023  1.00  0.00     0.190 C 
HETATM   16  O4  UNL     1      33.942   4.859  48.991  1.00  0.00    -0.289 OA
HETATM   17  C15 UNL     1      31.848   5.736  48.279  1.00  0.00     0.219 C 
HETATM   18  O5  UNL     1      30.769   4.819  47.974  1.00  0.00    -0.336 OA
HETATM   19  C16 UNL     1      29.616   5.639  48.034  1.00  0.00     0.078 A 
HETATM   20  C17 UNL     1      28.355   5.265  48.445  1.00  0.00     0.037 A 
HETATM   21  C18 UNL     1      27.374   6.228  48.428  1.00  0.00     0.004 A 
HETATM   22  C19 UNL     1      27.630   7.516  48.020  1.00  0.00     0.015 A 
HETATM   23  C20 UNL     1      28.932   7.832  47.615  1.00  0.00     0.007 A 
HETATM   24  C21 UNL     1      30.007   6.921  47.594  1.00  0.00     0.002 A 
ENDROOT
BRANCH   1  25
HETATM   25  O1  UNL     1      27.575   9.570  46.765  1.00  0.00    -0.355 OA
HETATM   26  C1  UNL     1      27.255  10.902  46.424  1.00  0.00     0.210 C 
ENDBRANCH   1  25
TORSDOF 1
ENDMDL
MODEL 5
REMARK VINA RESULT:      -7.7      1.948      6.899
REMARK  1 active torsions:
REMARK  status: ('A' for Active; 'I' for Inactive)
REMARK    1  A    between atoms: O1_2  and  C2_3 
ROOT
HETATM    1  C2  UNL     1      21.562   5.534  48.564  1.00  0.00     0.085 C 
HETATM    2  C3  UNL     1      21.509   4.559  47.621  1.00  0.00     0.119 C 
HETATM    3  C4  UNL     1      22.195   3.254  47.401  1.00  0.00     0.285 C 
HETATM    4  O2  UNL     1      21.967   2.970  46.196  1.00  0.00    -0.260 OA
HETATM    5  O3  UNL     1      22.907   2.584  48.390  1.00  0.00    -0.317 OA
HETATM    6  C5  UNL     1      22.574   2.161  49.691  1.00  0.00     0.197 C 
HETATM    7  C6  UNL     1      22.880   3.046  50.804  1.00  0.00     0.050 C 
HETATM    8  C7  UNL     1      21.878   2.799  51.931  1.00  0.00     0.059 C 
HETATM    9  C8  UNL     1      22.147   1.523  52.627  1.00  0.00    -0.043 A 
HETATM   10  C9  UNL     1      21.058   0.961  53.279  1.00  0.00     0.008 A 
HETATM   11  C10 UNL     1      21.214  -0.246  53.964  1.00  0.00     0.001 A 
HETATM   12  C11 UNL     1      22.444  -0.898  54.008  1.00  0.00     0.001 A 
HETATM   13  C12 UNL     1      23.528  -0.313  53.345  1.00  0.00     0.016 A 
HETATM   14  C13 UNL     1      23.369   0.884  52.666  1.00  0.00     0.019 A 
HETATM   15  C14 UNL     1      24.483   1.516  51.966  1.00  0.00     0.190 C 
HETATM   16  O4  UNL     1      25.606   0.912  51.869  1.00  0.00    -0.289 OA
HETATM   17  C15 UNL     1      24.295   2.837  51.383  1.00  0.00     0.219 C 
HETATM   18  O5  UNL     1      24.196   3.888  52.376  1.00  0.00    -0.336 OA
HETATM   19  C16 UNL     1      23.759   5.007  51.625  1.00  0.00     0.078 A 
HETATM   20  C17 UNL     1      24.077   6.329  51.847  1.00  0.00     0.037 A 
HETATM   21  C18 UNL     1      23.542   7.260  50.989  1.00  0.00     0.004 A 
HETATM   22  C19 UNL     1      22.722   6.898  49.947  1.00  0.00     0.015 A 
HETATM   23  C20 UNL     1      22.437   5.538  49.774  1.00  0.00     0.007 A 
HETATM   24  C21 UNL     1      22.932   4.506  50.597  1.00  0.00     0.002 A 
ENDROOT
BRANCH   1  25
HETATM   25  O1  UNL     1      20.790   6.683  48.527  1.00  0.00    -0.355 OA
HETATM   26  C1  UNL     1      19.390   6.572  48.379  1.00  0.00     0.210 C 
ENDBRANCH   1  25
TORSDOF 1
ENDMDL
MODEL 6
REMARK VINA RESULT:      -7.7     10.369     12.255
REMARK  1 active torsions:
REMARK  status: ('A' for Active; 'I' for Inactive)
REMARK    1  A    between atoms: O1_2  and  C2_3 
ROOT
HETATM    1  C2  UNL     1      34.126   4.306  47.191  1.00  0.00     0.085 C 
HETATM    2  C3  UNL     1      34.840   4.677  48.284  1.00  0.00     0.119 C 
HETATM    3  C4  UNL     1      35.292   5.972  48.870  1.00  0.00     0.285 C 
HETATM    4  O2  UNL     1      36.186   5.655  49.698  1.00  0.00    -0.260 OA
HETATM    5  O3  UNL     1      34.766   7.206  48.504  1.00  0.00    -0.317 OA
HETATM    6  C5  UNL     1      33.454   7.713  48.459  1.00  0.00     0.197 C 
HETATM    7  C6  UNL     1      32.719   7.617  47.207  1.00  0.00     0.050 C 
HETATM    8  C7  UNL     1      31.223   7.529  47.510  1.00  0.00     0.059 C 
HETATM    9  C8  UNL     1      30.680   8.832  47.946  1.00  0.00    -0.043 A 
HETATM   10  C9  UNL     1      29.525   8.768  48.713  1.00  0.00     0.008 A 
HETATM   11  C10 UNL     1      28.937   9.947  49.173  1.00  0.00     0.001 A 
HETATM   12  C11 UNL     1      29.488  11.192  48.875  1.00  0.00     0.001 A 
HETATM   13  C12 UNL     1      30.650  11.234  48.100  1.00  0.00     0.016 A 
HETATM   14  C13 UNL     1      31.231  10.061  47.646  1.00  0.00     0.019 A 
HETATM   15  C14 UNL     1      32.444  10.076  46.836  1.00  0.00     0.190 C 
HETATM   16  O4  UNL     1      33.064  11.175  46.627  1.00  0.00    -0.289 OA
HETATM   17  C15 UNL     1      32.936   8.826  46.273  1.00  0.00     0.219 C 
HETATM   18  O5  UNL     1      32.108   8.321  45.197  1.00  0.00    -0.336 OA
HETATM   19  C16 UNL     1      32.601   7.010  44.992  1.00  0.00     0.078 A 
HETATM   20  C17 UNL     1      32.665   6.326  43.797  1.00  0.00     0.037 A 
HETATM   21  C18 UNL     1      33.187   5.055  43.824  1.00  0.00     0.004 A 
HETATM   22  C19 UNL     1      33.632   4.479  44.990  1.00  0.00     0.015 A 
HETATM   23  C20 UNL     1      33.541   5.226  46.170  1.00  0.00     0.007 A 
HETATM   24  C21 UNL     1      33.022   6.534  46.252  1.00  0.00     0.002 A 
ENDROOT
BRANCH   1  25
HETATM   25  O1  UNL     1      33.839   2.989  46.870  1.00  0.00    -0.355 OA
HETATM   26  C1  UNL     1      33.144   2.186  47.799  1.00  0.00     0.210 C 
ENDBRANCH   1  25
TORSDOF 1
ENDMDL
MODEL 7
REMARK VINA RESULT:      -7.5      7.692     10.940
REMARK  1 active torsions:
REMARK  status: ('A' for Active; 'I' for Inactive)
REMARK    1  A    between atoms: O1_2  and  C2_3 
ROOT
HETATM    1  C2  UNL     1      26.386   8.815  48.177  1.00  0.00     0.085 C 
HETATM    2  C3  UNL     1      26.848  10.059  48.461  1.00  0.00     0.119 C 
HETATM    3  C4  UNL     1      28.153  10.636  48.895  1.00  0.00     0.285 C 
HETATM    4  O2  UNL     1      27.872  11.791  49.309  1.00  0.00    -0.260 OA
HETATM    5  O3  UNL     1      29.360   9.950  48.815  1.00  0.00    -0.317 OA
HETATM    6  C5  UNL     1      30.026   9.303  47.757  1.00  0.00     0.197 C 
HETATM    7  C6  UNL     1      29.806   7.878  47.571  1.00  0.00     0.050 C 
HETATM    8  C7  UNL     1      29.980   7.532  46.092  1.00  0.00     0.059 C 
HETATM    9  C8  UNL     1      31.403   7.555  45.693  1.00  0.00    -0.043 A 
HETATM   10  C9  UNL     1      31.639   7.769  44.342  1.00  0.00     0.008 A 
HETATM   11  C10 UNL     1      32.952   7.808  43.870  1.00  0.00     0.001 A 
HETATM   12  C11 UNL     1      34.034   7.634  44.730  1.00  0.00     0.001 A 
HETATM   13  C12 UNL     1      33.774   7.419  46.087  1.00  0.00     0.016 A 
HETATM   14  C13 UNL     1      32.470   7.382  46.552  1.00  0.00     0.019 A 
HETATM   15  C14 UNL     1      32.170   7.159  47.963  1.00  0.00     0.190 C 
HETATM   16  O4  UNL     1      33.117   7.111  48.820  1.00  0.00    -0.289 OA
HETATM   17  C15 UNL     1      30.783   6.995  48.375  1.00  0.00     0.219 C 
HETATM   18  O5  UNL     1      30.210   5.733  47.954  1.00  0.00    -0.336 OA
HETATM   19  C16 UNL     1      28.828   5.898  48.215  1.00  0.00     0.078 A 
HETATM   20  C17 UNL     1      27.936   4.923  48.606  1.00  0.00     0.037 A 
HETATM   21  C18 UNL     1      26.631   5.305  48.809  1.00  0.00     0.004 A 
HETATM   22  C19 UNL     1      26.221   6.606  48.635  1.00  0.00     0.015 A 
HETATM   23  C20 UNL     1      27.176   7.550  48.238  1.00  0.00     0.007 A 
HETATM   24  C21 UNL     1      28.535   7.262  48.002  1.00  0.00     0.002 A 
ENDROOT
BRANCH   1  25
HETATM   25  O1  UNL     1      25.084   8.550  47.783  1.00  0.00    -0.355 OA
HETATM   26  C1  UNL     1      24.083   9.519  48.006  1.00  0.00     0.210 C 
ENDBRANCH   1  25
TORSDOF 1
ENDMDL
MODEL 8
REMARK VINA RESULT:      -7.5      3.740      6.648
REMARK  1 active torsions:
REMARK  status: ('A' for Active; 'I' for Inactive)
REMARK    1  A    between atoms: O1_2  and  C2_3 
ROOT
HETATM    1  C2  UNL     1      16.196  -0.383  51.704  1.00  0.00     0.085 C 
HETATM    2  C3  UNL     1      15.591   0.780  51.354  1.00  0.00     0.119 C 
HETATM    3  C4  UNL     1      15.966   2.223  51.376  1.00  0.00     0.285 C 
HETATM    4  O2  UNL     1      14.878   2.840  51.237  1.00  0.00    -0.260 OA
HETATM    5  O3  UNL     1      17.273   2.674  51.525  1.00  0.00    -0.317 OA
HETATM    6  C5  UNL     1      18.466   2.400  50.830  1.00  0.00     0.197 C 
HETATM    7  C6  UNL     1      19.330   1.343  51.332  1.00  0.00     0.050 C 
HETATM    8  C7  UNL     1      20.107   0.734  50.164  1.00  0.00     0.059 C 
HETATM    9  C8  UNL     1      21.175   1.639  49.692  1.00  0.00    -0.043 A 
HETATM   10  C9  UNL     1      21.579   1.446  48.379  1.00  0.00     0.008 A 
HETATM   11  C10 UNL     1      22.583   2.254  47.841  1.00  0.00     0.001 A 
HETATM   12  C11 UNL     1      23.190   3.253  48.601  1.00  0.00     0.001 A 
HETATM   13  C12 UNL     1      22.767   3.429  49.921  1.00  0.00     0.016 A 
HETATM   14  C13 UNL     1      21.771   2.626  50.451  1.00  0.00     0.019 A 
HETATM   15  C14 UNL     1      21.311   2.789  51.826  1.00  0.00     0.190 C 
HETATM   16  O4  UNL     1      21.742   3.761  52.536  1.00  0.00    -0.289 OA
HETATM   17  C15 UNL     1      20.359   1.832  52.373  1.00  0.00     0.219 C 
HETATM   18  O5  UNL     1      20.939   0.528  52.619  1.00  0.00    -0.336 OA
HETATM   19  C16 UNL     1      19.812  -0.288  52.880  1.00  0.00     0.078 A 
HETATM   20  C17 UNL     1      19.749  -1.364  53.740  1.00  0.00     0.037 A 
HETATM   21  C18 UNL     1      18.545  -2.018  53.846  1.00  0.00     0.004 A 
HETATM   22  C19 UNL     1      17.440  -1.623  53.129  1.00  0.00     0.015 A 
HETATM   23  C20 UNL     1      17.569  -0.522  52.275  1.00  0.00     0.007 A 
HETATM   24  C21 UNL     1      18.756   0.215  52.092  1.00  0.00     0.002 A 
ENDROOT
BRANCH   1  25
HETATM   25  O1  UNL     1      15.602  -1.629  51.575  1.00  0.00    -0.355 OA
HETATM   26  C1  UNL     1      14.689  -1.854  50.522  1.00  0.00     0.210 C 
ENDBRANCH   1  25
TORSDOF 1
ENDMDL
MODEL 9
REMARK VINA RESULT:      -7.5      8.818     11.676
REMARK  1 active torsions:
REMARK  status: ('A' for Active; 'I' for Inactive)
REMARK    1  A    between atoms: O1_2  and  C2_3 
ROOT
HETATM    1  C2  UNL     1      33.768   5.799  46.012  1.00  0.00     0.085 C 
HETATM    2  C3  UNL     1      34.215   5.595  47.277  1.00  0.00     0.119 C 
HETATM    3  C4  UNL     1      33.992   6.242  48.602  1.00  0.00     0.285 C 
HETATM    4  O2  UNL     1      34.927   5.817  49.330  1.00  0.00    -0.260 OA
HETATM    5  O3  UNL     1      32.940   7.114  48.863  1.00  0.00    -0.317 OA
HETATM    6  C5  UNL     1      31.546   7.007  48.709  1.00  0.00     0.197 C 
HETATM    7  C6  UNL     1      30.949   7.490  47.474  1.00  0.00     0.050 C 
HETATM    8  C7  UNL     1      29.676   6.693  47.186  1.00  0.00     0.059 C 
HETATM    9  C8  UNL     1      28.575   7.083  48.091  1.00  0.00    -0.043 A 
HETATM   10  C9  UNL     1      27.591   6.122  48.276  1.00  0.00     0.008 A 
HETATM   11  C10 UNL     1      26.509   6.398  49.115  1.00  0.00     0.001 A 
HETATM   12  C11 UNL     1      26.398   7.623  49.770  1.00  0.00     0.001 A 
HETATM   13  C12 UNL     1      27.400   8.576  49.569  1.00  0.00     0.016 A 
HETATM   14  C13 UNL     1      28.472   8.298  48.736  1.00  0.00     0.019 A 
HETATM   15  C14 UNL     1      29.532   9.275  48.508  1.00  0.00     0.190 C 
HETATM   16  O4  UNL     1      29.551  10.369  49.169  1.00  0.00    -0.289 OA
HETATM   17  C15 UNL     1      30.563   8.983  47.521  1.00  0.00     0.219 C 
HETATM   18  O5  UNL     1      30.079   9.046  46.157  1.00  0.00    -0.336 OA
HETATM   19  C16 UNL     1      31.140   8.482  45.407  1.00  0.00     0.078 A 
HETATM   20  C17 UNL     1      31.525   8.826  44.129  1.00  0.00     0.037 A 
HETATM   21  C18 UNL     1      32.591   8.148  43.588  1.00  0.00     0.004 A 
HETATM   22  C19 UNL     1      33.256   7.167  44.284  1.00  0.00     0.015 A 
HETATM   23  C20 UNL     1      32.816   6.866  45.579  1.00  0.00     0.007 A 
HETATM   24  C21 UNL     1      31.735   7.498  46.224  1.00  0.00     0.002 A 
ENDROOT
BRANCH   1  25
HETATM   25  O1  UNL     1      34.147   5.025  44.928  1.00  0.00    -0.355 OA
HETATM   26  C1  UNL     1      35.058   3.964  45.120  1.00  0.00     0.210 C 
ENDBRANCH   1  25
TORSDOF 1
ENDMDL
