MODEL 1
REMARK VINA RESULT:      -7.7      0.000      0.000
REMARK  7 active torsions:
REMARK  status: ('A' for Active; 'I' for Inactive)
REMARK    1  A    between atoms: C2_2  and  O1_3 
REMARK    2  A    between atoms: O1_3  and  N1_4 
REMARK    3  A    between atoms: C8_11  and  C9_12 
REMARK    4  A    between atoms: C9_12  and  C10_13 
REMARK    5  A    between atoms: C11_14  and  C12_15 
REMARK    6  A    between atoms: C12_15  and  C13_16 
REMARK    7  A    between atoms: C16_20  and  N3_21 
ROOT
HETATM    1  C9  UNL     1      22.589   1.330  51.802  1.00  0.00     0.040 C 
ENDROOT
BRANCH   1   2
HETATM    2  C8  UNL     1      22.300  -0.033  52.393  1.00  0.00     0.072 A 
HETATM    3  C3  UNL     1      21.026  -0.069  53.164  1.00  0.00     0.214 A 
HETATM    4  N1  UNL     1      19.783  -0.159  52.635  1.00  0.00    -0.023 NA
HETATM    5  O2  UNL     1      20.282   1.135  53.068  1.00  0.00    -0.239 OA
HETATM    6  C4  UNL     1      21.281  -0.585  54.527  1.00  0.00     0.035 A 
HETATM    7  C5  UNL     1      22.326  -1.014  55.212  1.00  0.00     0.000 A 
HETATM    8  C6  UNL     1      23.587  -0.983  54.455  1.00  0.00    -0.004 A 
HETATM    9  C7  UNL     1      23.412  -0.526  53.228  1.00  0.00    -0.017 A 
BRANCH   4  10
HETATM   10  O1  UNL     1      18.766  -0.500  53.448  1.00  0.00    -0.276 OA
BRANCH  10  11
HETATM   11  C2  UNL     1      17.840  -1.349  52.889  1.00  0.00     0.192 C 
HETATM   12  C1  UNL     1      17.836  -2.658  53.646  1.00  0.00     0.035 C 
ENDBRANCH  10  11
ENDBRANCH   4  10
ENDBRANCH   1   2
BRANCH   1  13
HETATM   13  C10 UNL     1      23.270   2.256  52.722  1.00  0.00    -0.029 C 
HETATM   14  C11 UNL     1      24.539   2.588  52.670  1.00  0.00    -0.025 C 
BRANCH  14  15
HETATM   15  C12 UNL     1      25.604   2.161  51.731  1.00  0.00     0.086 C 
BRANCH  15  16
HETATM   16  C13 UNL     1      26.730   1.494  52.437  1.00  0.00     0.058 A 
HETATM   17  C14 UNL     1      26.816   0.119  52.354  1.00  0.00     0.048 A 
HETATM   18  C15 UNL     1      27.832  -0.595  52.980  1.00  0.00     0.138 A 
HETATM   19  N2  UNL     1      28.764   0.088  53.690  1.00  0.00    -0.075 NA
HETATM   20  C16 UNL     1      28.674   1.447  53.767  1.00  0.00     0.720 A 
HETATM   21  N4  UNL     1      27.685   2.122  53.156  1.00  0.00    -0.068 NA
BRANCH  20  22
HETATM   22  N3  UNL     1      29.640   2.213  54.510  1.00  0.00    -0.231 N 
HETATM   23  H19 UNL     1      30.599   1.947  54.263  1.00  0.00     0.174 HD
HETATM   24  H20 UNL     1      29.567   2.964  55.230  1.00  0.00     0.174 HD
ENDBRANCH  20  22
ENDBRANCH  15  16
ENDBRANCH  14  15
ENDBRANCH   1  13
TORSDOF 7
ENDMDL
MODEL 2
REMARK VINA RESULT:      -7.6      1.155      1.701
REMARK  7 active torsions:
REMARK  status: ('A' for Active; 'I' for Inactive)
REMARK    1  A    between atoms: C2_2  and  O1_3 
REMARK    2  A    between atoms: O1_3  and  N1_4 
REMARK    3  A    between atoms: C8_11  and  C9_12 
REMARK    4  A    between atoms: C9_12  and  C10_13 
REMARK    5  A    between atoms: C11_14  and  C12_15 
REMARK    6  A    between atoms: C12_15  and  C13_16 
REMARK    7  A    between atoms: C16_20  and  N3_21 
ROOT
HETATM    1  C9  UNL     1      22.908   1.361  51.559  1.00  0.00     0.040 C 
ENDROOT
BRANCH   1   2
HETATM    2  C8  UNL     1      22.349   0.094  52.168  1.00  0.00     0.072 A 
HETATM    3  C3  UNL     1      20.982   0.279  52.732  1.00  0.00     0.214 A 
HETATM    4  N1  UNL     1      19.830   0.313  52.021  1.00  0.00    -0.023 NA
HETATM    5  O2  UNL     1      20.435   1.559  52.459  1.00  0.00    -0.239 OA
HETATM    6  C4  UNL     1      20.960  -0.166  54.143  1.00  0.00     0.035 A 
HETATM    7  C5  UNL     1      21.823  -0.675  55.003  1.00  0.00     0.000 A 
HETATM    8  C6  UNL     1      23.173  -0.863  54.451  1.00  0.00    -0.004 A 
HETATM    9  C7  UNL     1      23.246  -0.477  53.190  1.00  0.00    -0.017 A 
BRANCH   4  10
HETATM   10  O1  UNL     1      18.667   0.167  52.682  1.00  0.00    -0.276 OA
BRANCH  10  11
HETATM   11  C2  UNL     1      17.881  -0.872  52.242  1.00  0.00     0.192 C 
HETATM   12  C1  UNL     1      17.728  -1.891  53.349  1.00  0.00     0.035 C 
ENDBRANCH  10  11
ENDBRANCH   4  10
ENDBRANCH   1   2
BRANCH   1  13
HETATM   13  C10 UNL     1      23.595   2.241  52.520  1.00  0.00    -0.029 C 
HETATM   14  C11 UNL     1      24.892   2.418  52.600  1.00  0.00    -0.025 C 
BRANCH  14  15
HETATM   15  C12 UNL     1      25.992   1.826  51.801  1.00  0.00     0.086 C 
BRANCH  15  16
HETATM   16  C13 UNL     1      26.782   0.842  52.589  1.00  0.00     0.058 A 
HETATM   17  C14 UNL     1      27.523   1.316  53.652  1.00  0.00     0.048 A 
HETATM   18  C15 UNL     1      28.293   0.475  54.447  1.00  0.00     0.138 A 
HETATM   19  N2  UNL     1      28.309  -0.852  54.163  1.00  0.00    -0.075 NA
HETATM   20  C16 UNL     1      27.575  -1.314  53.111  1.00  0.00     0.720 A 
HETATM   21  N4  UNL     1      26.836  -0.486  52.352  1.00  0.00    -0.068 NA
BRANCH  20  22
HETATM   22  N3  UNL     1      27.563  -2.712  52.773  1.00  0.00    -0.231 N 
HETATM   23  H19 UNL     1      26.610  -3.090  52.770  1.00  0.00     0.174 HD
HETATM   24  H20 UNL     1      28.307  -3.404  52.535  1.00  0.00     0.174 HD
ENDBRANCH  20  22
ENDBRANCH  15  16
ENDBRANCH  14  15
ENDBRANCH   1  13
TORSDOF 7
ENDMDL
MODEL 3
REMARK VINA RESULT:      -7.5      2.833      8.223
REMARK  7 active torsions:
REMARK  status: ('A' for Active; 'I' for Inactive)
REMARK    1  A    between atoms: C2_2  and  O1_3 
REMARK    2  A    between atoms: O1_3  and  N1_4 
REMARK    3  A    between atoms: C8_11  and  C9_12 
REMARK    4  A    between atoms: C9_12  and  C10_13 
REMARK    5  A    between atoms: C11_14  and  C12_15 
REMARK    6  A    between atoms: C12_15  and  C13_16 
REMARK    7  A    between atoms: C16_20  and  N3_21 
ROOT
HETATM    1  C9  UNL     1      23.167  -0.907  53.970  1.00  0.00     0.040 C 
ENDROOT
BRANCH   1   2
HETATM    2  C8  UNL     1      24.199  -0.158  53.154  1.00  0.00     0.072 A 
HETATM    3  C3  UNL     1      25.538  -0.127  53.806  1.00  0.00     0.214 A 
HETATM    4  N1  UNL     1      26.440  -1.136  53.813  1.00  0.00    -0.023 NA
HETATM    5  O2  UNL     1      25.605  -0.918  54.981  1.00  0.00    -0.239 OA
HETATM    6  C4  UNL     1      26.005   1.272  53.921  1.00  0.00     0.035 A 
HETATM    7  C5  UNL     1      25.546   2.468  53.595  1.00  0.00     0.000 A 
HETATM    8  C6  UNL     1      24.225   2.443  52.948  1.00  0.00    -0.004 A 
HETATM    9  C7  UNL     1      23.763   1.212  52.825  1.00  0.00    -0.017 A 
BRANCH   4  10
HETATM   10  O1  UNL     1      27.710  -0.856  54.158  1.00  0.00    -0.276 OA
BRANCH  10  11
HETATM   11  C2  UNL     1      28.655  -1.236  53.234  1.00  0.00     0.192 C 
HETATM   12  C1  UNL     1      30.034  -0.914  53.765  1.00  0.00     0.035 C 
ENDBRANCH  10  11
ENDBRANCH   4  10
ENDBRANCH   1   2
BRANCH   1  13
HETATM   13  C10 UNL     1      22.121  -0.051  54.553  1.00  0.00    -0.029 C 
HETATM   14  C11 UNL     1      20.831  -0.291  54.519  1.00  0.00    -0.025 C 
BRANCH  14  15
HETATM   15  C12 UNL     1      20.082  -1.423  53.923  1.00  0.00     0.086 C 
BRANCH  15  16
HETATM   16  C13 UNL     1      18.877  -0.961  53.184  1.00  0.00     0.058 A 
HETATM   17  C14 UNL     1      19.041   0.040  52.248  1.00  0.00     0.048 A 
HETATM   18  C15 UNL     1      17.975   0.538  51.507  1.00  0.00     0.138 A 
HETATM   19  N2  UNL     1      16.740   0.018  51.715  1.00  0.00    -0.075 NA
HETATM   20  C16 UNL     1      16.584  -0.972  52.641  1.00  0.00     0.720 A 
HETATM   21  N4  UNL     1      17.626  -1.442  53.349  1.00  0.00    -0.068 NA
BRANCH  20  22
HETATM   22  N3  UNL     1      15.292  -1.552  52.895  1.00  0.00    -0.231 N 
HETATM   23  H19 UNL     1      15.359  -2.564  53.046  1.00  0.00     0.174 HD
HETATM   24  H20 UNL     1      14.326  -1.165  52.956  1.00  0.00     0.174 HD
ENDBRANCH  20  22
ENDBRANCH  15  16
ENDBRANCH  14  15
ENDBRANCH   1  13
TORSDOF 7
ENDMDL
MODEL 4
REMARK VINA RESULT:      -7.4      2.893      7.017
REMARK  7 active torsions:
REMARK  status: ('A' for Active; 'I' for Inactive)
REMARK    1  A    between atoms: C2_2  and  O1_3 
REMARK    2  A    between atoms: O1_3  and  N1_4 
REMARK    3  A    between atoms: C8_11  and  C9_12 
REMARK    4  A    between atoms: C9_12  and  C10_13 
REMARK    5  A    between atoms: C11_14  and  C12_15 
REMARK    6  A    between atoms: C12_15  and  C13_16 
REMARK    7  A    between atoms: C16_20  and  N3_21 
ROOT
HETATM    1  C9  UNL     1      23.221  -0.989  53.580  1.00  0.00     0.040 C 
ENDROOT
BRANCH   1   2
HETATM    2  C8  UNL     1      24.315  -0.147  52.961  1.00  0.00     0.072 A 
HETATM    3  C3  UNL     1      25.587  -0.194  53.735  1.00  0.00     0.214 A 
HETATM    4  N1  UNL     1      26.496  -1.198  53.704  1.00  0.00    -0.023 NA
HETATM    5  O2  UNL     1      25.554  -1.122  54.807  1.00  0.00    -0.239 OA
HETATM    6  C4  UNL     1      26.025   1.181  54.061  1.00  0.00     0.035 A 
HETATM    7  C5  UNL     1      25.585   2.407  53.841  1.00  0.00     0.000 A 
HETATM    8  C6  UNL     1      24.330   2.460  53.075  1.00  0.00    -0.004 A 
HETATM    9  C7  UNL     1      23.896   1.253  52.761  1.00  0.00    -0.017 A 
BRANCH   4  10
HETATM   10  O1  UNL     1      27.725  -0.961  54.198  1.00  0.00    -0.276 OA
BRANCH  10  11
HETATM   11  C2  UNL     1      28.756  -1.220  53.325  1.00  0.00     0.192 C 
HETATM   12  C1  UNL     1      29.875  -0.230  53.561  1.00  0.00     0.035 C 
ENDBRANCH  10  11
ENDBRANCH   4  10
ENDBRANCH   1   2
BRANCH   1  13
HETATM   13  C10 UNL     1      22.403  -0.279  54.578  1.00  0.00    -0.029 C 
HETATM   14  C11 UNL     1      21.136   0.032  54.445  1.00  0.00    -0.025 C 
BRANCH  14  15
HETATM   15  C12 UNL     1      20.199  -0.220  53.323  1.00  0.00     0.086 C 
BRANCH  15  16
HETATM   16  C13 UNL     1      20.390   0.751  52.213  1.00  0.00     0.058 A 
HETATM   17  C14 UNL     1      20.112   2.079  52.466  1.00  0.00     0.048 A 
HETATM   18  C15 UNL     1      20.260   3.062  51.494  1.00  0.00     0.138 A 
HETATM   19  N2  UNL     1      20.691   2.695  50.261  1.00  0.00    -0.075 NA
HETATM   20  C16 UNL     1      20.964   1.381  50.017  1.00  0.00     0.720 A 
HETATM   21  N4  UNL     1      20.816   0.444  50.969  1.00  0.00    -0.068 NA
BRANCH  20  22
HETATM   22  N3  UNL     1      21.423   0.947  48.724  1.00  0.00    -0.231 N 
HETATM   23  H19 UNL     1      21.348   1.697  48.029  1.00  0.00     0.174 HD
HETATM   24  H20 UNL     1      21.807   0.050  48.358  1.00  0.00     0.174 HD
ENDBRANCH  20  22
ENDBRANCH  15  16
ENDBRANCH  14  15
ENDBRANCH   1  13
TORSDOF 7
ENDMDL
MODEL 5
REMARK VINA RESULT:      -7.2      2.194      3.536
REMARK  7 active torsions:
REMARK  status: ('A' for Active; 'I' for Inactive)
REMARK    1  A    between atoms: C2_2  and  O1_3 
REMARK    2  A    between atoms: O1_3  and  N1_4 
REMARK    3  A    between atoms: C8_11  and  C9_12 
REMARK    4  A    between atoms: C9_12  and  C10_13 
REMARK    5  A    between atoms: C11_14  and  C12_15 
REMARK    6  A    between atoms: C12_15  and  C13_16 
REMARK    7  A    between atoms: C16_20  and  N3_21 
ROOT
HETATM    1  C9  UNL     1      23.936   1.339  51.893  1.00  0.00     0.040 C 
ENDROOT
BRANCH   1   2
HETATM    2  C8  UNL     1      22.813   1.993  51.118  1.00  0.00     0.072 A 
HETATM    3  C3  UNL     1      21.690   1.058  50.828  1.00  0.00     0.214 A 
HETATM    4  N1  UNL     1      20.723   0.687  51.700  1.00  0.00    -0.023 NA
HETATM    5  O2  UNL     1      21.841  -0.206  51.455  1.00  0.00    -0.239 OA
HETATM    6  C4  UNL     1      21.409   1.049  49.376  1.00  0.00     0.035 A 
HETATM    7  C5  UNL     1      21.889   1.649  48.301  1.00  0.00     0.000 A 
HETATM    8  C6  UNL     1      22.996   2.576  48.581  1.00  0.00    -0.004 A 
HETATM    9  C7  UNL     1      23.287   2.618  49.869  1.00  0.00    -0.017 A 
BRANCH   4  10
HETATM   10  O1  UNL     1      19.614   0.100  51.213  1.00  0.00    -0.276 OA
BRANCH  10  11
HETATM   11  C2  UNL     1      18.525   0.140  52.051  1.00  0.00     0.192 C 
HETATM   12  C1  UNL     1      18.701  -0.880  53.153  1.00  0.00     0.035 C 
ENDBRANCH  10  11
ENDBRANCH   4  10
ENDBRANCH   1   2
BRANCH   1  13
HETATM   13  C10 UNL     1      24.973   2.274  52.359  1.00  0.00    -0.029 C 
HETATM   14  C11 UNL     1      25.828   2.045  53.328  1.00  0.00    -0.025 C 
BRANCH  14  15
HETATM   15  C12 UNL     1      26.002   0.853  54.192  1.00  0.00     0.086 C 
BRANCH  15  16
HETATM   16  C13 UNL     1      27.266   0.130  53.891  1.00  0.00     0.058 A 
HETATM   17  C14 UNL     1      28.439   0.858  53.893  1.00  0.00     0.048 A 
HETATM   18  C15 UNL     1      29.671   0.272  53.624  1.00  0.00     0.138 A 
HETATM   19  N2  UNL     1      29.713  -1.057  53.352  1.00  0.00    -0.075 NA
HETATM   20  C16 UNL     1      28.550  -1.771  53.351  1.00  0.00     0.720 A 
HETATM   21  N4  UNL     1      27.367  -1.188  53.614  1.00  0.00    -0.068 NA
BRANCH  20  22
HETATM   22  N3  UNL     1      28.547  -3.181  53.067  1.00  0.00    -0.231 N 
HETATM   23  H19 UNL     1      28.038  -3.388  52.201  1.00  0.00     0.174 HD
HETATM   24  H20 UNL     1      28.946  -4.015  53.549  1.00  0.00     0.174 HD
ENDBRANCH  20  22
ENDBRANCH  15  16
ENDBRANCH  14  15
ENDBRANCH   1  13
TORSDOF 7
ENDMDL
MODEL 6
REMARK VINA RESULT:      -7.1      6.740     10.281
REMARK  7 active torsions:
REMARK  status: ('A' for Active; 'I' for Inactive)
REMARK    1  A    between atoms: C2_2  and  O1_3 
REMARK    2  A    between atoms: O1_3  and  N1_4 
REMARK    3  A    between atoms: C8_11  and  C9_12 
REMARK    4  A    between atoms: C9_12  and  C10_13 
REMARK    5  A    between atoms: C11_14  and  C12_15 
REMARK    6  A    between atoms: C12_15  and  C13_16 
REMARK    7  A    between atoms: C16_20  and  N3_21 
ROOT
HETATM    1  C9  UNL     1      28.020   5.002  48.559  1.00  0.00     0.040 C 
ENDROOT
BRANCH   1   2
HETATM    2  C8  UNL     1      28.511   6.294  47.943  1.00  0.00     0.072 A 
HETATM    3  C3  UNL     1      29.962   6.532  48.180  1.00  0.00     0.214 A 
HETATM    4  N1  UNL     1      30.981   5.951  47.504  1.00  0.00    -0.023 NA
HETATM    5  O2  UNL     1      30.610   5.439  48.811  1.00  0.00    -0.239 OA
HETATM    6  C4  UNL     1      30.157   7.863  48.796  1.00  0.00     0.035 A 
HETATM    7  C5  UNL     1      29.387   8.868  49.174  1.00  0.00     0.000 A 
HETATM    8  C6  UNL     1      27.953   8.641  48.939  1.00  0.00    -0.004 A 
HETATM    9  C7  UNL     1      27.727   7.460  48.391  1.00  0.00    -0.017 A 
BRANCH   4  10
HETATM   10  O1  UNL     1      32.209   6.493  47.608  1.00  0.00    -0.276 OA
BRANCH  10  11
HETATM   11  C2  UNL     1      32.867   6.664  46.413  1.00  0.00     0.192 C 
HETATM   12  C1  UNL     1      32.838   8.125  46.027  1.00  0.00     0.035 C 
ENDBRANCH  10  11
ENDBRANCH   4  10
ENDBRANCH   1   2
BRANCH   1  13
HETATM   13  C10 UNL     1      26.647   5.069  49.088  1.00  0.00    -0.029 C 
HETATM   14  C11 UNL     1      26.013   4.091  49.691  1.00  0.00    -0.025 C 
BRANCH  14  15
HETATM   15  C12 UNL     1      26.454   2.710  50.003  1.00  0.00     0.086 C 
BRANCH  15  16
HETATM   16  C13 UNL     1      26.607   2.495  51.467  1.00  0.00     0.058 A 
HETATM   17  C14 UNL     1      25.464   2.276  52.207  1.00  0.00     0.048 A 
HETATM   18  C15 UNL     1      25.504   2.065  53.581  1.00  0.00     0.138 A 
HETATM   19  N2  UNL     1      26.709   2.076  54.204  1.00  0.00    -0.075 NA
HETATM   20  C16 UNL     1      27.836   2.293  53.467  1.00  0.00     0.720 A 
HETATM   21  N4  UNL     1      27.778   2.495  52.139  1.00  0.00    -0.068 NA
BRANCH  20  22
HETATM   22  N3  UNL     1      29.134   2.313  54.086  1.00  0.00    -0.231 N 
HETATM   23  H19 UNL     1      29.880   2.419  53.390  1.00  0.00     0.174 HD
HETATM   24  H20 UNL     1      29.465   2.245  55.072  1.00  0.00     0.174 HD
ENDBRANCH  20  22
ENDBRANCH  15  16
ENDBRANCH  14  15
ENDBRANCH   1  13
TORSDOF 7
ENDMDL
MODEL 7
REMARK VINA RESULT:      -7.1      3.368      5.334
REMARK  7 active torsions:
REMARK  status: ('A' for Active; 'I' for Inactive)
REMARK    1  A    between atoms: C2_2  and  O1_3 
REMARK    2  A    between atoms: O1_3  and  N1_4 
REMARK    3  A    between atoms: C8_11  and  C9_12 
REMARK    4  A    between atoms: C9_12  and  C10_13 
REMARK    5  A    between atoms: C11_14  and  C12_15 
REMARK    6  A    between atoms: C12_15  and  C13_16 
REMARK    7  A    between atoms: C16_20  and  N3_21 
ROOT
HETATM    1  C9  UNL     1      23.986   1.591  51.721  1.00  0.00     0.040 C 
ENDROOT
BRANCH   1   2
HETATM    2  C8  UNL     1      24.590   2.964  51.519  1.00  0.00     0.072 A 
HETATM    3  C3  UNL     1      23.764   3.834  50.635  1.00  0.00     0.214 A 
HETATM    4  N1  UNL     1      22.645   4.502  51.002  1.00  0.00    -0.023 NA
HETATM    5  O2  UNL     1      22.522   3.248  50.280  1.00  0.00    -0.239 OA
HETATM    6  C4  UNL     1      24.595   4.351  49.525  1.00  0.00     0.035 A 
HETATM    7  C5  UNL     1      25.852   4.241  49.135  1.00  0.00     0.000 A 
HETATM    8  C6  UNL     1      26.673   3.386  50.006  1.00  0.00    -0.004 A 
HETATM    9  C7  UNL     1      25.974   2.897  51.014  1.00  0.00    -0.017 A 
BRANCH   4  10
HETATM   10  O1  UNL     1      22.195   5.484  50.199  1.00  0.00    -0.276 OA
BRANCH  10  11
HETATM   11  C2  UNL     1      21.963   6.683  50.831  1.00  0.00     0.192 C 
HETATM   12  C1  UNL     1      23.154   7.594  50.633  1.00  0.00     0.035 C 
ENDBRANCH  10  11
ENDBRANCH   4  10
ENDBRANCH   1   2
BRANCH   1  13
HETATM   13  C10 UNL     1      24.115   1.070  53.092  1.00  0.00    -0.029 C 
HETATM   14  C11 UNL     1      24.935   0.119  53.472  1.00  0.00    -0.025 C 
BRANCH  14  15
HETATM   15  C12 UNL     1      25.916  -0.671  52.690  1.00  0.00     0.086 C 
BRANCH  15  16
HETATM   16  C13 UNL     1      27.316  -0.377  53.099  1.00  0.00     0.058 A 
HETATM   17  C14 UNL     1      28.235  -1.404  53.032  1.00  0.00     0.048 A 
HETATM   18  C15 UNL     1      29.566  -1.227  53.392  1.00  0.00     0.138 A 
HETATM   19  N2  UNL     1      29.965  -0.004  53.822  1.00  0.00    -0.075 NA
HETATM   20  C16 UNL     1      29.052   1.008  53.887  1.00  0.00     0.720 A 
HETATM   21  N4  UNL     1      27.768   0.819  53.534  1.00  0.00    -0.068 NA
BRANCH  20  22
HETATM   22  N3  UNL     1      29.430   2.320  54.338  1.00  0.00    -0.231 N 
HETATM   23  H19 UNL     1      28.795   2.665  55.066  1.00  0.00     0.174 HD
HETATM   24  H20 UNL     1      30.199   2.978  54.083  1.00  0.00     0.174 HD
ENDBRANCH  20  22
ENDBRANCH  15  16
ENDBRANCH  14  15
ENDBRANCH   1  13
TORSDOF 7
ENDMDL
MODEL 8
REMARK VINA RESULT:      -6.9      2.947      3.977
REMARK  7 active torsions:
REMARK  status: ('A' for Active; 'I' for Inactive)
REMARK    1  A    between atoms: C2_2  and  O1_3 
REMARK    2  A    between atoms: O1_3  and  N1_4 
REMARK    3  A    between atoms: C8_11  and  C9_12 
REMARK    4  A    between atoms: C9_12  and  C10_13 
REMARK    5  A    between atoms: C11_14  and  C12_15 
REMARK    6  A    between atoms: C12_15  and  C13_16 
REMARK    7  A    between atoms: C16_20  and  N3_21 
ROOT
HETATM    1  C9  UNL     1      22.887   1.710  52.403  1.00  0.00     0.040 C 
ENDROOT
BRANCH   1   2
HETATM    2  C8  UNL     1      22.635   0.250  52.708  1.00  0.00     0.072 A 
HETATM    3  C3  UNL     1      21.356   0.025  53.438  1.00  0.00     0.214 A 
HETATM    4  N1  UNL     1      20.121   0.007  52.885  1.00  0.00    -0.023 NA
HETATM    5  O2  UNL     1      20.577   1.202  53.572  1.00  0.00    -0.239 OA
HETATM    6  C4  UNL     1      21.615  -0.744  54.675  1.00  0.00     0.035 A 
HETATM    7  C5  UNL     1      22.668  -1.270  55.277  1.00  0.00     0.000 A 
HETATM    8  C6  UNL     1      23.933  -1.054  54.559  1.00  0.00    -0.004 A 
HETATM    9  C7  UNL     1      23.754  -0.368  53.445  1.00  0.00    -0.017 A 
BRANCH   4  10
HETATM   10  O1  UNL     1      19.108  -0.517  53.599  1.00  0.00    -0.276 OA
BRANCH  10  11
HETATM   11  C2  UNL     1      18.169  -1.195  52.857  1.00  0.00     0.192 C 
HETATM   12  C1  UNL     1      17.806  -2.483  53.562  1.00  0.00     0.035 C 
ENDBRANCH  10  11
ENDBRANCH   4  10
ENDBRANCH   1   2
BRANCH   1  13
HETATM   13  C10 UNL     1      24.229   2.184  52.781  1.00  0.00    -0.029 C 
HETATM   14  C11 UNL     1      25.093   2.754  51.974  1.00  0.00    -0.025 C 
BRANCH  14  15
HETATM   15  C12 UNL     1      24.989   3.076  50.530  1.00  0.00     0.086 C 
BRANCH  15  16
HETATM   16  C13 UNL     1      25.202   4.525  50.269  1.00  0.00     0.058 A 
HETATM   17  C14 UNL     1      26.116   4.874  49.295  1.00  0.00     0.048 A 
HETATM   18  C15 UNL     1      26.384   6.201  48.979  1.00  0.00     0.138 A 
HETATM   19  N2  UNL     1      25.723   7.176  49.652  1.00  0.00    -0.075 NA
HETATM   20  C16 UNL     1      24.822   6.824  50.614  1.00  0.00     0.720 A 
HETATM   21  N4  UNL     1      24.575   5.535  50.907  1.00  0.00    -0.068 NA
BRANCH  20  22
HETATM   22  N3  UNL     1      24.099   7.824  51.353  1.00  0.00    -0.231 N 
HETATM   23  H19 UNL     1      24.062   7.597  52.353  1.00  0.00     0.174 HD
HETATM   24  H20 UNL     1      23.617   8.710  51.089  1.00  0.00     0.174 HD
ENDBRANCH  20  22
ENDBRANCH  15  16
ENDBRANCH  14  15
ENDBRANCH   1  13
TORSDOF 7
ENDMDL
MODEL 9
REMARK VINA RESULT:      -6.9      4.080      6.540
REMARK  7 active torsions:
REMARK  status: ('A' for Active; 'I' for Inactive)
REMARK    1  A    between atoms: C2_2  and  O1_3 
REMARK    2  A    between atoms: O1_3  and  N1_4 
REMARK    3  A    between atoms: C8_11  and  C9_12 
REMARK    4  A    between atoms: C9_12  and  C10_13 
REMARK    5  A    between atoms: C11_14  and  C12_15 
REMARK    6  A    between atoms: C12_15  and  C13_16 
REMARK    7  A    between atoms: C16_20  and  N3_21 
ROOT
HETATM    1  C9  UNL     1      24.701   2.388  51.329  1.00  0.00     0.040 C 
ENDROOT
BRANCH   1   2
HETATM    2  C8  UNL     1      24.556   1.820  52.724  1.00  0.00     0.072 A 
HETATM    3  C3  UNL     1      25.467   0.668  52.975  1.00  0.00     0.214 A 
HETATM    4  N1  UNL     1      26.786   0.751  53.266  1.00  0.00    -0.023 NA
HETATM    5  O2  UNL     1      26.374   0.433  51.911  1.00  0.00    -0.239 OA
HETATM    6  C4  UNL     1      24.684  -0.494  53.449  1.00  0.00     0.035 A 
HETATM    7  C5  UNL     1      23.415  -0.758  53.702  1.00  0.00     0.000 A 
HETATM    8  C6  UNL     1      22.510   0.376  53.459  1.00  0.00    -0.004 A 
HETATM    9  C7  UNL     1      23.164   1.441  53.030  1.00  0.00    -0.017 A 
BRANCH   4  10
HETATM   10  O1  UNL     1      27.398  -0.334  53.776  1.00  0.00    -0.276 OA
BRANCH  10  11
HETATM   11  C2  UNL     1      28.592  -0.080  54.409  1.00  0.00     0.192 C 
HETATM   12  C1  UNL     1      29.704  -0.820  53.701  1.00  0.00     0.035 C 
ENDBRANCH  10  11
ENDBRANCH   4  10
ENDBRANCH   1   2
BRANCH   1  13
HETATM   13  C10 UNL     1      23.432   2.514  50.592  1.00  0.00    -0.029 C 
HETATM   14  C11 UNL     1      23.222   3.296  49.560  1.00  0.00    -0.025 C 
BRANCH  14  15
HETATM   15  C12 UNL     1      24.138   4.231  48.864  1.00  0.00     0.086 C 
BRANCH  15  16
HETATM   16  C13 UNL     1      24.205   5.552  49.546  1.00  0.00     0.058 A 
HETATM   17  C14 UNL     1      23.020   6.114  49.977  1.00  0.00     0.048 A 
HETATM   18  C15 UNL     1      22.980   7.343  50.624  1.00  0.00     0.138 A 
HETATM   19  N2  UNL     1      24.146   8.004  50.836  1.00  0.00    -0.075 NA
HETATM   20  C16 UNL     1      25.314   7.443  50.409  1.00  0.00     0.720 A 
HETATM   21  N4  UNL     1      25.334   6.253  49.784  1.00  0.00    -0.068 NA
BRANCH  20  22
HETATM   22  N3  UNL     1      26.573   8.108  50.612  1.00  0.00    -0.231 N 
HETATM   23  H19 UNL     1      27.352   7.441  50.626  1.00  0.00     0.174 HD
HETATM   24  H20 UNL     1      26.850   9.105  50.744  1.00  0.00     0.174 HD
ENDBRANCH  20  22
ENDBRANCH  15  16
ENDBRANCH  14  15
ENDBRANCH   1  13
TORSDOF 7
ENDMDL
