MODEL 1
REMARK VINA RESULT:      -8.6      0.000      0.000
REMARK  5 active torsions:
REMARK  status: ('A' for Active; 'I' for Inactive)
REMARK    1  A    between atoms: C6_6  and  N1_7 
REMARK       I    between atoms: N1_7  and  C7_8 
REMARK    2  A    between atoms: C7_8  and  C8_10 
REMARK    3  A    between atoms: C8_10  and  C9_11 
REMARK    4  A    between atoms: C9_11  and  C10_12 
REMARK    5  A    between atoms: C16_19  and  C17_20 
ROOT
HETATM    1  C1  UNL     1      23.534   6.039  48.885  1.00  0.00     0.117 A 
HETATM    2  C2  UNL     1      24.476   5.165  49.672  1.00  0.00     0.209 A 
HETATM    3  C3  UNL     1      26.106   4.917  49.606  1.00  0.00     0.112 A 
HETATM    4  C4  UNL     1      26.133   3.810  50.354  1.00  0.00     0.010 C 
HETATM    5  C5  UNL     1      26.315   2.613  51.139  1.00  0.00     0.024 C 
HETATM    6  C6  UNL     1      25.457   1.808  51.798  1.00  0.00     0.019 C 
HETATM    7  C12 UNL     1      23.964   1.915  51.916  1.00  0.00     0.063 C 
HETATM    8  C13 UNL     1      23.359   1.792  50.569  1.00  0.00    -0.017 C 
HETATM    9  C14 UNL     1      22.162   2.353  50.332  1.00  0.00     0.009 C 
HETATM   10  C15 UNL     1      22.423   3.784  50.273  1.00  0.00     0.265 C 
HETATM   11  N2  UNL     1      23.694   3.931  49.361  1.00  0.00    -0.009 N 
HETATM   12  C16 UNL     1      24.342   5.186  49.983  1.00  0.00     0.263 A 
HETATM   13  C17 UNL     1      25.312   5.809  48.981  1.00  0.00     0.169 A 
HETATM   14  C18 UNL     1      26.368   6.452  48.256  1.00  0.00     0.238 A 
HETATM   15  O2  UNL     1      26.174   7.369  47.510  1.00  0.00    -0.272 OA
HETATM   16  N3  UNL     1      27.279   5.555  48.868  1.00  0.00    -0.343 N 
HETATM   17  O3  UNL     1      24.334   6.018  51.309  1.00  0.00    -0.216 OA
HETATM   18  N4  UNL     1      23.432   5.245  52.182  1.00  0.00    -0.138 NA
HETATM   19  C19 UNL     1      23.075   4.216  51.552  1.00  0.00     0.075 C 
HETATM   20  C20 UNL     1      23.599   3.246  52.516  1.00  0.00     0.074 C 
HETATM   21  H19 UNL     1      24.186   3.515  48.573  1.00  0.00     0.286 HD
HETATM   22  H20 UNL     1      28.277   5.450  48.776  1.00  0.00     0.163 HD
ENDROOT
BRANCH   6  23
HETATM   23  N1  UNL     1      25.892   0.669  52.514  1.00  0.00    -0.330 N 
HETATM   24  C7  UNL     1      26.557   0.815  53.744  1.00  0.00     0.221 C 
HETATM   25  O1  UNL     1      26.564   2.101  53.887  1.00  0.00    -0.273 OA
HETATM   26  H5  UNL     1      25.884  -0.385  52.385  1.00  0.00     0.168 HD
BRANCH  24  27
HETATM   27  C8  UNL     1      27.226   0.118  54.854  1.00  0.00     0.103 C 
BRANCH  27  28
HETATM   28  C9  UNL     1      28.703   0.237  54.920  1.00  0.00     0.009 C 
BRANCH  28  29
HETATM   29  C10 UNL     1      29.401  -0.031  53.633  1.00  0.00    -0.004 C 
HETATM   30  C11 UNL     1      29.413  -1.547  53.420  1.00  0.00     0.005 C 
ENDBRANCH  28  29
ENDBRANCH  27  28
ENDBRANCH  24  27
ENDBRANCH   6  23
TORSDOF 5
ENDMDL
MODEL 2
REMARK VINA RESULT:      -8.4      3.236      5.556
REMARK  5 active torsions:
REMARK  status: ('A' for Active; 'I' for Inactive)
REMARK    1  A    between atoms: C6_6  and  N1_7 
REMARK       I    between atoms: N1_7  and  C7_8 
REMARK    2  A    between atoms: C7_8  and  C8_10 
REMARK    3  A    between atoms: C8_10  and  C9_11 
REMARK    4  A    between atoms: C9_11  and  C10_12 
REMARK    5  A    between atoms: C16_19  and  C17_20 
ROOT
HETATM    1  C1  UNL     1      19.264   1.409  51.546  1.00  0.00     0.117 A 
HETATM    2  C2  UNL     1      20.652   1.147  52.072  1.00  0.00     0.209 A 
HETATM    3  C3  UNL     1      21.244   0.153  53.248  1.00  0.00     0.112 A 
HETATM    4  C4  UNL     1      22.455   0.712  53.340  1.00  0.00     0.010 C 
HETATM    5  C5  UNL     1      23.793   1.210  53.548  1.00  0.00     0.024 C 
HETATM    6  C6  UNL     1      24.491   2.223  52.997  1.00  0.00     0.019 C 
HETATM    7  C12 UNL     1      24.061   3.202  51.943  1.00  0.00     0.063 C 
HETATM    8  C13 UNL     1      22.921   3.999  52.453  1.00  0.00    -0.017 C 
HETATM    9  C14 UNL     1      22.053   4.538  51.583  1.00  0.00     0.009 C 
HETATM   10  C15 UNL     1      21.268   3.414  51.090  1.00  0.00     0.265 C 
HETATM   11  N2  UNL     1      20.881   2.592  52.371  1.00  0.00    -0.009 N 
HETATM   12  C16 UNL     1      20.835   1.165  51.786  1.00  0.00     0.263 A 
HETATM   13  C17 UNL     1      20.014   0.263  52.707  1.00  0.00     0.169 A 
HETATM   14  C18 UNL     1      19.419  -0.771  53.500  1.00  0.00     0.238 A 
HETATM   15  O2  UNL     1      18.268  -1.085  53.395  1.00  0.00    -0.272 OA
HETATM   16  N3  UNL     1      20.678  -0.960  54.125  1.00  0.00    -0.343 N 
HETATM   17  O3  UNL     1      21.365   0.343  50.565  1.00  0.00    -0.216 OA
HETATM   18  N4  UNL     1      22.195   1.322  49.839  1.00  0.00    -0.138 NA
HETATM   19  C19 UNL     1      22.195   2.393  50.501  1.00  0.00     0.075 C 
HETATM   20  C20 UNL     1      23.644   2.458  50.703  1.00  0.00     0.074 C 
HETATM   21  H19 UNL     1      20.671   2.679  53.364  1.00  0.00     0.286 HD
HETATM   22  H20 UNL     1      20.974  -1.589  54.854  1.00  0.00     0.163 HD
ENDROOT
BRANCH   6  23
HETATM   23  N1  UNL     1      25.820   2.517  53.378  1.00  0.00    -0.330 N 
HETATM   24  C7  UNL     1      26.864   1.637  53.044  1.00  0.00     0.221 C 
HETATM   25  O1  UNL     1      26.232   0.715  52.393  1.00  0.00    -0.273 OA
HETATM   26  H5  UNL     1      26.330   3.278  53.916  1.00  0.00     0.168 HD
BRANCH  24  27
HETATM   27  C8  UNL     1      28.306   1.364  53.156  1.00  0.00     0.103 C 
BRANCH  27  28
HETATM   28  C9  UNL     1      28.717   0.377  54.185  1.00  0.00     0.009 C 
BRANCH  28  29
HETATM   29  C10 UNL     1      29.794  -0.554  53.750  1.00  0.00    -0.004 C 
HETATM   30  C11 UNL     1      29.123  -1.814  53.197  1.00  0.00     0.005 C 
ENDBRANCH  28  29
ENDBRANCH  27  28
ENDBRANCH  24  27
ENDBRANCH   6  23
TORSDOF 5
ENDMDL
MODEL 3
REMARK VINA RESULT:      -8.4      3.086      6.475
REMARK  5 active torsions:
REMARK  status: ('A' for Active; 'I' for Inactive)
REMARK    1  A    between atoms: C6_6  and  N1_7 
REMARK       I    between atoms: N1_7  and  C7_8 
REMARK    2  A    between atoms: C7_8  and  C8_10 
REMARK    3  A    between atoms: C8_10  and  C9_11 
REMARK    4  A    between atoms: C9_11  and  C10_12 
REMARK    5  A    between atoms: C16_19  and  C17_20 
ROOT
HETATM    1  C1  UNL     1      20.205   0.092  53.141  1.00  0.00     0.117 A 
HETATM    2  C2  UNL     1      21.545   0.653  52.737  1.00  0.00     0.209 A 
HETATM    3  C3  UNL     1      23.081   0.411  53.289  1.00  0.00     0.112 A 
HETATM    4  C4  UNL     1      23.639   1.463  52.682  1.00  0.00     0.010 C 
HETATM    5  C5  UNL     1      24.375   2.555  52.091  1.00  0.00     0.024 C 
HETATM    6  C6  UNL     1      24.014   3.576  51.289  1.00  0.00     0.019 C 
HETATM    7  C12 UNL     1      22.658   3.912  50.740  1.00  0.00     0.063 C 
HETATM    8  C13 UNL     1      21.737   4.206  51.862  1.00  0.00    -0.017 C 
HETATM    9  C14 UNL     1      20.418   4.020  51.696  1.00  0.00     0.009 C 
HETATM   10  C15 UNL     1      20.237   2.575  51.700  1.00  0.00     0.265 C 
HETATM   11  N2  UNL     1      21.082   2.061  52.920  1.00  0.00    -0.009 N 
HETATM   12  C16 UNL     1      21.510   0.672  52.400  1.00  0.00     0.263 A 
HETATM   13  C17 UNL     1      21.920  -0.209  53.579  1.00  0.00     0.169 A 
HETATM   14  C18 UNL     1      22.486  -1.134  54.516  1.00  0.00     0.238 A 
HETATM   15  O2  UNL     1      21.830  -1.956  55.090  1.00  0.00    -0.272 OA
HETATM   16  N3  UNL     1      23.752  -0.544  54.272  1.00  0.00    -0.343 N 
HETATM   17  O3  UNL     1      21.667  -0.119  51.060  1.00  0.00    -0.216 OA
HETATM   18  N4  UNL     1      21.322   0.885  50.037  1.00  0.00    -0.138 NA
HETATM   19  C19 UNL     1      21.095   1.973  50.627  1.00  0.00     0.075 C 
HETATM   20  C20 UNL     1      22.133   2.748  49.944  1.00  0.00     0.074 C 
HETATM   21  H19 UNL     1      21.411   2.314  53.850  1.00  0.00     0.286 HD
HETATM   22  H20 UNL     1      24.664  -0.735  54.655  1.00  0.00     0.163 HD
ENDROOT
BRANCH   6  23
HETATM   23  N1  UNL     1      24.944   4.539  50.832  1.00  0.00    -0.330 N 
HETATM   24  C7  UNL     1      25.853   4.217  49.809  1.00  0.00     0.221 C 
HETATM   25  O1  UNL     1      25.525   2.995  49.541  1.00  0.00    -0.273 OA
HETATM   26  H5  UNL     1      25.208   5.542  51.061  1.00  0.00     0.168 HD
BRANCH  24  27
HETATM   27  C8  UNL     1      26.978   4.695  48.989  1.00  0.00     0.103 C 
BRANCH  27  28
HETATM   28  C9  UNL     1      26.962   6.129  48.610  1.00  0.00     0.009 C 
BRANCH  28  29
HETATM   29  C10 UNL     1      28.253   6.639  48.072  1.00  0.00    -0.004 C 
HETATM   30  C11 UNL     1      29.275   5.502  48.165  1.00  0.00     0.005 C 
ENDBRANCH  28  29
ENDBRANCH  27  28
ENDBRANCH  24  27
ENDBRANCH   6  23
TORSDOF 5
ENDMDL
MODEL 4
REMARK VINA RESULT:      -8.2      3.495      6.742
REMARK  5 active torsions:
REMARK  status: ('A' for Active; 'I' for Inactive)
REMARK    1  A    between atoms: C6_6  and  N1_7 
REMARK       I    between atoms: N1_7  and  C7_8 
REMARK    2  A    between atoms: C7_8  and  C8_10 
REMARK    3  A    between atoms: C8_10  and  C9_11 
REMARK    4  A    between atoms: C9_11  and  C10_12 
REMARK    5  A    between atoms: C16_19  and  C17_20 
ROOT
HETATM    1  C1  UNL     1      26.841   1.626  52.083  1.00  0.00     0.117 A 
HETATM    2  C2  UNL     1      25.486   1.317  52.667  1.00  0.00     0.209 A 
HETATM    3  C3  UNL     1      24.921   0.093  53.619  1.00  0.00     0.112 A 
HETATM    4  C4  UNL     1      23.619   0.331  53.434  1.00  0.00     0.010 C 
HETATM    5  C5  UNL     1      22.186   0.468  53.329  1.00  0.00     0.024 C 
HETATM    6  C6  UNL     1      21.394   1.324  52.653  1.00  0.00     0.019 C 
HETATM    7  C12 UNL     1      21.784   2.456  51.747  1.00  0.00     0.063 C 
HETATM    8  C13 UNL     1      22.530   1.918  50.587  1.00  0.00    -0.017 C 
HETATM    9  C14 UNL     1      23.404   2.708  49.943  1.00  0.00     0.009 C 
HETATM   10  C15 UNL     1      24.544   2.821  50.842  1.00  0.00     0.265 C 
HETATM   11  N2  UNL     1      24.829   1.354  51.327  1.00  0.00    -0.009 N 
HETATM   12  C16 UNL     1      25.375   1.628  52.744  1.00  0.00     0.263 A 
HETATM   13  C17 UNL     1      26.170   0.415  53.227  1.00  0.00     0.169 A 
HETATM   14  C18 UNL     1      26.816  -0.660  53.919  1.00  0.00     0.238 A 
HETATM   15  O2  UNL     1      28.002  -0.826  53.891  1.00  0.00    -0.272 OA
HETATM   16  N3  UNL     1      25.542  -1.074  54.383  1.00  0.00    -0.343 N 
HETATM   17  O3  UNL     1      25.369   2.738  53.847  1.00  0.00    -0.216 OA
HETATM   18  N4  UNL     1      24.501   3.779  53.267  1.00  0.00    -0.138 NA
HETATM   19  C19 UNL     1      24.073   3.353  52.162  1.00  0.00     0.075 C 
HETATM   20  C20 UNL     1      22.650   3.430  52.500  1.00  0.00     0.074 C 
HETATM   21  H19 UNL     1      24.777   0.376  51.046  1.00  0.00     0.286 HD
HETATM   22  H20 UNL     1      25.261  -1.847  54.963  1.00  0.00     0.163 HD
ENDROOT
BRANCH   6  23
HETATM   23  N1  UNL     1      19.983   1.253  52.715  1.00  0.00    -0.330 N 
HETATM   24  C7  UNL     1      19.285   0.331  51.914  1.00  0.00     0.221 C 
HETATM   25  O1  UNL     1      20.251  -0.264  51.294  1.00  0.00    -0.273 OA
HETATM   26  H5  UNL     1      19.196   1.749  53.227  1.00  0.00     0.168 HD
BRANCH  24  27
HETATM   27  C8  UNL     1      17.961  -0.174  51.518  1.00  0.00     0.103 C 
BRANCH  27  28
HETATM   28  C9  UNL     1      17.211  -0.945  52.540  1.00  0.00     0.009 C 
BRANCH  28  29
HETATM   29  C10 UNL     1      18.065  -1.753  53.453  1.00  0.00    -0.004 C 
HETATM   30  C11 UNL     1      17.439  -3.146  53.560  1.00  0.00     0.005 C 
ENDBRANCH  28  29
ENDBRANCH  27  28
ENDBRANCH  24  27
ENDBRANCH   6  23
TORSDOF 5
ENDMDL
MODEL 5
REMARK VINA RESULT:      -8.2      2.831      3.391
REMARK  5 active torsions:
REMARK  status: ('A' for Active; 'I' for Inactive)
REMARK    1  A    between atoms: C6_6  and  N1_7 
REMARK       I    between atoms: N1_7  and  C7_8 
REMARK    2  A    between atoms: C7_8  and  C8_10 
REMARK    3  A    between atoms: C8_10  and  C9_11 
REMARK    4  A    between atoms: C9_11  and  C10_12 
REMARK    5  A    between atoms: C16_19  and  C17_20 
ROOT
HETATM    1  C1  UNL     1      19.948   4.734  49.924  1.00  0.00     0.117 A 
HETATM    2  C2  UNL     1      21.002   4.318  50.919  1.00  0.00     0.209 A 
HETATM    3  C3  UNL     1      22.267   5.112  51.620  1.00  0.00     0.112 A 
HETATM    4  C4  UNL     1      22.894   4.032  52.094  1.00  0.00     0.010 C 
HETATM    5  C5  UNL     1      23.679   2.962  52.663  1.00  0.00     0.024 C 
HETATM    6  C6  UNL     1      23.530   1.623  52.677  1.00  0.00     0.019 C 
HETATM    7  C12 UNL     1      22.443   0.787  52.064  1.00  0.00     0.063 C 
HETATM    8  C13 UNL     1      22.458   0.971  50.594  1.00  0.00    -0.017 C 
HETATM    9  C14 UNL     1      21.328   0.776  49.896  1.00  0.00     0.009 C 
HETATM   10  C15 UNL     1      20.491   1.928  50.204  1.00  0.00     0.265 C 
HETATM   11  N2  UNL     1      21.442   3.171  50.069  1.00  0.00    -0.009 N 
HETATM   12  C16 UNL     1      20.823   4.114  51.123  1.00  0.00     0.263 A 
HETATM   13  C17 UNL     1      21.259   5.551  50.839  1.00  0.00     0.169 A 
HETATM   14  C18 UNL     1      21.669   6.924  50.839  1.00  0.00     0.238 A 
HETATM   15  O2  UNL     1      21.067   7.778  50.255  1.00  0.00    -0.272 OA
HETATM   16  N3  UNL     1      22.761   6.555  51.665  1.00  0.00    -0.343 N 
HETATM   17  O3  UNL     1      19.905   4.072  52.389  1.00  0.00    -0.216 OA
HETATM   18  N4  UNL     1      19.653   2.631  52.571  1.00  0.00    -0.138 NA
HETATM   19  C19 UNL     1      20.304   2.012  51.689  1.00  0.00     0.075 C 
HETATM   20  C20 UNL     1      21.109   1.211  52.615  1.00  0.00     0.074 C 
HETATM   21  H19 UNL     1      22.253   3.528  49.567  1.00  0.00     0.286 HD
HETATM   22  H20 UNL     1      23.515   7.096  52.057  1.00  0.00     0.163 HD
ENDROOT
BRANCH   6  23
HETATM   23  N1  UNL     1      24.457   0.769  53.318  1.00  0.00    -0.330 N 
HETATM   24  C7  UNL     1      25.713   0.521  52.736  1.00  0.00     0.221 C 
HETATM   25  O1  UNL     1      25.654   1.245  51.666  1.00  0.00    -0.273 OA
HETATM   26  H5  UNL     1      24.494   0.175  54.198  1.00  0.00     0.168 HD
BRANCH  24  27
HETATM   27  C8  UNL     1      26.983  -0.213  52.854  1.00  0.00     0.103 C 
BRANCH  27  28
HETATM   28  C9  UNL     1      27.802   0.068  54.059  1.00  0.00     0.009 C 
BRANCH  28  29
HETATM   29  C10 UNL     1      29.272   0.024  53.828  1.00  0.00    -0.004 C 
HETATM   30  C11 UNL     1      29.633  -1.405  53.413  1.00  0.00     0.005 C 
ENDBRANCH  28  29
ENDBRANCH  27  28
ENDBRANCH  24  27
ENDBRANCH   6  23
TORSDOF 5
ENDMDL
MODEL 6
REMARK VINA RESULT:      -8.1      4.859      7.663
REMARK  5 active torsions:
REMARK  status: ('A' for Active; 'I' for Inactive)
REMARK    1  A    between atoms: C6_6  and  N1_7 
REMARK       I    between atoms: N1_7  and  C7_8 
REMARK    2  A    between atoms: C7_8  and  C8_10 
REMARK    3  A    between atoms: C8_10  and  C9_11 
REMARK    4  A    between atoms: C9_11  and  C10_12 
REMARK    5  A    between atoms: C16_19  and  C17_20 
ROOT
HETATM    1  C1  UNL     1      26.117   8.112  49.377  1.00  0.00     0.117 A 
HETATM    2  C2  UNL     1      27.207   7.293  48.734  1.00  0.00     0.209 A 
HETATM    3  C3  UNL     1      27.484   5.670  48.627  1.00  0.00     0.112 A 
HETATM    4  C4  UNL     1      28.755   5.749  48.221  1.00  0.00     0.010 C 
HETATM    5  C5  UNL     1      30.127   5.679  47.780  1.00  0.00     0.024 C 
HETATM    6  C6  UNL     1      31.051   6.620  47.503  1.00  0.00     0.019 C 
HETATM    7  C12 UNL     1      30.928   8.115  47.580  1.00  0.00     0.063 C 
HETATM    8  C13 UNL     1      30.655   8.510  48.981  1.00  0.00    -0.017 C 
HETATM    9  C14 UNL     1      30.009   9.661  49.226  1.00  0.00     0.009 C 
HETATM   10  C15 UNL     1      28.626   9.404  48.847  1.00  0.00     0.265 C 
HETATM   11  N2  UNL     1      28.279   8.012  49.486  1.00  0.00    -0.009 N 
HETATM   12  C16 UNL     1      27.267   7.473  48.452  1.00  0.00     0.263 A 
HETATM   13  C17 UNL     1      26.427   6.367  49.090  1.00  0.00     0.169 A 
HETATM   14  C18 UNL     1      25.647   5.219  49.446  1.00  0.00     0.238 A 
HETATM   15  O2  UNL     1      24.554   5.304  49.927  1.00  0.00    -0.272 OA
HETATM   16  N3  UNL     1      26.709   4.404  48.980  1.00  0.00    -0.343 N 
HETATM   17  O3  UNL     1      26.833   7.685  46.964  1.00  0.00    -0.216 OA
HETATM   18  N4  UNL     1      27.783   8.703  46.481  1.00  0.00    -0.138 NA
HETATM   19  C19 UNL     1      28.587   8.955  47.417  1.00  0.00     0.075 C 
HETATM   20  C20 UNL     1      29.802   8.575  46.695  1.00  0.00     0.074 C 
HETATM   21  H19 UNL     1      28.480   7.404  50.278  1.00  0.00     0.286 HD
HETATM   22  H20 UNL     1      26.820   3.403  48.951  1.00  0.00     0.163 HD
ENDROOT
BRANCH   6  23
HETATM   23  N1  UNL     1      32.358   6.291  47.076  1.00  0.00    -0.330 N 
HETATM   24  C7  UNL     1      33.270   5.706  47.973  1.00  0.00     0.221 C 
HETATM   25  O1  UNL     1      32.559   5.615  49.049  1.00  0.00    -0.273 OA
HETATM   26  H5  UNL     1      32.935   6.372  46.188  1.00  0.00     0.168 HD
BRANCH  24  27
HETATM   27  C8  UNL     1      34.642   5.207  48.157  1.00  0.00     0.103 C 
BRANCH  27  28
HETATM   28  C9  UNL     1      34.850   3.750  47.967  1.00  0.00     0.009 C 
BRANCH  28  29
HETATM   29  C10 UNL     1      34.261   3.201  46.716  1.00  0.00    -0.004 C 
HETATM   30  C11 UNL     1      35.178   3.601  45.557  1.00  0.00     0.005 C 
ENDBRANCH  28  29
ENDBRANCH  27  28
ENDBRANCH  24  27
ENDBRANCH   6  23
TORSDOF 5
ENDMDL
MODEL 7
REMARK VINA RESULT:      -7.9      1.674      2.433
REMARK  5 active torsions:
REMARK  status: ('A' for Active; 'I' for Inactive)
REMARK    1  A    between atoms: C6_6  and  N1_7 
REMARK       I    between atoms: N1_7  and  C7_8 
REMARK    2  A    between atoms: C7_8  and  C8_10 
REMARK    3  A    between atoms: C8_10  and  C9_11 
REMARK    4  A    between atoms: C9_11  and  C10_12 
REMARK    5  A    between atoms: C16_19  and  C17_20 
ROOT
HETATM    1  C1  UNL     1      25.525   7.720  48.173  1.00  0.00     0.117 A 
HETATM    2  C2  UNL     1      25.647   6.416  48.919  1.00  0.00     0.209 A 
HETATM    3  C3  UNL     1      26.865   5.314  49.072  1.00  0.00     0.112 A 
HETATM    4  C4  UNL     1      26.127   4.326  49.586  1.00  0.00     0.010 C 
HETATM    5  C5  UNL     1      25.459   3.174  50.144  1.00  0.00     0.024 C 
HETATM    6  C6  UNL     1      24.178   2.933  50.487  1.00  0.00     0.019 C 
HETATM    7  C12 UNL     1      22.986   3.839  50.378  1.00  0.00     0.063 C 
HETATM    8  C13 UNL     1      22.753   4.169  48.953  1.00  0.00    -0.017 C 
HETATM    9  C14 UNL     1      22.126   5.313  48.637  1.00  0.00     0.009 C 
HETATM   10  C15 UNL     1      23.102   6.362  48.899  1.00  0.00     0.265 C 
HETATM   11  N2  UNL     1      24.438   5.848  48.252  1.00  0.00    -0.009 N 
HETATM   12  C16 UNL     1      25.473   6.485  49.202  1.00  0.00     0.263 A 
HETATM   13  C17 UNL     1      26.835   6.539  48.510  1.00  0.00     0.169 A 
HETATM   14  C18 UNL     1      28.209   6.541  48.105  1.00  0.00     0.238 A 
HETATM   15  O2  UNL     1      28.711   7.464  47.530  1.00  0.00    -0.272 OA
HETATM   16  N3  UNL     1      28.337   5.249  48.672  1.00  0.00    -0.343 N 
HETATM   17  O3  UNL     1      25.582   7.083  50.644  1.00  0.00    -0.216 OA
HETATM   18  N4  UNL     1      24.229   6.877  51.193  1.00  0.00    -0.138 NA
HETATM   19  C19 UNL     1      23.550   6.266  50.326  1.00  0.00     0.075 C 
HETATM   20  C20 UNL     1      23.238   5.101  51.156  1.00  0.00     0.074 C 
HETATM   21  H19 UNL     1      24.812   5.287  47.489  1.00  0.00     0.286 HD
HETATM   22  H20 UNL     1      29.119   4.616  48.725  1.00  0.00     0.163 HD
ENDROOT
BRANCH   6  23
HETATM   23  N1  UNL     1      23.764   1.695  51.029  1.00  0.00    -0.330 N 
HETATM   24  C7  UNL     1      24.121   1.341  52.342  1.00  0.00     0.221 C 
HETATM   25  O1  UNL     1      24.789   2.382  52.722  1.00  0.00    -0.273 OA
HETATM   26  H5  UNL     1      23.216   0.843  50.707  1.00  0.00     0.168 HD
BRANCH  24  27
HETATM   27  C8  UNL     1      24.051   0.303  53.383  1.00  0.00     0.103 C 
BRANCH  27  28
HETATM   28  C9  UNL     1      25.345  -0.230  53.877  1.00  0.00     0.009 C 
BRANCH  28  29
HETATM   29  C10 UNL     1      26.149  -0.947  52.850  1.00  0.00    -0.004 C 
HETATM   30  C11 UNL     1      27.585  -0.424  52.939  1.00  0.00     0.005 C 
ENDBRANCH  28  29
ENDBRANCH  27  28
ENDBRANCH  24  27
ENDBRANCH   6  23
TORSDOF 5
ENDMDL
MODEL 8
REMARK VINA RESULT:      -7.7      3.545      5.781
REMARK  5 active torsions:
REMARK  status: ('A' for Active; 'I' for Inactive)
REMARK    1  A    between atoms: C6_6  and  N1_7 
REMARK       I    between atoms: N1_7  and  C7_8 
REMARK    2  A    between atoms: C7_8  and  C8_10 
REMARK    3  A    between atoms: C8_10  and  C9_11 
REMARK    4  A    between atoms: C9_11  and  C10_12 
REMARK    5  A    between atoms: C16_19  and  C17_20 
ROOT
HETATM    1  C1  UNL     1      24.945   5.481  50.477  1.00  0.00     0.117 A 
HETATM    2  C2  UNL     1      23.599   4.893  50.816  1.00  0.00     0.209 A 
HETATM    3  C3  UNL     1      22.145   5.562  51.218  1.00  0.00     0.112 A 
HETATM    4  C4  UNL     1      21.574   4.444  51.676  1.00  0.00     0.010 C 
HETATM    5  C5  UNL     1      20.831   3.323  52.200  1.00  0.00     0.024 C 
HETATM    6  C6  UNL     1      21.136   2.022  52.376  1.00  0.00     0.019 C 
HETATM    7  C12 UNL     1      22.419   1.304  52.072  1.00  0.00     0.063 C 
HETATM    8  C13 UNL     1      23.507   1.878  52.896  1.00  0.00    -0.017 C 
HETATM    9  C14 UNL     1      24.775   1.795  52.462  1.00  0.00     0.009 C 
HETATM   10  C15 UNL     1      24.863   2.754  51.370  1.00  0.00     0.265 C 
HETATM   11  N2  UNL     1      24.171   4.055  51.912  1.00  0.00    -0.009 N 
HETATM   12  C16 UNL     1      23.587   4.629  50.604  1.00  0.00     0.263 A 
HETATM   13  C17 UNL     1      23.295   6.118  50.785  1.00  0.00     0.169 A 
HETATM   14  C18 UNL     1      22.811   7.466  50.797  1.00  0.00     0.238 A 
HETATM   15  O2  UNL     1      23.490   8.399  50.474  1.00  0.00    -0.272 OA
HETATM   16  N3  UNL     1      21.564   6.972  51.254  1.00  0.00    -0.343 N 
HETATM   17  O3  UNL     1      23.191   4.178  49.159  1.00  0.00    -0.216 OA
HETATM   18  N4  UNL     1      23.448   2.726  49.180  1.00  0.00    -0.138 NA
HETATM   19  C19 UNL     1      23.826   2.419  50.341  1.00  0.00     0.075 C 
HETATM   20  C20 UNL     1      22.751   1.462  50.612  1.00  0.00     0.074 C 
HETATM   21  H19 UNL     1      23.994   4.595  52.758  1.00  0.00     0.286 HD
HETATM   22  H20 UNL     1      20.705   7.443  51.493  1.00  0.00     0.163 HD
ENDROOT
BRANCH   6  23
HETATM   23  N1  UNL     1      20.214   1.099  52.920  1.00  0.00    -0.330 N 
HETATM   24  C7  UNL     1      19.291   0.444  52.085  1.00  0.00     0.221 C 
HETATM   25  O1  UNL     1      19.603   0.920  50.924  1.00  0.00    -0.273 OA
HETATM   26  H5  UNL     1      19.963   0.716  53.878  1.00  0.00     0.168 HD
BRANCH  24  27
HETATM   27  C8  UNL     1      18.164  -0.501  52.026  1.00  0.00     0.103 C 
BRANCH  27  28
HETATM   28  C9  UNL     1      17.701  -1.065  53.317  1.00  0.00     0.009 C 
BRANCH  28  29
HETATM   29  C10 UNL     1      18.294  -2.387  53.660  1.00  0.00    -0.004 C 
HETATM   30  C11 UNL     1      17.196  -3.442  53.498  1.00  0.00     0.005 C 
ENDBRANCH  28  29
ENDBRANCH  27  28
ENDBRANCH  24  27
ENDBRANCH   6  23
TORSDOF 5
ENDMDL
MODEL 9
REMARK VINA RESULT:      -7.5      8.144     11.134
REMARK  5 active torsions:
REMARK  status: ('A' for Active; 'I' for Inactive)
REMARK    1  A    between atoms: C6_6  and  N1_7 
REMARK       I    between atoms: N1_7  and  C7_8 
REMARK    2  A    between atoms: C7_8  and  C8_10 
REMARK    3  A    between atoms: C8_10  and  C9_11 
REMARK    4  A    between atoms: C9_11  and  C10_12 
REMARK    5  A    between atoms: C16_19  and  C17_20 
ROOT
HETATM    1  C1  UNL     1      31.805   6.129  49.537  1.00  0.00     0.117 A 
HETATM    2  C2  UNL     1      32.531   6.402  48.244  1.00  0.00     0.209 A 
HETATM    3  C3  UNL     1      32.600   7.714  47.245  1.00  0.00     0.112 A 
HETATM    4  C4  UNL     1      33.148   7.091  46.197  1.00  0.00     0.010 C 
HETATM    5  C5  UNL     1      33.736   6.556  44.993  1.00  0.00     0.024 C 
HETATM    6  C6  UNL     1      34.153   5.322  44.645  1.00  0.00     0.019 C 
HETATM    7  C12 UNL     1      34.125   4.055  45.450  1.00  0.00     0.063 C 
HETATM    8  C13 UNL     1      32.719   3.709  45.766  1.00  0.00    -0.017 C 
HETATM    9  C14 UNL     1      32.453   2.972  46.856  1.00  0.00     0.009 C 
HETATM   10  C15 UNL     1      32.664   3.873  47.981  1.00  0.00     0.265 C 
HETATM   11  N2  UNL     1      31.933   5.205  47.581  1.00  0.00    -0.009 N 
HETATM   12  C16 UNL     1      32.825   6.241  48.297  1.00  0.00     0.263 A 
HETATM   13  C17 UNL     1      32.052   7.548  48.465  1.00  0.00     0.169 A 
HETATM   14  C18 UNL     1      31.564   8.891  48.583  1.00  0.00     0.238 A 
HETATM   15  O2  UNL     1      30.968   9.280  49.546  1.00  0.00    -0.272 OA
HETATM   16  N3  UNL     1      32.111   9.158  47.303  1.00  0.00    -0.343 N 
HETATM   17  O3  UNL     1      34.263   6.388  48.897  1.00  0.00    -0.216 OA
HETATM   18  N4  UNL     1      34.891   5.093  48.578  1.00  0.00    -0.138 NA
HETATM   19  C19 UNL     1      34.061   4.415  47.916  1.00  0.00     0.075 C 
HETATM   20  C20 UNL     1      34.898   4.250  46.726  1.00  0.00     0.074 C 
HETATM   21  H19 UNL     1      31.144   5.577  47.056  1.00  0.00     0.286 HD
HETATM   22  H20 UNL     1      32.111   9.992  46.736  1.00  0.00     0.163 HD
ENDROOT
BRANCH   6  23
HETATM   23  N1  UNL     1      34.708   5.045  43.375  1.00  0.00    -0.330 N 
HETATM   24  C7  UNL     1      33.875   4.920  42.249  1.00  0.00     0.221 C 
HETATM   25  O1  UNL     1      32.708   5.138  42.761  1.00  0.00    -0.273 OA
HETATM   26  H5  UNL     1      35.671   4.864  42.965  1.00  0.00     0.168 HD
BRANCH  24  27
HETATM   27  C8  UNL     1      33.818   4.637  40.806  1.00  0.00     0.103 C 
BRANCH  27  28
HETATM   28  C9  UNL     1      33.277   3.313  40.410  1.00  0.00     0.009 C 
BRANCH  28  29
HETATM   29  C10 UNL     1      34.313   2.279  40.142  1.00  0.00    -0.004 C 
HETATM   30  C11 UNL     1      33.661   1.179  39.299  1.00  0.00     0.005 C 
ENDBRANCH  28  29
ENDBRANCH  27  28
ENDBRANCH  24  27
ENDBRANCH   6  23
TORSDOF 5
ENDMDL
