MODEL 1
REMARK VINA RESULT:      -8.0      0.000      0.000
REMARK  4 active torsions:
REMARK  status: ('A' for Active; 'I' for Inactive)
REMARK    1  A    between atoms: O1_1  and  C1_2 
REMARK    2  A    between atoms: C1_2  and  C2_3 
REMARK    3  A    between atoms: C3_4  and  C4_5 
REMARK    4  A    between atoms: C4_5  and  C5_6 
ROOT
HETATM    1  C5  UNL     1      24.621   0.222  52.888  1.00  0.00     0.054 A 
HETATM    2  N1  UNL     1      24.207  -0.562  53.882  1.00  0.00    -0.245 NA
HETATM    3  C6  UNL     1      22.931  -0.582  54.243  1.00  0.00     0.234 A 
HETATM    4  N2  UNL     1      21.956   0.149  53.679  1.00  0.00    -0.241 NA
HETATM    5  C7  UNL     1      22.271   0.975  52.663  1.00  0.00     0.077 A 
HETATM    6  C8  UNL     1      23.638   0.960  52.318  1.00  0.00     0.051 A 
HETATM    7  C9  UNL     1      23.766   1.889  51.264  1.00  0.00     0.079 C 
HETATM    8  C10 UNL     1      23.601   2.266  50.030  1.00  0.00     0.013 C 
HETATM    9  C11 UNL     1      23.786   3.318  49.004  1.00  0.00     0.056 C 
HETATM   10  C12 UNL     1      22.415   3.726  48.440  1.00  0.00     0.171 C 
HETATM   11  O2  UNL     1      21.661   4.055  49.546  1.00  0.00    -0.389 OA
HETATM   12  C13 UNL     1      20.394   4.467  49.233  1.00  0.00     0.194 C 
HETATM   13  C14 UNL     1      19.716   4.716  50.593  1.00  0.00     0.204 C 
HETATM   14  O3  UNL     1      19.719   3.474  51.297  1.00  0.00    -0.328 OA
HETATM   15  C15 UNL     1      20.870   3.000  51.892  1.00  0.00     0.182 C 
HETATM   16  C16 UNL     1      21.171   1.725  52.087  1.00  0.00     0.096 C 
HETATM   17  O4  UNL     1      21.818   3.710  52.340  1.00  0.00    -0.328 OA
HETATM   18  C17 UNL     1      22.805   4.449  52.806  1.00  0.00     0.204 C 
HETATM   19  C18 UNL     1      24.105   3.618  52.939  1.00  0.00     0.202 C 
HETATM   20  O5  UNL     1      24.399   3.108  51.630  1.00  0.00    -0.348 OA
ENDROOT
BRANCH   1  21
HETATM   21  C4  UNL     1      25.958   0.413  52.316  1.00  0.00     0.087 C 
BRANCH  21  22
HETATM   22  C3  UNL     1      26.754  -0.820  52.621  1.00  0.00    -0.022 C 
HETATM   23  C2  UNL     1      28.021  -1.031  52.962  1.00  0.00    -0.005 C 
BRANCH  23  24
HETATM   24  C1  UNL     1      28.967  -2.149  53.297  1.00  0.00     0.191 C 
BRANCH  24  25
HETATM   25  O1  UNL     1      28.375  -3.321  52.871  1.00  0.00    -0.397 OA
HETATM   26  H1  UNL     1      28.179  -3.958  53.594  1.00  0.00     0.209 HD
ENDBRANCH  24  25
ENDBRANCH  23  24
ENDBRANCH  21  22
ENDBRANCH   1  21
TORSDOF 4
ENDMDL
MODEL 2
REMARK VINA RESULT:      -7.8      2.960      4.530
REMARK  4 active torsions:
REMARK  status: ('A' for Active; 'I' for Inactive)
REMARK    1  A    between atoms: O1_1  and  C1_2 
REMARK    2  A    between atoms: C1_2  and  C2_3 
REMARK    3  A    between atoms: C3_4  and  C4_5 
REMARK    4  A    between atoms: C4_5  and  C5_6 
ROOT
HETATM    1  C5  UNL     1      26.007   3.177  50.371  1.00  0.00     0.054 A 
HETATM    2  N1  UNL     1      26.992   2.839  51.201  1.00  0.00    -0.245 NA
HETATM    3  C6  UNL     1      26.771   2.010  52.212  1.00  0.00     0.234 A 
HETATM    4  N2  UNL     1      25.589   1.442  52.503  1.00  0.00    -0.241 NA
HETATM    5  C7  UNL     1      24.528   1.719  51.722  1.00  0.00     0.077 A 
HETATM    6  C8  UNL     1      24.814   2.605  50.663  1.00  0.00     0.051 A 
HETATM    7  C9  UNL     1      23.590   2.781  49.984  1.00  0.00     0.079 C 
HETATM    8  C10 UNL     1      22.635   2.374  49.200  1.00  0.00     0.013 C 
HETATM    9  C11 UNL     1      21.343   2.668  48.539  1.00  0.00     0.056 C 
HETATM   10  C12 UNL     1      20.296   1.633  48.981  1.00  0.00     0.171 C 
HETATM   11  O2  UNL     1      20.319   1.672  50.358  1.00  0.00    -0.389 OA
HETATM   12  C13 UNL     1      19.424   0.814  50.937  1.00  0.00     0.194 C 
HETATM   13  C14 UNL     1      19.658   0.968  52.452  1.00  0.00     0.204 C 
HETATM   14  O3  UNL     1      21.011   0.587  52.708  1.00  0.00    -0.328 OA
HETATM   15  C15 UNL     1      22.055   1.436  52.401  1.00  0.00     0.182 C 
HETATM   16  C16 UNL     1      23.284   1.063  52.079  1.00  0.00     0.096 C 
HETATM   17  O4  UNL     1      21.999   2.700  52.376  1.00  0.00    -0.328 OA
HETATM   18  C17 UNL     1      21.939   4.017  52.350  1.00  0.00     0.204 C 
HETATM   19  C18 UNL     1      23.099   4.607  51.511  1.00  0.00     0.202 C 
HETATM   20  O5  UNL     1      22.978   4.046  50.196  1.00  0.00    -0.348 OA
ENDROOT
BRANCH   1  21
HETATM   21  C4  UNL     1      26.007   4.061  49.200  1.00  0.00     0.087 C 
BRANCH  21  22
HETATM   22  C3  UNL     1      27.435   4.400  48.897  1.00  0.00    -0.022 C 
HETATM   23  C2  UNL     1      28.046   5.506  48.486  1.00  0.00    -0.005 C 
BRANCH  23  24
HETATM   24  C1  UNL     1      29.414   6.022  48.140  1.00  0.00     0.191 C 
BRANCH  24  25
HETATM   25  O1  UNL     1      30.242   5.716  49.202  1.00  0.00    -0.397 OA
HETATM   26  H1  UNL     1      30.200   6.359  49.943  1.00  0.00     0.209 HD
ENDBRANCH  24  25
ENDBRANCH  23  24
ENDBRANCH  21  22
ENDBRANCH   1  21
TORSDOF 4
ENDMDL
MODEL 3
REMARK VINA RESULT:      -7.6      1.541      1.588
REMARK  4 active torsions:
REMARK  status: ('A' for Active; 'I' for Inactive)
REMARK    1  A    between atoms: O1_1  and  C1_2 
REMARK    2  A    between atoms: C1_2  and  C2_3 
REMARK    3  A    between atoms: C3_4  and  C4_5 
REMARK    4  A    between atoms: C4_5  and  C5_6 
ROOT
HETATM    1  C5  UNL     1      24.679   0.427  52.684  1.00  0.00     0.054 A 
HETATM    2  N1  UNL     1      24.476  -0.318  53.769  1.00  0.00    -0.245 NA
HETATM    3  C6  UNL     1      23.262  -0.441  54.288  1.00  0.00     0.234 A 
HETATM    4  N2  UNL     1      22.151   0.140  53.805  1.00  0.00    -0.241 NA
HETATM    5  C7  UNL     1      22.250   0.914  52.708  1.00  0.00     0.077 A 
HETATM    6  C8  UNL     1      23.560   1.013  52.195  1.00  0.00     0.051 A 
HETATM    7  C9  UNL     1      23.459   1.867  51.077  1.00  0.00     0.079 C 
HETATM    8  C10 UNL     1      23.109   2.130  49.852  1.00  0.00     0.013 C 
HETATM    9  C11 UNL     1      23.053   3.113  48.746  1.00  0.00     0.056 C 
HETATM   10  C12 UNL     1      21.589   3.334  48.334  1.00  0.00     0.171 C 
HETATM   11  O2  UNL     1      20.938   3.667  49.502  1.00  0.00    -0.389 OA
HETATM   12  C13 UNL     1      19.606   3.922  49.325  1.00  0.00     0.194 C 
HETATM   13  C14 UNL     1      19.069   4.203  50.740  1.00  0.00     0.204 C 
HETATM   14  O3  UNL     1      19.293   3.025  51.516  1.00  0.00    -0.328 OA
HETATM   15  C15 UNL     1      20.552   2.719  51.991  1.00  0.00     0.182 C 
HETATM   16  C16 UNL     1      21.013   1.501  52.227  1.00  0.00     0.096 C 
HETATM   17  O4  UNL     1      21.461   3.555  52.271  1.00  0.00    -0.328 OA
HETATM   18  C17 UNL     1      22.407   4.426  52.562  1.00  0.00     0.204 C 
HETATM   19  C18 UNL     1      23.798   3.745  52.583  1.00  0.00     0.202 C 
HETATM   20  O5  UNL     1      23.991   3.169  51.283  1.00  0.00    -0.348 OA
ENDROOT
BRANCH   1  21
HETATM   21  C4  UNL     1      25.910   0.709  51.938  1.00  0.00     0.087 C 
BRANCH  21  22
HETATM   22  C3  UNL     1      27.062   0.442  52.859  1.00  0.00    -0.022 C 
HETATM   23  C2  UNL     1      27.962   1.222  53.449  1.00  0.00    -0.005 C 
BRANCH  23  24
HETATM   24  C1  UNL     1      29.145   1.143  54.372  1.00  0.00     0.191 C 
BRANCH  24  25
HETATM   25  O1  UNL     1      29.595   2.433  54.566  1.00  0.00    -0.397 OA
HETATM   26  H1  UNL     1      30.195   2.761  53.859  1.00  0.00     0.209 HD
ENDBRANCH  24  25
ENDBRANCH  23  24
ENDBRANCH  21  22
ENDBRANCH   1  21
TORSDOF 4
ENDMDL
MODEL 4
REMARK VINA RESULT:      -7.1      1.649      1.952
REMARK  4 active torsions:
REMARK  status: ('A' for Active; 'I' for Inactive)
REMARK    1  A    between atoms: O1_1  and  C1_2 
REMARK    2  A    between atoms: C1_2  and  C2_3 
REMARK    3  A    between atoms: C3_4  and  C4_5 
REMARK    4  A    between atoms: C4_5  and  C5_6 
ROOT
HETATM    1  C5  UNL     1      23.058   0.078  53.224  1.00  0.00     0.054 A 
HETATM    2  N1  UNL     1      22.633  -0.585  54.298  1.00  0.00    -0.245 NA
HETATM    3  C6  UNL     1      21.339  -0.784  54.504  1.00  0.00     0.234 A 
HETATM    4  N2  UNL     1      20.353  -0.362  53.695  1.00  0.00    -0.241 NA
HETATM    5  C7  UNL     1      20.678   0.319  52.580  1.00  0.00     0.077 A 
HETATM    6  C8  UNL     1      22.064   0.504  52.407  1.00  0.00     0.051 A 
HETATM    7  C9  UNL     1      22.196   1.243  51.212  1.00  0.00     0.079 C 
HETATM    8  C10 UNL     1      22.160   1.360  49.917  1.00  0.00     0.013 C 
HETATM    9  C11 UNL     1      22.322   2.233  48.732  1.00  0.00     0.056 C 
HETATM   10  C12 UNL     1      21.004   2.269  47.941  1.00  0.00     0.171 C 
HETATM   11  O2  UNL     1      20.048   2.636  48.863  1.00  0.00    -0.389 OA
HETATM   12  C13 UNL     1      18.793   2.738  48.328  1.00  0.00     0.194 C 
HETATM   13  C14 UNL     1      17.885   3.087  49.522  1.00  0.00     0.204 C 
HETATM   14  O3  UNL     1      17.985   2.010  50.454  1.00  0.00    -0.328 OA
HETATM   15  C15 UNL     1      19.096   1.875  51.263  1.00  0.00     0.182 C 
HETATM   16  C16 UNL     1      19.569   0.734  51.740  1.00  0.00     0.096 C 
HETATM   17  O4  UNL     1      19.835   2.819  51.669  1.00  0.00    -0.328 OA
HETATM   18  C17 UNL     1      20.604   3.802  52.091  1.00  0.00     0.204 C 
HETATM   19  C18 UNL     1      21.988   3.270  52.538  1.00  0.00     0.202 C 
HETATM   20  O5  UNL     1      22.557   2.605  51.401  1.00  0.00    -0.348 OA
ENDROOT
BRANCH   1  21
HETATM   21  C4  UNL     1      24.416   0.417  52.786  1.00  0.00     0.087 C 
BRANCH  21  22
HETATM   22  C3  UNL     1      25.289  -0.765  53.083  1.00  0.00    -0.022 C 
HETATM   23  C2  UNL     1      26.428  -1.214  52.568  1.00  0.00    -0.005 C 
BRANCH  23  24
HETATM   24  C1  UNL     1      27.416  -2.335  52.726  1.00  0.00     0.191 C 
BRANCH  24  25
HETATM   25  O1  UNL     1      28.486  -1.835  53.440  1.00  0.00    -0.397 OA
HETATM   26  H1  UNL     1      28.243  -1.151  54.103  1.00  0.00     0.209 HD
ENDBRANCH  24  25
ENDBRANCH  23  24
ENDBRANCH  21  22
ENDBRANCH   1  21
TORSDOF 4
ENDMDL
MODEL 5
REMARK VINA RESULT:      -7.0      3.639      5.744
REMARK  4 active torsions:
REMARK  status: ('A' for Active; 'I' for Inactive)
REMARK    1  A    between atoms: O1_1  and  C1_2 
REMARK    2  A    between atoms: C1_2  and  C2_3 
REMARK    3  A    between atoms: C3_4  and  C4_5 
REMARK    4  A    between atoms: C4_5  and  C5_6 
ROOT
HETATM    1  C5  UNL     1      24.929   5.553  49.671  1.00  0.00     0.054 A 
HETATM    2  N1  UNL     1      24.616   6.837  49.508  1.00  0.00    -0.245 NA
HETATM    3  C6  UNL     1      23.530   7.347  50.073  1.00  0.00     0.234 A 
HETATM    4  N2  UNL     1      22.662   6.662  50.837  1.00  0.00    -0.241 NA
HETATM    5  C7  UNL     1      22.890   5.355  51.063  1.00  0.00     0.077 A 
HETATM    6  C8  UNL     1      24.055   4.862  50.441  1.00  0.00     0.051 A 
HETATM    7  C9  UNL     1      24.106   3.493  50.777  1.00  0.00     0.079 C 
HETATM    8  C10 UNL     1      24.306   2.515  51.612  1.00  0.00     0.013 C 
HETATM    9  C11 UNL     1      24.323   1.054  51.851  1.00  0.00     0.056 C 
HETATM   10  C12 UNL     1      23.331   0.710  52.974  1.00  0.00     0.171 C 
HETATM   11  O2  UNL     1      22.135   1.265  52.573  1.00  0.00    -0.389 OA
HETATM   12  C13 UNL     1      21.113   1.041  53.455  1.00  0.00     0.194 C 
HETATM   13  C14 UNL     1      19.908   1.790  52.856  1.00  0.00     0.204 C 
HETATM   14  O3  UNL     1      20.265   3.171  52.786  1.00  0.00    -0.328 OA
HETATM   15  C15 UNL     1      21.115   3.633  51.802  1.00  0.00     0.182 C 
HETATM   16  C16 UNL     1      21.924   4.676  51.908  1.00  0.00     0.096 C 
HETATM   17  O4  UNL     1      21.257   3.130  50.649  1.00  0.00    -0.328 OA
HETATM   18  C17 UNL     1      21.404   2.605  49.449  1.00  0.00     0.204 C 
HETATM   19  C18 UNL     1      22.746   3.044  48.813  1.00  0.00     0.202 C 
HETATM   20  O5  UNL     1      23.782   2.614  49.709  1.00  0.00    -0.348 OA
ENDROOT
BRANCH   1  21
HETATM   21  C4  UNL     1      26.060   4.774  49.155  1.00  0.00     0.087 C 
BRANCH  21  22
HETATM   22  C3  UNL     1      27.156   5.742  48.825  1.00  0.00    -0.022 C 
HETATM   23  C2  UNL     1      28.410   5.599  48.410  1.00  0.00    -0.005 C 
BRANCH  23  24
HETATM   24  C1  UNL     1      29.615   6.417  48.039  1.00  0.00     0.191 C 
BRANCH  24  25
HETATM   25  O1  UNL     1      30.215   6.812  49.217  1.00  0.00    -0.397 OA
HETATM   26  H1  UNL     1      29.631   6.753  50.005  1.00  0.00     0.209 HD
ENDBRANCH  24  25
ENDBRANCH  23  24
ENDBRANCH  21  22
ENDBRANCH   1  21
TORSDOF 4
ENDMDL
MODEL 6
REMARK VINA RESULT:      -7.0      2.395      3.877
REMARK  4 active torsions:
REMARK  status: ('A' for Active; 'I' for Inactive)
REMARK    1  A    between atoms: O1_1  and  C1_2 
REMARK    2  A    between atoms: C1_2  and  C2_3 
REMARK    3  A    between atoms: C3_4  and  C4_5 
REMARK    4  A    between atoms: C4_5  and  C5_6 
ROOT
HETATM    1  C5  UNL     1      23.219   1.619  52.774  1.00  0.00     0.054 A 
HETATM    2  N1  UNL     1      24.054   2.643  52.935  1.00  0.00    -0.245 NA
HETATM    3  C6  UNL     1      23.655   3.887  52.706  1.00  0.00     0.234 A 
HETATM    4  N2  UNL     1      22.423   4.241  52.303  1.00  0.00    -0.241 NA
HETATM    5  C7  UNL     1      21.502   3.278  52.111  1.00  0.00     0.077 A 
HETATM    6  C8  UNL     1      21.976   1.975  52.368  1.00  0.00     0.051 A 
HETATM    7  C9  UNL     1      20.886   1.122  52.096  1.00  0.00     0.079 C 
HETATM    8  C10 UNL     1      19.726   0.605  52.377  1.00  0.00     0.013 C 
HETATM    9  C11 UNL     1      18.638  -0.322  51.988  1.00  0.00     0.056 C 
HETATM   10  C12 UNL     1      17.326   0.465  51.843  1.00  0.00     0.171 C 
HETATM   11  O2  UNL     1      17.621   1.488  50.968  1.00  0.00    -0.389 OA
HETATM   12  C13 UNL     1      16.549   2.296  50.700  1.00  0.00     0.194 C 
HETATM   13  C14 UNL     1      17.106   3.391  49.771  1.00  0.00     0.204 C 
HETATM   14  O3  UNL     1      18.129   4.076  50.496  1.00  0.00    -0.328 OA
HETATM   15  C15 UNL     1      19.375   3.507  50.669  1.00  0.00     0.182 C 
HETATM   16  C16 UNL     1      20.187   3.727  51.691  1.00  0.00     0.096 C 
HETATM   17  O4  UNL     1      19.931   2.687  49.882  1.00  0.00    -0.328 OA
HETATM   18  C17 UNL     1      20.509   1.832  49.061  1.00  0.00     0.204 C 
HETATM   19  C18 UNL     1      21.630   1.044  49.783  1.00  0.00     0.202 C 
HETATM   20  O5  UNL     1      21.011   0.376  50.892  1.00  0.00    -0.348 OA
ENDROOT
BRANCH   1  21
HETATM   21  C4  UNL     1      23.426   0.179  52.964  1.00  0.00     0.087 C 
BRANCH  21  22
HETATM   22  C3  UNL     1      24.839  -0.011  53.427  1.00  0.00    -0.022 C 
HETATM   23  C2  UNL     1      25.930  -0.508  52.855  1.00  0.00    -0.005 C 
BRANCH  23  24
HETATM   24  C1  UNL     1      27.381  -0.772  53.146  1.00  0.00     0.191 C 
BRANCH  24  25
HETATM   25  O1  UNL     1      27.567  -0.566  54.499  1.00  0.00    -0.397 OA
HETATM   26  H1  UNL     1      27.852  -1.367  54.992  1.00  0.00     0.209 HD
ENDBRANCH  24  25
ENDBRANCH  23  24
ENDBRANCH  21  22
ENDBRANCH   1  21
TORSDOF 4
ENDMDL
MODEL 7
REMARK VINA RESULT:      -6.8      3.451      6.505
REMARK  4 active torsions:
REMARK  status: ('A' for Active; 'I' for Inactive)
REMARK    1  A    between atoms: O1_1  and  C1_2 
REMARK    2  A    between atoms: C1_2  and  C2_3 
REMARK    3  A    between atoms: C3_4  and  C4_5 
REMARK    4  A    between atoms: C4_5  and  C5_6 
ROOT
HETATM    1  C5  UNL     1      22.942   6.392  49.036  1.00  0.00     0.054 A 
HETATM    2  N1  UNL     1      21.911   7.145  49.417  1.00  0.00    -0.245 NA
HETATM    3  C6  UNL     1      21.281   6.904  50.558  1.00  0.00     0.234 A 
HETATM    4  N2  UNL     1      21.592   5.922  51.421  1.00  0.00    -0.241 NA
HETATM    5  C7  UNL     1      22.621   5.104  51.128  1.00  0.00     0.077 A 
HETATM    6  C8  UNL     1      23.256   5.402  49.906  1.00  0.00     0.051 A 
HETATM    7  C9  UNL     1      24.278   4.438  49.773  1.00  0.00     0.079 C 
HETATM    8  C10 UNL     1      25.432   3.927  50.089  1.00  0.00     0.013 C 
HETATM    9  C11 UNL     1      26.435   2.861  49.867  1.00  0.00     0.056 C 
HETATM   10  C12 UNL     1      26.671   2.101  51.182  1.00  0.00     0.171 C 
HETATM   11  O2  UNL     1      25.416   1.706  51.593  1.00  0.00    -0.389 OA
HETATM   12  C13 UNL     1      25.430   0.989  52.758  1.00  0.00     0.194 C 
HETATM   13  C14 UNL     1      23.947   0.711  53.065  1.00  0.00     0.204 C 
HETATM   14  O3  UNL     1      23.305   1.978  53.221  1.00  0.00    -0.328 OA
HETATM   15  C15 UNL     1      22.994   2.753  52.122  1.00  0.00     0.182 C 
HETATM   16  C16 UNL     1      22.916   4.075  52.107  1.00  0.00     0.096 C 
HETATM   17  O4  UNL     1      22.738   2.321  50.960  1.00  0.00    -0.328 OA
HETATM   18  C17 UNL     1      22.472   1.871  49.750  1.00  0.00     0.204 C 
HETATM   19  C18 UNL     1      22.656   2.986  48.691  1.00  0.00     0.202 C 
HETATM   20  O5  UNL     1      24.015   3.434  48.802  1.00  0.00    -0.348 OA
ENDROOT
BRANCH   1  21
HETATM   21  C4  UNL     1      23.784   6.464  47.838  1.00  0.00     0.087 C 
BRANCH  21  22
HETATM   22  C3  UNL     1      24.913   7.402  48.141  1.00  0.00    -0.022 C 
HETATM   23  C2  UNL     1      26.230   7.249  48.240  1.00  0.00    -0.005 C 
BRANCH  23  24
HETATM   24  C1  UNL     1      27.476   8.038  48.523  1.00  0.00     0.191 C 
BRANCH  24  25
HETATM   25  O1  UNL     1      27.624   8.083  49.895  1.00  0.00    -0.397 OA
HETATM   26  H1  UNL     1      27.599   8.990  50.272  1.00  0.00     0.209 HD
ENDBRANCH  24  25
ENDBRANCH  23  24
ENDBRANCH  21  22
ENDBRANCH   1  21
TORSDOF 4
ENDMDL
MODEL 8
REMARK VINA RESULT:      -6.8      7.233      9.416
REMARK  4 active torsions:
REMARK  status: ('A' for Active; 'I' for Inactive)
REMARK    1  A    between atoms: O1_1  and  C1_2 
REMARK    2  A    between atoms: C1_2  and  C2_3 
REMARK    3  A    between atoms: C3_4  and  C4_5 
REMARK    4  A    between atoms: C4_5  and  C5_6 
ROOT
HETATM    1  C5  UNL     1      30.030   7.977  47.392  1.00  0.00     0.054 A 
HETATM    2  N1  UNL     1      31.053   7.242  47.823  1.00  0.00    -0.245 NA
HETATM    3  C6  UNL     1      30.846   6.072  48.413  1.00  0.00     0.234 A 
HETATM    4  N2  UNL     1      29.641   5.520  48.634  1.00  0.00    -0.241 NA
HETATM    5  C7  UNL     1      28.541   6.185  48.234  1.00  0.00     0.077 A 
HETATM    6  C8  UNL     1      28.815   7.421  47.614  1.00  0.00     0.051 A 
HETATM    7  C9  UNL     1      27.553   7.963  47.290  1.00  0.00     0.079 C 
HETATM    8  C10 UNL     1      26.462   8.007  46.582  1.00  0.00     0.013 C 
HETATM    9  C11 UNL     1      25.152   8.652  46.336  1.00  0.00     0.056 C 
HETATM   10  C12 UNL     1      24.035   7.605  46.472  1.00  0.00     0.171 C 
HETATM   11  O2  UNL     1      24.231   7.036  47.712  1.00  0.00    -0.389 OA
HETATM   12  C13 UNL     1      23.304   6.078  48.020  1.00  0.00     0.194 C 
HETATM   13  C14 UNL     1      23.741   5.538  49.395  1.00  0.00     0.204 C 
HETATM   14  O3  UNL     1      25.050   4.989  49.234  1.00  0.00    -0.328 OA
HETATM   15  C15 UNL     1      26.155   5.810  49.140  1.00  0.00     0.182 C 
HETATM   16  C16 UNL     1      27.272   5.529  48.487  1.00  0.00     0.096 C 
HETATM   17  O4  UNL     1      26.270   6.959  49.659  1.00  0.00    -0.328 OA
HETATM   18  C17 UNL     1      26.389   8.155  50.199  1.00  0.00     0.204 C 
HETATM   19  C18 UNL     1      27.508   8.969  49.503  1.00  0.00     0.202 C 
HETATM   20  O5  UNL     1      27.151   9.048  48.115  1.00  0.00    -0.348 OA
ENDROOT
BRANCH   1  21
HETATM   21  C4  UNL     1      30.008   9.281  46.720  1.00  0.00     0.087 C 
BRANCH  21  22
HETATM   22  C3  UNL     1      30.400  10.313  47.734  1.00  0.00    -0.022 C 
HETATM   23  C2  UNL     1      29.803  11.399  48.212  1.00  0.00    -0.005 C 
BRANCH  23  24
HETATM   24  C1  UNL     1      30.027  12.515  49.194  1.00  0.00     0.191 C 
BRANCH  24  25
HETATM   25  O1  UNL     1      28.798  12.828  49.739  1.00  0.00    -0.397 OA
HETATM   26  H1  UNL     1      28.100  12.157  49.568  1.00  0.00     0.209 HD
ENDBRANCH  24  25
ENDBRANCH  23  24
ENDBRANCH  21  22
ENDBRANCH   1  21
TORSDOF 4
ENDMDL
MODEL 9
REMARK VINA RESULT:      -6.7      2.987      4.293
REMARK  4 active torsions:
REMARK  status: ('A' for Active; 'I' for Inactive)
REMARK    1  A    between atoms: O1_1  and  C1_2 
REMARK    2  A    between atoms: C1_2  and  C2_3 
REMARK    3  A    between atoms: C3_4  and  C4_5 
REMARK    4  A    between atoms: C4_5  and  C5_6 
ROOT
HETATM    1  C5  UNL     1      22.343   1.305  50.883  1.00  0.00     0.054 A 
HETATM    2  N1  UNL     1      21.202   0.682  50.592  1.00  0.00    -0.245 NA
HETATM    3  C6  UNL     1      20.396   1.149  49.649  1.00  0.00     0.234 A 
HETATM    4  N2  UNL     1      20.623   2.250  48.912  1.00  0.00    -0.241 NA
HETATM    5  C7  UNL     1      21.751   2.952  49.129  1.00  0.00     0.077 A 
HETATM    6  C8  UNL     1      22.573   2.415  50.141  1.00  0.00     0.051 A 
HETATM    7  C9  UNL     1      23.677   3.290  50.227  1.00  0.00     0.079 C 
HETATM    8  C10 UNL     1      24.791   3.791  49.781  1.00  0.00     0.013 C 
HETATM    9  C11 UNL     1      25.901   4.752  49.974  1.00  0.00     0.056 C 
HETATM   10  C12 UNL     1      25.953   5.717  48.778  1.00  0.00     0.171 C 
HETATM   11  O2  UNL     1      24.681   6.238  48.687  1.00  0.00    -0.389 OA
HETATM   12  C13 UNL     1      24.540   7.145  47.673  1.00  0.00     0.194 C 
HETATM   13  C14 UNL     1      23.054   7.545  47.708  1.00  0.00     0.204 C 
HETATM   14  O3  UNL     1      22.294   6.358  47.477  1.00  0.00    -0.328 OA
HETATM   15  C15 UNL     1      22.126   5.420  48.475  1.00  0.00     0.182 C 
HETATM   16  C16 UNL     1      21.945   4.121  48.291  1.00  0.00     0.096 C 
HETATM   17  O4  UNL     1      22.122   5.654  49.719  1.00  0.00    -0.328 OA
HETATM   18  C17 UNL     1      22.119   5.899  51.014  1.00  0.00     0.204 C 
HETATM   19  C18 UNL     1      22.402   4.609  51.822  1.00  0.00     0.202 C 
HETATM   20  O5  UNL     1      23.678   4.122  51.380  1.00  0.00    -0.348 OA
ENDROOT
BRANCH   1  21
HETATM   21  C4  UNL     1      23.381   0.985  51.868  1.00  0.00     0.087 C 
BRANCH  21  22
HETATM   22  C3  UNL     1      22.697   0.386  53.060  1.00  0.00    -0.022 C 
HETATM   23  C2  UNL     1      22.452  -0.862  53.444  1.00  0.00    -0.005 C 
BRANCH  23  24
HETATM   24  C1  UNL     1      21.807  -1.632  54.561  1.00  0.00     0.191 C 
BRANCH  24  25
HETATM   25  O1  UNL     1      22.692  -1.627  55.621  1.00  0.00    -0.397 OA
HETATM   26  H1  UNL     1      23.326  -2.379  55.619  1.00  0.00     0.209 HD
ENDBRANCH  24  25
ENDBRANCH  23  24
ENDBRANCH  21  22
ENDBRANCH   1  21
TORSDOF 4
ENDMDL
