MODEL 1
REMARK VINA RESULT:      -9.4      0.000      0.000
REMARK  4 active torsions:
REMARK  status: ('A' for Active; 'I' for Inactive)
REMARK    1  A    between atoms: C2_2  and  N1_3 
REMARK    2  A    between atoms: C2_2  and  C15_21 
REMARK       I    between atoms: N1_3  and  C3_4 
REMARK    3  A    between atoms: C3_4  and  C4_6 
REMARK    4  A    between atoms: C8_12  and  C9_13 
ROOT
HETATM    1  C4  UNL     1      22.479   1.092  52.620  1.00  0.00     0.097 C 
HETATM    2  C5  UNL     1      21.400   0.477  53.120  1.00  0.00     0.037 C 
HETATM    3  C6  UNL     1      21.594  -0.472  54.211  1.00  0.00     0.031 C 
HETATM    4  C7  UNL     1      22.764  -0.826  54.772  1.00  0.00     0.056 C 
HETATM    5  N2  UNL     1      23.416  -1.600  55.760  1.00  0.00    -0.280 N 
HETATM    6  N3  UNL     1      24.792  -1.507  55.599  1.00  0.00    -0.176 NA
HETATM    7  C8  UNL     1      25.084  -0.759  54.587  1.00  0.00     0.093 C 
HETATM    8  C14 UNL     1      23.876  -0.382  53.856  1.00  0.00     0.188 C 
HETATM    9  N5  UNL     1      23.730   0.877  53.284  1.00  0.00    -0.370 N 
HETATM   10  H8  UNL     1      22.775  -2.099  56.430  1.00  0.00     0.189 HD
HETATM   11  H14 UNL     1      24.328   1.749  53.218  1.00  0.00     0.161 HD
ENDROOT
BRANCH   1  12
HETATM   12  C3  UNL     1      22.337   2.053  51.505  1.00  0.00     0.268 C 
HETATM   13  N1  UNL     1      23.339   2.223  50.523  1.00  0.00    -0.347 N 
HETATM   14  H5  UNL     1      24.219   1.686  50.532  1.00  0.00     0.163 HD
HETATM   15  O1  UNL     1      21.308   2.752  51.404  1.00  0.00    -0.266 OA
BRANCH  13  16
HETATM   16  C2  UNL     1      23.213   3.153  49.437  1.00  0.00     0.114 C 
HETATM   17  C1  UNL     1      22.703   2.546  48.175  1.00  0.00     0.037 C 
BRANCH  16  18
HETATM   18  C15 UNL     1      24.439   3.959  49.239  1.00  0.00    -0.034 A 
HETATM   19  C16 UNL     1      25.728   3.513  49.423  1.00  0.00     0.009 A 
HETATM   20  C17 UNL     1      26.841   4.297  49.227  1.00  0.00     0.002 A 
HETATM   21  C18 UNL     1      26.683   5.605  48.827  1.00  0.00     0.024 A 
HETATM   22  C19 UNL     1      25.397   6.074  48.636  1.00  0.00     0.034 A 
HETATM   23 CL1  UNL     1      25.273   7.745  48.127  1.00  0.00    -0.084 Cl
HETATM   24  C20 UNL     1      24.308   5.268  48.839  1.00  0.00     0.033 A 
ENDBRANCH  16  18
ENDBRANCH  13  16
ENDBRANCH   1  12
BRANCH   7  25
HETATM   25  C9  UNL     1      26.494  -0.542  54.286  1.00  0.00    -0.005 A 
HETATM   26  C10 UNL     1      27.291   0.350  54.965  1.00  0.00     0.033 A 
HETATM   27  C11 UNL     1      28.624   0.551  54.690  1.00  0.00     0.117 A 
HETATM   28  N4  UNL     1      29.227  -0.139  53.711  1.00  0.00    -0.273 NA
HETATM   29  C12 UNL     1      28.519  -1.030  52.999  1.00  0.00     0.117 A 
HETATM   30  C13 UNL     1      27.186  -1.217  53.291  1.00  0.00     0.033 A 
ENDBRANCH   7  25
TORSDOF 4
ENDMDL
MODEL 2
REMARK VINA RESULT:      -9.3      1.392      1.974
REMARK  4 active torsions:
REMARK  status: ('A' for Active; 'I' for Inactive)
REMARK    1  A    between atoms: C2_2  and  N1_3 
REMARK    2  A    between atoms: C2_2  and  C15_21 
REMARK       I    between atoms: N1_3  and  C3_4 
REMARK    3  A    between atoms: C3_4  and  C4_6 
REMARK    4  A    between atoms: C8_12  and  C9_13 
ROOT
HETATM    1  C4  UNL     1      22.367   0.187  52.825  1.00  0.00     0.097 C 
HETATM    2  C5  UNL     1      21.633  -0.712  53.493  1.00  0.00     0.037 C 
HETATM    3  C6  UNL     1      22.238  -1.375  54.642  1.00  0.00     0.031 C 
HETATM    4  C7  UNL     1      23.487  -1.200  55.107  1.00  0.00     0.056 C 
HETATM    5  N2  UNL     1      24.443  -1.548  56.091  1.00  0.00    -0.280 N 
HETATM    6  N3  UNL     1      25.670  -0.978  55.777  1.00  0.00    -0.176 NA
HETATM    7  C8  UNL     1      25.595  -0.311  54.673  1.00  0.00     0.093 C 
HETATM    8  C14 UNL     1      24.291  -0.501  54.041  1.00  0.00     0.188 C 
HETATM    9  N5  UNL     1      23.646   0.533  53.371  1.00  0.00    -0.370 N 
HETATM   10  H8  UNL     1      24.080  -2.157  56.869  1.00  0.00     0.189 HD
HETATM   11  H14 UNL     1      23.866   1.548  53.159  1.00  0.00     0.161 HD
ENDROOT
BRANCH   1  12
HETATM   12  C3  UNL     1      21.804   0.878  51.645  1.00  0.00     0.268 C 
HETATM   13  N1  UNL     1      22.622   1.494  50.670  1.00  0.00    -0.347 N 
HETATM   14  H5  UNL     1      23.651   1.491  50.730  1.00  0.00     0.163 HD
HETATM   15  O1  UNL     1      20.569   0.937  51.479  1.00  0.00    -0.266 OA
BRANCH  13  16
HETATM   16  C2  UNL     1      22.088   2.168  49.521  1.00  0.00     0.114 C 
HETATM   17  C1  UNL     1      21.868   1.279  48.344  1.00  0.00     0.037 C 
BRANCH  16  18
HETATM   18  C15 UNL     1      22.840   3.398  49.187  1.00  0.00    -0.034 A 
HETATM   19  C16 UNL     1      22.292   4.564  48.702  1.00  0.00     0.009 A 
HETATM   20  C17 UNL     1      23.029   5.686  48.404  1.00  0.00     0.002 A 
HETATM   21  C18 UNL     1      24.393   5.667  48.594  1.00  0.00     0.024 A 
HETATM   22  C19 UNL     1      24.964   4.507  49.081  1.00  0.00     0.034 A 
HETATM   23 CL1  UNL     1      26.702   4.556  49.297  1.00  0.00    -0.084 Cl
HETATM   24  C20 UNL     1      24.203   3.405  49.367  1.00  0.00     0.033 A 
ENDBRANCH  16  18
ENDBRANCH  13  16
ENDBRANCH   1  12
BRANCH   7  25
HETATM   25  C9  UNL     1      26.797   0.367  54.206  1.00  0.00    -0.005 A 
HETATM   26  C10 UNL     1      28.046  -0.209  54.198  1.00  0.00     0.033 A 
HETATM   27  C11 UNL     1      29.181   0.425  53.750  1.00  0.00     0.117 A 
HETATM   28  N4  UNL     1      29.118   1.681  53.283  1.00  0.00    -0.273 NA
HETATM   29  C12 UNL     1      27.936   2.316  53.257  1.00  0.00     0.117 A 
HETATM   30  C13 UNL     1      26.812   1.664  53.710  1.00  0.00     0.033 A 
ENDBRANCH   7  25
TORSDOF 4
ENDMDL
MODEL 3
REMARK VINA RESULT:      -9.0      1.728      2.282
REMARK  4 active torsions:
REMARK  status: ('A' for Active; 'I' for Inactive)
REMARK    1  A    between atoms: C2_2  and  N1_3 
REMARK    2  A    between atoms: C2_2  and  C15_21 
REMARK       I    between atoms: N1_3  and  C3_4 
REMARK    3  A    between atoms: C3_4  and  C4_6 
REMARK    4  A    between atoms: C8_12  and  C9_13 
ROOT
HETATM    1  C4  UNL     1      23.093   3.144  52.176  1.00  0.00     0.097 C 
HETATM    2  C5  UNL     1      21.801   2.793  52.148  1.00  0.00     0.037 C 
HETATM    3  C6  UNL     1      21.422   1.524  52.757  1.00  0.00     0.031 C 
HETATM    4  C7  UNL     1      22.243   0.632  53.339  1.00  0.00     0.056 C 
HETATM    5  N2  UNL     1      22.356  -0.602  54.022  1.00  0.00    -0.280 N 
HETATM    6  N3  UNL     1      23.696  -0.924  54.193  1.00  0.00    -0.176 NA
HETATM    7  C8  UNL     1      24.454  -0.020  53.665  1.00  0.00     0.093 C 
HETATM    8  C14 UNL     1      23.656   0.962  52.934  1.00  0.00     0.188 C 
HETATM    9  N5  UNL     1      23.988   2.313  52.924  1.00  0.00    -0.370 N 
HETATM   10  H8  UNL     1      21.441  -1.054  54.279  1.00  0.00     0.189 HD
HETATM   11  H14 UNL     1      24.759   2.903  53.349  1.00  0.00     0.161 HD
ENDROOT
BRANCH   1  12
HETATM   12  C3  UNL     1      23.532   4.416  51.561  1.00  0.00     0.268 C 
HETATM   13  N1  UNL     1      23.773   4.539  50.174  1.00  0.00    -0.347 N 
HETATM   14  H5  UNL     1      23.654   3.751  49.520  1.00  0.00     0.163 HD
HETATM   15  O1  UNL     1      23.703   5.430  52.266  1.00  0.00    -0.266 OA
BRANCH  13  16
HETATM   16  C2  UNL     1      24.199   5.767  49.565  1.00  0.00     0.114 C 
HETATM   17  C1  UNL     1      23.266   6.282  48.522  1.00  0.00     0.037 C 
BRANCH  16  18
HETATM   18  C15 UNL     1      25.606   5.713  49.110  1.00  0.00    -0.034 A 
HETATM   19  C16 UNL     1      26.435   4.617  49.202  1.00  0.00     0.009 A 
HETATM   20  C17 UNL     1      27.739   4.609  48.766  1.00  0.00     0.002 A 
HETATM   21  C18 UNL     1      28.269   5.749  48.202  1.00  0.00     0.024 A 
HETATM   22  C19 UNL     1      27.455   6.860  48.099  1.00  0.00     0.034 A 
HETATM   23 CL1  UNL     1      28.194   8.271  47.371  1.00  0.00    -0.084 Cl
HETATM   24  C20 UNL     1      26.159   6.836  48.543  1.00  0.00     0.033 A 
ENDBRANCH  16  18
ENDBRANCH  13  16
ENDBRANCH   1  12
BRANCH   7  25
HETATM   25  C9  UNL     1      25.897  -0.196  53.770  1.00  0.00    -0.005 A 
HETATM   26  C10 UNL     1      26.637  -0.972  52.909  1.00  0.00     0.033 A 
HETATM   27  C11 UNL     1      27.999  -1.134  52.999  1.00  0.00     0.117 A 
HETATM   28  N4  UNL     1      28.693  -0.520  53.969  1.00  0.00    -0.273 NA
HETATM   29  C12 UNL     1      28.046   0.256  54.853  1.00  0.00     0.117 A 
HETATM   30  C13 UNL     1      26.682   0.405  54.744  1.00  0.00     0.033 A 
ENDBRANCH   7  25
TORSDOF 4
ENDMDL
MODEL 4
REMARK VINA RESULT:      -9.0      2.471      4.832
REMARK  4 active torsions:
REMARK  status: ('A' for Active; 'I' for Inactive)
REMARK    1  A    between atoms: C2_2  and  N1_3 
REMARK    2  A    between atoms: C2_2  and  C15_21 
REMARK       I    between atoms: N1_3  and  C3_4 
REMARK    3  A    between atoms: C3_4  and  C4_6 
REMARK    4  A    between atoms: C8_12  and  C9_13 
ROOT
HETATM    1  C4  UNL     1      26.667   2.167  51.996  1.00  0.00     0.097 C 
HETATM    2  C5  UNL     1      27.815   2.191  52.686  1.00  0.00     0.037 C 
HETATM    3  C6  UNL     1      27.948   1.294  53.828  1.00  0.00     0.031 C 
HETATM    4  C7  UNL     1      27.019   0.441  54.294  1.00  0.00     0.056 C 
HETATM    5  N2  UNL     1      26.698  -0.551  55.251  1.00  0.00    -0.280 N 
HETATM    6  N3  UNL     1      25.357  -0.894  55.141  1.00  0.00    -0.176 NA
HETATM    7  C8  UNL     1      24.782  -0.199  54.216  1.00  0.00     0.093 C 
HETATM    8  C14 UNL     1      25.690   0.820  53.694  1.00  0.00     0.188 C 
HETATM    9  N5  UNL     1      25.706   1.165  52.346  1.00  0.00    -0.370 N 
HETATM   10  H8  UNL     1      27.499  -0.855  55.863  1.00  0.00     0.189 HD
HETATM   11  H14 UNL     1      25.172   0.860  51.484  1.00  0.00     0.161 HD
ENDROOT
BRANCH   1  12
HETATM   12  C3  UNL     1      26.478   3.066  50.837  1.00  0.00     0.268 C 
HETATM   13  N1  UNL     1      25.530   4.115  50.842  1.00  0.00    -0.347 N 
HETATM   14  H5  UNL     1      24.924   4.308  51.654  1.00  0.00     0.163 HD
HETATM   15  O1  UNL     1      27.163   2.917  49.806  1.00  0.00    -0.266 OA
BRANCH  13  16
HETATM   16  C2  UNL     1      25.336   4.993  49.724  1.00  0.00     0.114 C 
HETATM   17  C1  UNL     1      25.446   6.440  50.064  1.00  0.00     0.037 C 
BRANCH  16  18
HETATM   18  C15 UNL     1      24.113   4.668  48.956  1.00  0.00    -0.034 A 
HETATM   19  C16 UNL     1      23.373   5.562  48.216  1.00  0.00     0.009 A 
HETATM   20  C17 UNL     1      22.241   5.217  47.515  1.00  0.00     0.002 A 
HETATM   21  C18 UNL     1      21.803   3.911  47.540  1.00  0.00     0.024 A 
HETATM   22  C19 UNL     1      22.532   2.997  48.276  1.00  0.00     0.034 A 
HETATM   23 CL1  UNL     1      21.917   1.357  48.262  1.00  0.00    -0.084 Cl
HETATM   24  C20 UNL     1      23.656   3.372  48.964  1.00  0.00     0.033 A 
ENDBRANCH  16  18
ENDBRANCH  13  16
ENDBRANCH   1  12
BRANCH   7  25
HETATM   25  C9  UNL     1      23.369  -0.447  53.958  1.00  0.00    -0.005 A 
HETATM   26  C10 UNL     1      22.580  -1.259  54.740  1.00  0.00     0.033 A 
HETATM   27  C11 UNL     1      21.245  -1.488  54.505  1.00  0.00     0.117 A 
HETATM   28  N4  UNL     1      20.629  -0.909  53.464  1.00  0.00    -0.273 NA
HETATM   29  C12 UNL     1      21.328  -0.102  52.650  1.00  0.00     0.117 A 
HETATM   30  C13 UNL     1      22.664   0.115  52.903  1.00  0.00     0.033 A 
ENDBRANCH   7  25
TORSDOF 4
ENDMDL
MODEL 5
REMARK VINA RESULT:      -9.0      4.965      8.715
REMARK  4 active torsions:
REMARK  status: ('A' for Active; 'I' for Inactive)
REMARK    1  A    between atoms: C2_2  and  N1_3 
REMARK    2  A    between atoms: C2_2  and  C15_21 
REMARK       I    between atoms: N1_3  and  C3_4 
REMARK    3  A    between atoms: C3_4  and  C4_6 
REMARK    4  A    between atoms: C8_12  and  C9_13 
ROOT
HETATM    1  C4  UNL     1      26.933   4.913  49.065  1.00  0.00     0.097 C 
HETATM    2  C5  UNL     1      26.290   6.084  48.975  1.00  0.00     0.037 C 
HETATM    3  C6  UNL     1      26.961   7.185  48.293  1.00  0.00     0.031 C 
HETATM    4  C7  UNL     1      28.191   7.165  47.750  1.00  0.00     0.056 C 
HETATM    5  N2  UNL     1      29.181   7.882  47.037  1.00  0.00    -0.280 N 
HETATM    6  N3  UNL     1      30.346   7.130  46.966  1.00  0.00    -0.176 NA
HETATM    7  C8  UNL     1      30.203   6.005  47.585  1.00  0.00     0.093 C 
HETATM    8  C14 UNL     1      28.919   5.957  48.281  1.00  0.00     0.188 C 
HETATM    9  N5  UNL     1      28.175   4.785  48.365  1.00  0.00    -0.370 N 
HETATM   10  H8  UNL     1      28.881   8.829  46.689  1.00  0.00     0.189 HD
HETATM   11  H14 UNL     1      28.298   3.789  48.025  1.00  0.00     0.161 HD
ENDROOT
BRANCH   1  12
HETATM   12  C3  UNL     1      26.300   3.769  49.758  1.00  0.00     0.268 C 
HETATM   13  N1  UNL     1      26.684   3.369  51.058  1.00  0.00    -0.347 N 
HETATM   14  H5  UNL     1      27.423   3.853  51.590  1.00  0.00     0.163 HD
HETATM   15  O1  UNL     1      25.395   3.118  49.200  1.00  0.00    -0.266 OA
BRANCH  13  16
HETATM   16  C2  UNL     1      26.079   2.261  51.740  1.00  0.00     0.114 C 
HETATM   17  C1  UNL     1      24.960   2.645  52.646  1.00  0.00     0.037 C 
BRANCH  16  18
HETATM   18  C15 UNL     1      27.079   1.384  52.391  1.00  0.00    -0.034 A 
HETATM   19  C16 UNL     1      28.172   1.814  53.109  1.00  0.00     0.009 A 
HETATM   20  C17 UNL     1      29.078   0.964  53.699  1.00  0.00     0.002 A 
HETATM   21  C18 UNL     1      28.904  -0.397  53.579  1.00  0.00     0.024 A 
HETATM   22  C19 UNL     1      27.813  -0.850  52.863  1.00  0.00     0.034 A 
HETATM   23 CL1  UNL     1      27.655  -2.591  52.753  1.00  0.00    -0.084 Cl
HETATM   24  C20 UNL     1      26.928   0.022  52.287  1.00  0.00     0.033 A 
ENDBRANCH  16  18
ENDBRANCH  13  16
ENDBRANCH   1  12
BRANCH   7  25
HETATM   25  C9  UNL     1      31.333   5.085  47.592  1.00  0.00    -0.005 A 
HETATM   26  C10 UNL     1      31.330   3.865  46.957  1.00  0.00     0.033 A 
HETATM   27  C11 UNL     1      32.397   2.998  46.954  1.00  0.00     0.117 A 
HETATM   28  N4  UNL     1      33.531   3.315  47.596  1.00  0.00    -0.273 NA
HETATM   29  C12 UNL     1      33.617   4.489  48.243  1.00  0.00     0.117 A 
HETATM   30  C13 UNL     1      32.537   5.342  48.233  1.00  0.00     0.033 A 
ENDBRANCH   7  25
TORSDOF 4
ENDMDL
MODEL 6
REMARK VINA RESULT:      -8.7      3.367      6.482
REMARK  4 active torsions:
REMARK  status: ('A' for Active; 'I' for Inactive)
REMARK    1  A    between atoms: C2_2  and  N1_3 
REMARK    2  A    between atoms: C2_2  and  C15_21 
REMARK       I    between atoms: N1_3  and  C3_4 
REMARK    3  A    between atoms: C3_4  and  C4_6 
REMARK    4  A    between atoms: C8_12  and  C9_13 
ROOT
HETATM    1  C4  UNL     1      22.670   2.920  49.934  1.00  0.00     0.097 C 
HETATM    2  C5  UNL     1      22.984   4.089  49.363  1.00  0.00     0.037 C 
HETATM    3  C6  UNL     1      24.373   4.531  49.425  1.00  0.00     0.031 C 
HETATM    4  C7  UNL     1      25.395   3.895  50.024  1.00  0.00     0.056 C 
HETATM    5  N2  UNL     1      26.779   3.895  50.318  1.00  0.00    -0.280 N 
HETATM    6  N3  UNL     1      27.076   2.849  51.182  1.00  0.00    -0.176 NA
HETATM    7  C8  UNL     1      26.007   2.189  51.485  1.00  0.00     0.093 C 
HETATM    8  C14 UNL     1      24.821   2.848  50.944  1.00  0.00     0.188 C 
HETATM    9  N5  UNL     1      23.744   2.123  50.445  1.00  0.00    -0.370 N 
HETATM   10  H8  UNL     1      27.334   4.657  49.850  1.00  0.00     0.189 HD
HETATM   11  H14 UNL     1      23.513   1.094  50.339  1.00  0.00     0.161 HD
ENDROOT
BRANCH   1  12
HETATM   12  C3  UNL     1      21.273   2.433  49.909  1.00  0.00     0.268 C 
HETATM   13  N1  UNL     1      20.493   2.318  51.083  1.00  0.00    -0.347 N 
HETATM   14  H5  UNL     1      20.857   2.569  52.015  1.00  0.00     0.163 HD
HETATM   15  O1  UNL     1      20.740   2.104  48.831  1.00  0.00    -0.266 OA
BRANCH  13  16
HETATM   16  C2  UNL     1      19.138   1.846  51.072  1.00  0.00     0.114 C 
HETATM   17  C1  UNL     1      18.125   2.906  51.342  1.00  0.00     0.037 C 
BRANCH  16  18
HETATM   18  C15 UNL     1      18.954   0.639  51.910  1.00  0.00    -0.034 A 
HETATM   19  C16 UNL     1      17.815  -0.132  51.960  1.00  0.00     0.009 A 
HETATM   20  C17 UNL     1      17.685  -1.248  52.753  1.00  0.00     0.002 A 
HETATM   21  C18 UNL     1      18.739  -1.635  53.552  1.00  0.00     0.024 A 
HETATM   22  C19 UNL     1      19.891  -0.874  53.517  1.00  0.00     0.034 A 
HETATM   23 CL1  UNL     1      21.189  -1.425  54.557  1.00  0.00    -0.084 Cl
HETATM   24  C20 UNL     1      19.990   0.232  52.716  1.00  0.00     0.033 A 
ENDBRANCH  16  18
ENDBRANCH  13  16
ENDBRANCH   1  12
BRANCH   7  25
HETATM   25  C9  UNL     1      26.146   1.043  52.375  1.00  0.00    -0.005 A 
HETATM   26  C10 UNL     1      26.601  -0.190  51.968  1.00  0.00     0.033 A 
HETATM   27  C11 UNL     1      26.741  -1.271  52.806  1.00  0.00     0.117 A 
HETATM   28  N4  UNL     1      26.428  -1.167  54.107  1.00  0.00    -0.273 NA
HETATM   29  C12 UNL     1      25.976   0.002  54.585  1.00  0.00     0.117 A 
HETATM   30  C13 UNL     1      25.843   1.072  53.729  1.00  0.00     0.033 A 
ENDBRANCH   7  25
TORSDOF 4
ENDMDL
MODEL 7
REMARK VINA RESULT:      -8.3      5.261      9.743
REMARK  4 active torsions:
REMARK  status: ('A' for Active; 'I' for Inactive)
REMARK    1  A    between atoms: C2_2  and  N1_3 
REMARK    2  A    between atoms: C2_2  and  C15_21 
REMARK       I    between atoms: N1_3  and  C3_4 
REMARK    3  A    between atoms: C3_4  and  C4_6 
REMARK    4  A    between atoms: C8_12  and  C9_13 
ROOT
HETATM    1  C4  UNL     1      27.115   5.889  48.957  1.00  0.00     0.097 C 
HETATM    2  C5  UNL     1      27.995   4.972  48.535  1.00  0.00     0.037 C 
HETATM    3  C6  UNL     1      29.314   5.430  48.115  1.00  0.00     0.031 C 
HETATM    4  C7  UNL     1      29.753   6.701  48.081  1.00  0.00     0.056 C 
HETATM    5  N2  UNL     1      30.832   7.573  47.805  1.00  0.00    -0.280 N 
HETATM    6  N3  UNL     1      30.408   8.892  47.902  1.00  0.00    -0.176 NA
HETATM    7  C8  UNL     1      29.151   8.947  48.196  1.00  0.00     0.093 C 
HETATM    8  C14 UNL     1      28.557   7.612  48.181  1.00  0.00     0.188 C 
HETATM    9  N5  UNL     1      27.579   7.236  49.096  1.00  0.00    -0.370 N 
HETATM   10  H8  UNL     1      31.744   7.096  47.582  1.00  0.00     0.189 HD
HETATM   11  H14 UNL     1      27.077   7.710  49.900  1.00  0.00     0.161 HD
ENDROOT
BRANCH   1  12
HETATM   12  C3  UNL     1      25.759   5.477  49.381  1.00  0.00     0.268 C 
HETATM   13  N1  UNL     1      25.519   4.827  50.614  1.00  0.00    -0.347 N 
HETATM   14  H5  UNL     1      26.275   4.609  51.280  1.00  0.00     0.163 HD
HETATM   15  O1  UNL     1      24.775   5.697  48.647  1.00  0.00    -0.266 OA
BRANCH  13  16
HETATM   16  C2  UNL     1      24.209   4.422  51.037  1.00  0.00     0.114 C 
HETATM   17  C1  UNL     1      23.485   5.451  51.837  1.00  0.00     0.037 C 
BRANCH  16  18
HETATM   18  C15 UNL     1      24.209   3.086  51.673  1.00  0.00    -0.034 A 
HETATM   19  C16 UNL     1      23.190   2.565  52.439  1.00  0.00     0.009 A 
HETATM   20  C17 UNL     1      23.231   1.316  53.013  1.00  0.00     0.002 A 
HETATM   21  C18 UNL     1      24.342   0.523  52.827  1.00  0.00     0.024 A 
HETATM   22  C19 UNL     1      25.376   1.026  52.061  1.00  0.00     0.034 A 
HETATM   23 CL1  UNL     1      26.755  -0.036  51.866  1.00  0.00    -0.084 Cl
HETATM   24  C20 UNL     1      25.306   2.275  51.502  1.00  0.00     0.033 A 
ENDBRANCH  16  18
ENDBRANCH  13  16
ENDBRANCH   1  12
BRANCH   7  25
HETATM   25  C9  UNL     1      28.547  10.264  48.352  1.00  0.00    -0.005 A 
HETATM   26  C10 UNL     1      27.230  10.540  48.065  1.00  0.00     0.033 A 
HETATM   27  C11 UNL     1      26.655  11.779  48.219  1.00  0.00     0.117 A 
HETATM   28  N4  UNL     1      27.379  12.813  48.673  1.00  0.00    -0.273 NA
HETATM   29  C12 UNL     1      28.674  12.628  48.976  1.00  0.00     0.117 A 
HETATM   30  C13 UNL     1      29.231  11.380  48.815  1.00  0.00     0.033 A 
ENDBRANCH   7  25
TORSDOF 4
ENDMDL
MODEL 8
REMARK VINA RESULT:      -8.1      2.296      4.647
REMARK  4 active torsions:
REMARK  status: ('A' for Active; 'I' for Inactive)
REMARK    1  A    between atoms: C2_2  and  N1_3 
REMARK    2  A    between atoms: C2_2  and  C15_21 
REMARK       I    between atoms: N1_3  and  C3_4 
REMARK    3  A    between atoms: C3_4  and  C4_6 
REMARK    4  A    between atoms: C8_12  and  C9_13 
ROOT
HETATM    1  C4  UNL     1      25.756   2.633  51.649  1.00  0.00     0.097 C 
HETATM    2  C5  UNL     1      27.034   2.380  51.954  1.00  0.00     0.037 C 
HETATM    3  C6  UNL     1      27.334   1.162  52.698  1.00  0.00     0.031 C 
HETATM    4  C7  UNL     1      26.449   0.252  53.143  1.00  0.00     0.056 C 
HETATM    5  N2  UNL     1      26.253  -0.974  53.821  1.00  0.00    -0.280 N 
HETATM    6  N3  UNL     1      24.895  -1.197  54.008  1.00  0.00    -0.176 NA
HETATM    7  C8  UNL     1      24.202  -0.217  53.530  1.00  0.00     0.093 C 
HETATM    8  C14 UNL     1      25.075   0.868  53.088  1.00  0.00     0.188 C 
HETATM    9  N5  UNL     1      24.790   1.622  51.954  1.00  0.00    -0.370 N 
HETATM   10  H8  UNL     1      27.135  -1.496  54.060  1.00  0.00     0.189 HD
HETATM   11  H14 UNL     1      24.014   1.633  51.232  1.00  0.00     0.161 HD
ENDROOT
BRANCH   1  12
HETATM   12  C3  UNL     1      25.399   3.862  50.906  1.00  0.00     0.268 C 
HETATM   13  N1  UNL     1      26.314   4.521  50.054  1.00  0.00    -0.347 N 
HETATM   14  H5  UNL     1      27.275   4.180  49.904  1.00  0.00     0.163 HD
HETATM   15  O1  UNL     1      24.259   4.356  51.018  1.00  0.00    -0.266 OA
BRANCH  13  16
HETATM   16  C2  UNL     1      25.980   5.714  49.328  1.00  0.00     0.114 C 
HETATM   17  C1  UNL     1      24.724   5.608  48.533  1.00  0.00     0.037 C 
BRANCH  16  18
HETATM   18  C15 UNL     1      27.122   6.237  48.545  1.00  0.00    -0.034 A 
HETATM   19  C16 UNL     1      28.362   5.647  48.449  1.00  0.00     0.009 A 
HETATM   20  C17 UNL     1      29.397   6.167  47.708  1.00  0.00     0.002 A 
HETATM   21  C18 UNL     1      29.207   7.342  47.015  1.00  0.00     0.024 A 
HETATM   22  C19 UNL     1      27.970   7.950  47.096  1.00  0.00     0.034 A 
HETATM   23 CL1  UNL     1      27.800   9.439  46.189  1.00  0.00    -0.084 Cl
HETATM   24  C20 UNL     1      26.958   7.407  47.843  1.00  0.00     0.033 A 
ENDBRANCH  16  18
ENDBRANCH  13  16
ENDBRANCH   1  12
BRANCH   7  25
HETATM   25  C9  UNL     1      22.750  -0.299  53.630  1.00  0.00    -0.005 A 
HETATM   26  C10 UNL     1      22.078  -1.405  54.096  1.00  0.00     0.033 A 
HETATM   27  C11 UNL     1      20.708  -1.483  54.200  1.00  0.00     0.117 A 
HETATM   28  N4  UNL     1      19.940  -0.446  53.838  1.00  0.00    -0.273 NA
HETATM   29  C12 UNL     1      20.518   0.673  53.372  1.00  0.00     0.117 A 
HETATM   30  C13 UNL     1      21.890   0.730  53.276  1.00  0.00     0.033 A 
ENDBRANCH   7  25
TORSDOF 4
ENDMDL
MODEL 9
REMARK VINA RESULT:      -8.0      2.308      3.456
REMARK  4 active torsions:
REMARK  status: ('A' for Active; 'I' for Inactive)
REMARK    1  A    between atoms: C2_2  and  N1_3 
REMARK    2  A    between atoms: C2_2  and  C15_21 
REMARK       I    between atoms: N1_3  and  C3_4 
REMARK    3  A    between atoms: C3_4  and  C4_6 
REMARK    4  A    between atoms: C8_12  and  C9_13 
ROOT
HETATM    1  C4  UNL     1      24.749   3.151  51.023  1.00  0.00     0.097 C 
HETATM    2  C5  UNL     1      23.424   3.034  50.873  1.00  0.00     0.037 C 
HETATM    3  C6  UNL     1      22.740   1.982  51.617  1.00  0.00     0.031 C 
HETATM    4  C7  UNL     1      23.305   1.079  52.438  1.00  0.00     0.056 C 
HETATM    5  N2  UNL     1      23.101  -0.013  53.314  1.00  0.00    -0.280 N 
HETATM    6  N3  UNL     1      24.326  -0.530  53.715  1.00  0.00    -0.176 NA
HETATM    7  C8  UNL     1      25.298   0.117  53.161  1.00  0.00     0.093 C 
HETATM    8  C14 UNL     1      24.790   1.077  52.183  1.00  0.00     0.188 C 
HETATM    9  N5  UNL     1      25.380   2.324  52.007  1.00  0.00    -0.370 N 
HETATM   10  H8  UNL     1      22.093  -0.243  53.512  1.00  0.00     0.189 HD
HETATM   11  H14 UNL     1      26.203   2.835  52.436  1.00  0.00     0.161 HD
ENDROOT
BRANCH   1  12
HETATM   12  C3  UNL     1      25.491   4.195  50.282  1.00  0.00     0.268 C 
HETATM   13  N1  UNL     1      24.985   5.504  50.112  1.00  0.00    -0.347 N 
HETATM   14  H5  UNL     1      24.075   5.799  50.497  1.00  0.00     0.163 HD
HETATM   15  O1  UNL     1      26.603   3.939  49.778  1.00  0.00    -0.266 OA
BRANCH  13  16
HETATM   16  C2  UNL     1      25.694   6.525  49.395  1.00  0.00     0.114 C 
HETATM   17  C1  UNL     1      26.122   7.675  50.241  1.00  0.00     0.037 C 
BRANCH  16  18
HETATM   18  C15 UNL     1      24.990   6.941  48.161  1.00  0.00    -0.034 A 
HETATM   19  C16 UNL     1      25.473   7.829  47.226  1.00  0.00     0.009 A 
HETATM   20  C17 UNL     1      24.785   8.189  46.091  1.00  0.00     0.002 A 
HETATM   21  C18 UNL     1      23.541   7.645  45.855  1.00  0.00     0.024 A 
HETATM   22  C19 UNL     1      23.038   6.752  46.780  1.00  0.00     0.034 A 
HETATM   23 CL1  UNL     1      21.453   6.101  46.414  1.00  0.00    -0.084 Cl
HETATM   24  C20 UNL     1      23.748   6.413  47.902  1.00  0.00     0.033 A 
ENDBRANCH  16  18
ENDBRANCH  13  16
ENDBRANCH   1  12
BRANCH   7  25
HETATM   25  C9  UNL     1      26.659  -0.289  53.488  1.00  0.00    -0.005 A 
HETATM   26  C10 UNL     1      27.432   0.328  54.443  1.00  0.00     0.033 A 
HETATM   27  C11 UNL     1      28.713  -0.058  54.761  1.00  0.00     0.117 A 
HETATM   28  N4  UNL     1      29.287  -1.093  54.130  1.00  0.00    -0.273 NA
HETATM   29  C12 UNL     1      28.600  -1.750  53.182  1.00  0.00     0.117 A 
HETATM   30  C13 UNL     1      27.319  -1.348  52.880  1.00  0.00     0.033 A 
ENDBRANCH   7  25
TORSDOF 4
ENDMDL
