MODEL 1
REMARK VINA RESULT:      -9.1      0.000      0.000
REMARK  2 active torsions:
REMARK  status: ('A' for Active; 'I' for Inactive)
REMARK    1  A    between atoms: C10_12  and  C11_13 
REMARK    2  A    between atoms: C11_13  and  C12_14 
ROOT
HETATM    1  C1  UNL     1      26.788   1.160  51.848  1.00  0.00     0.062 C 
HETATM    2  C2  UNL     1      25.813   0.297  52.496  1.00  0.00     0.014 C 
HETATM    3 CL1  UNL     1      26.509  -1.229  52.979  1.00  0.00    -0.089 Cl
HETATM    4  C3  UNL     1      24.581   0.656  52.669  1.00  0.00    -0.041 C 
HETATM    5  C4  UNL     1      23.704  -0.376  53.369  1.00  0.00     0.004 C 
HETATM    6  C5  UNL     1      22.400  -0.443  53.796  1.00  0.00    -0.024 C 
HETATM    7  C6  UNL     1      21.565   0.691  53.605  1.00  0.00     0.047 C 
HETATM    8  C7  UNL     1      20.390   0.812  52.703  1.00  0.00     0.122 C 
HETATM    9  N1  UNL     1      20.084   2.285  52.586  1.00  0.00    -0.399 N 
HETATM   10  C8  UNL     1      21.070   3.100  51.891  1.00  0.00     0.079 C 
HETATM   11  C9  UNL     1      22.341   3.348  51.486  1.00  0.00    -0.005 C 
HETATM   12  C10 UNL     1      23.834   2.924  51.448  1.00  0.00     0.018 C 
HETATM   13  C20 UNL     1      23.748   1.725  52.271  1.00  0.00     0.048 C 
HETATM   14  H10 UNL     1      19.258   2.763  52.963  1.00  0.00     0.158 HD
ENDROOT
BRANCH  12  15
HETATM   15  C11 UNL     1      24.196   2.724  50.017  1.00  0.00     0.047 C 
BRANCH  15  16
HETATM   16  C12 UNL     1      25.085   3.834  49.540  1.00  0.00    -0.055 A 
HETATM   17  C13 UNL     1      24.459   5.017  49.180  1.00  0.00     0.010 A 
HETATM   18  C14 UNL     1      25.121   6.159  48.725  1.00  0.00     0.040 A 
HETATM   19  C15 UNL     1      26.505   6.106  48.627  1.00  0.00     0.102 A 
HETATM   20  C16 UNL     1      27.126   4.938  48.983  1.00  0.00     0.102 A 
HETATM   21  O2  UNL     1      27.222   7.204  48.182  1.00  0.00    -0.346 OA
HETATM   22  C17 UNL     1      26.470   3.818  49.430  1.00  0.00     0.046 A 
HETATM   23  O1  UNL     1      28.507   4.909  48.877  1.00  0.00    -0.346 OA
HETATM   24  C18 UNL     1      29.129   5.799  47.936  1.00  0.00     0.202 C 
HETATM   25  C19 UNL     1      28.623   7.184  48.287  1.00  0.00     0.202 C 
ENDBRANCH  15  16
ENDBRANCH  12  15
TORSDOF 2
ENDMDL
MODEL 2
REMARK VINA RESULT:      -9.1      4.206      5.866
REMARK  2 active torsions:
REMARK  status: ('A' for Active; 'I' for Inactive)
REMARK    1  A    between atoms: C10_12  and  C11_13 
REMARK    2  A    between atoms: C11_13  and  C12_14 
ROOT
HETATM    1  C1  UNL     1      23.502   2.128  50.098  1.00  0.00     0.062 C 
HETATM    2  C2  UNL     1      22.054   2.017  50.015  1.00  0.00     0.014 C 
HETATM    3 CL1  UNL     1      21.378   3.132  48.855  1.00  0.00    -0.089 Cl
HETATM    4  C3  UNL     1      21.385   1.177  50.738  1.00  0.00    -0.041 C 
HETATM    5  C4  UNL     1      19.876   1.197  50.514  1.00  0.00     0.004 C 
HETATM    6  C5  UNL     1      18.793   0.499  50.991  1.00  0.00    -0.024 C 
HETATM    7  C6  UNL     1      19.020  -0.548  51.925  1.00  0.00     0.047 C 
HETATM    8  C7  UNL     1      18.625  -0.588  53.357  1.00  0.00     0.122 C 
HETATM    9  N1  UNL     1      19.401  -1.718  53.987  1.00  0.00    -0.399 N 
HETATM   10  C8  UNL     1      20.841  -1.540  54.088  1.00  0.00     0.079 C 
HETATM   11  C9  UNL     1      22.010  -1.000  53.659  1.00  0.00    -0.005 C 
HETATM   12  C10 UNL     1      22.767  -0.087  52.657  1.00  0.00     0.018 C 
HETATM   13  C20 UNL     1      21.645   0.294  51.808  1.00  0.00     0.048 C 
HETATM   14  H10 UNL     1      19.009  -2.601  54.336  1.00  0.00     0.158 HD
ENDROOT
BRANCH  12  15
HETATM   15  C11 UNL     1      23.402   1.001  53.451  1.00  0.00     0.047 C 
BRANCH  15  16
HETATM   16  C12 UNL     1      24.892   0.829  53.481  1.00  0.00    -0.055 A 
HETATM   17  C13 UNL     1      25.650   1.988  53.440  1.00  0.00     0.010 A 
HETATM   18  C14 UNL     1      27.045   2.026  53.471  1.00  0.00     0.040 A 
HETATM   19  C15 UNL     1      27.722   0.815  53.548  1.00  0.00     0.102 A 
HETATM   20  C16 UNL     1      26.974  -0.332  53.589  1.00  0.00     0.102 A 
HETATM   21  O2  UNL     1      29.106   0.783  53.582  1.00  0.00    -0.346 OA
HETATM   22  C17 UNL     1      25.602  -0.363  53.559  1.00  0.00     0.046 A 
HETATM   23  O1  UNL     1      27.671  -1.527  53.667  1.00  0.00    -0.346 OA
HETATM   24  C18 UNL     1      29.013  -1.558  53.155  1.00  0.00     0.202 C 
HETATM   25  C19 UNL     1      29.746  -0.436  53.862  1.00  0.00     0.202 C 
ENDBRANCH  15  16
ENDBRANCH  12  15
TORSDOF 2
ENDMDL
MODEL 3
REMARK VINA RESULT:      -8.8      3.855      5.505
REMARK  2 active torsions:
REMARK  status: ('A' for Active; 'I' for Inactive)
REMARK    1  A    between atoms: C10_12  and  C11_13 
REMARK    2  A    between atoms: C11_13  and  C12_14 
ROOT
HETATM    1  C1  UNL     1      23.219  -0.578  53.849  1.00  0.00     0.062 C 
HETATM    2  C2  UNL     1      21.897  -0.078  53.505  1.00  0.00     0.014 C 
HETATM    3 CL1  UNL     1      20.649  -1.255  53.825  1.00  0.00    -0.089 Cl
HETATM    4  C3  UNL     1      21.714   1.107  53.017  1.00  0.00    -0.041 C 
HETATM    5  C4  UNL     1      20.261   1.461  52.719  1.00  0.00     0.004 C 
HETATM    6  C5  UNL     1      19.583   2.561  52.252  1.00  0.00    -0.024 C 
HETATM    7  C6  UNL     1      20.324   3.737  51.953  1.00  0.00     0.047 C 
HETATM    8  C7  UNL     1      20.558   4.349  50.620  1.00  0.00     0.122 C 
HETATM    9  N1  UNL     1      21.682   5.340  50.790  1.00  0.00    -0.399 N 
HETATM   10  C8  UNL     1      22.995   4.788  51.090  1.00  0.00     0.079 C 
HETATM   11  C9  UNL     1      23.792   3.820  51.609  1.00  0.00    -0.005 C 
HETATM   12  C10 UNL     1      23.929   2.454  52.333  1.00  0.00     0.018 C 
HETATM   13  C20 UNL     1      22.517   2.168  52.545  1.00  0.00     0.048 C 
HETATM   14  H10 UNL     1      21.602   6.362  50.728  1.00  0.00     0.158 HD
ENDROOT
BRANCH  12  15
HETATM   15  C11 UNL     1      24.663   1.542  51.412  1.00  0.00     0.047 C 
BRANCH  15  16
HETATM   16  C12 UNL     1      25.954   1.097  52.031  1.00  0.00    -0.055 A 
HETATM   17  C13 UNL     1      26.843   2.096  52.394  1.00  0.00     0.010 A 
HETATM   18  C14 UNL     1      28.085   1.876  52.991  1.00  0.00     0.040 A 
HETATM   19  C15 UNL     1      28.457   0.561  53.240  1.00  0.00     0.102 A 
HETATM   20  C16 UNL     1      27.580  -0.428  52.882  1.00  0.00     0.102 A 
HETATM   21  O2  UNL     1      29.676   0.273  53.830  1.00  0.00    -0.346 OA
HETATM   22  C17 UNL     1      26.359  -0.206  52.294  1.00  0.00     0.046 A 
HETATM   23  O1  UNL     1      27.973  -1.732  53.140  1.00  0.00    -0.346 OA
HETATM   24  C18 UNL     1      29.380  -2.009  53.217  1.00  0.00     0.202 C 
HETATM   25  C19 UNL     1      29.931  -1.044  54.248  1.00  0.00     0.202 C 
ENDBRANCH  15  16
ENDBRANCH  12  15
TORSDOF 2
ENDMDL
MODEL 4
REMARK VINA RESULT:      -8.8      3.461      5.926
REMARK  2 active torsions:
REMARK  status: ('A' for Active; 'I' for Inactive)
REMARK    1  A    between atoms: C10_12  and  C11_13 
REMARK    2  A    between atoms: C11_13  and  C12_14 
ROOT
HETATM    1  C1  UNL     1      26.407   3.486  50.155  1.00  0.00     0.062 C 
HETATM    2  C2  UNL     1      25.150   4.121  49.789  1.00  0.00     0.014 C 
HETATM    3 CL1  UNL     1      25.392   5.496  48.740  1.00  0.00    -0.089 Cl
HETATM    4  C3  UNL     1      24.008   3.687  50.217  1.00  0.00    -0.041 C 
HETATM    5  C4  UNL     1      22.797   4.475  49.728  1.00  0.00     0.004 C 
HETATM    6  C5  UNL     1      21.433   4.386  49.867  1.00  0.00    -0.024 C 
HETATM    7  C6  UNL     1      20.899   3.310  50.627  1.00  0.00     0.047 C 
HETATM    8  C7  UNL     1      20.192   3.383  51.932  1.00  0.00     0.122 C 
HETATM    9  N1  UNL     1      20.157   1.980  52.484  1.00  0.00    -0.399 N 
HETATM   10  C8  UNL     1      21.435   1.405  52.878  1.00  0.00     0.079 C 
HETATM   11  C9  UNL     1      22.785   1.312  52.772  1.00  0.00    -0.005 C 
HETATM   12  C10 UNL     1      24.104   1.784  52.103  1.00  0.00     0.018 C 
HETATM   13  C20 UNL     1      23.546   2.728  51.145  1.00  0.00     0.048 C 
HETATM   14  H10 UNL     1      19.322   1.393  52.594  1.00  0.00     0.158 HD
ENDROOT
BRANCH  12  15
HETATM   15  C11 UNL     1      24.961   2.354  53.180  1.00  0.00     0.047 C 
BRANCH  15  16
HETATM   16  C12 UNL     1      26.244   1.586  53.293  1.00  0.00    -0.055 A 
HETATM   17  C13 UNL     1      27.406   2.334  53.394  1.00  0.00     0.010 A 
HETATM   18  C14 UNL     1      28.688   1.796  53.518  1.00  0.00     0.040 A 
HETATM   19  C15 UNL     1      28.808   0.413  53.543  1.00  0.00     0.102 A 
HETATM   20  C16 UNL     1      27.660  -0.328  53.444  1.00  0.00     0.102 A 
HETATM   21  O2  UNL     1      30.051  -0.185  53.665  1.00  0.00    -0.346 OA
HETATM   22  C17 UNL     1      26.401   0.206  53.323  1.00  0.00     0.046 A 
HETATM   23  O1  UNL     1      27.804  -1.706  53.473  1.00  0.00    -0.346 OA
HETATM   24  C18 UNL     1      29.060  -2.261  53.049  1.00  0.00     0.202 C 
HETATM   25  C19 UNL     1      30.116  -1.570  53.888  1.00  0.00     0.202 C 
ENDBRANCH  15  16
ENDBRANCH  12  15
TORSDOF 2
ENDMDL
MODEL 5
REMARK VINA RESULT:      -8.7      4.175      5.993
REMARK  2 active torsions:
REMARK  status: ('A' for Active; 'I' for Inactive)
REMARK    1  A    between atoms: C10_12  and  C11_13 
REMARK    2  A    between atoms: C11_13  and  C12_14 
ROOT
HETATM    1  C1  UNL     1      20.774  -0.995  53.809  1.00  0.00     0.062 C 
HETATM    2  C2  UNL     1      19.691  -0.293  53.137  1.00  0.00     0.014 C 
HETATM    3 CL1  UNL     1      18.244  -1.264  53.036  1.00  0.00    -0.089 Cl
HETATM    4  C3  UNL     1      19.830   0.911  52.678  1.00  0.00    -0.041 C 
HETATM    5  C4  UNL     1      18.588   1.488  52.007  1.00  0.00     0.004 C 
HETATM    6  C5  UNL     1      18.239   2.684  51.428  1.00  0.00    -0.024 C 
HETATM    7  C6  UNL     1      19.198   3.733  51.408  1.00  0.00     0.047 C 
HETATM    8  C7  UNL     1      19.886   4.312  50.225  1.00  0.00     0.122 C 
HETATM    9  N1  UNL     1      21.049   5.115  50.751  1.00  0.00    -0.399 N 
HETATM   10  C8  UNL     1      22.128   4.363  51.375  1.00  0.00     0.079 C 
HETATM   11  C9  UNL     1      22.596   3.278  52.045  1.00  0.00    -0.005 C 
HETATM   12  C10 UNL     1      22.321   1.902  52.707  1.00  0.00     0.018 C 
HETATM   13  C20 UNL     1      20.879   1.838  52.504  1.00  0.00     0.048 C 
HETATM   14  H10 UNL     1      21.142   6.137  50.723  1.00  0.00     0.158 HD
ENDROOT
BRANCH  12  15
HETATM   15  C11 UNL     1      23.142   0.895  51.980  1.00  0.00     0.047 C 
BRANCH  15  16
HETATM   16  C12 UNL     1      24.428   0.641  52.708  1.00  0.00    -0.055 A 
HETATM   17  C13 UNL     1      24.366  -0.213  53.797  1.00  0.00     0.010 A 
HETATM   18  C14 UNL     1      25.458  -0.574  54.587  1.00  0.00     0.040 A 
HETATM   19  C15 UNL     1      26.697  -0.041  54.257  1.00  0.00     0.102 A 
HETATM   20  C16 UNL     1      26.762   0.803  53.181  1.00  0.00     0.102 A 
HETATM   21  O2  UNL     1      27.822  -0.359  55.000  1.00  0.00    -0.346 OA
HETATM   22  C17 UNL     1      25.684   1.156  52.407  1.00  0.00     0.046 A 
HETATM   23  O1  UNL     1      28.008   1.323  52.870  1.00  0.00    -0.346 OA
HETATM   24  C18 UNL     1      28.977   1.425  53.926  1.00  0.00     0.202 C 
HETATM   25  C19 UNL     1      29.082   0.035  54.521  1.00  0.00     0.202 C 
ENDBRANCH  15  16
ENDBRANCH  12  15
TORSDOF 2
ENDMDL
MODEL 6
REMARK VINA RESULT:      -8.6      3.261      6.049
REMARK  2 active torsions:
REMARK  status: ('A' for Active; 'I' for Inactive)
REMARK    1  A    between atoms: C10_12  and  C11_13 
REMARK    2  A    between atoms: C11_13  and  C12_14 
ROOT
HETATM    1  C1  UNL     1      26.662   3.233  50.042  1.00  0.00     0.062 C 
HETATM    2  C2  UNL     1      25.760   4.250  49.525  1.00  0.00     0.014 C 
HETATM    3 CL1  UNL     1      26.608   5.477  48.618  1.00  0.00    -0.089 Cl
HETATM    4  C3  UNL     1      24.484   4.214  49.740  1.00  0.00    -0.041 C 
HETATM    5  C4  UNL     1      23.695   5.362  49.118  1.00  0.00     0.004 C 
HETATM    6  C5  UNL     1      22.373   5.727  49.035  1.00  0.00    -0.024 C 
HETATM    7  C6  UNL     1      21.398   4.881  49.631  1.00  0.00     0.047 C 
HETATM    8  C7  UNL     1      20.544   5.172  50.811  1.00  0.00     0.122 C 
HETATM    9  N1  UNL     1      19.963   3.853  51.260  1.00  0.00    -0.399 N 
HETATM   10  C8  UNL     1      20.899   2.885  51.811  1.00  0.00     0.079 C 
HETATM   11  C9  UNL     1      22.144   2.353  51.912  1.00  0.00    -0.005 C 
HETATM   12  C10 UNL     1      23.637   2.368  51.491  1.00  0.00     0.018 C 
HETATM   13  C20 UNL     1      23.586   3.452  50.519  1.00  0.00     0.048 C 
HETATM   14  H10 UNL     1      18.977   3.574  51.198  1.00  0.00     0.158 HD
ENDROOT
BRANCH  12  15
HETATM   15  C11 UNL     1      24.437   2.614  52.723  1.00  0.00     0.047 C 
BRANCH  15  16
HETATM   16  C12 UNL     1      25.455   1.529  52.914  1.00  0.00    -0.055 A 
HETATM   17  C13 UNL     1      24.985   0.226  52.873  1.00  0.00     0.010 A 
HETATM   18  C14 UNL     1      25.782  -0.911  53.019  1.00  0.00     0.040 A 
HETATM   19  C15 UNL     1      27.143  -0.723  53.220  1.00  0.00     0.102 A 
HETATM   20  C16 UNL     1      27.610   0.564  53.261  1.00  0.00     0.102 A 
HETATM   21  O2  UNL     1      27.989  -1.808  53.373  1.00  0.00    -0.346 OA
HETATM   22  C17 UNL     1      26.821   1.679  53.116  1.00  0.00     0.046 A 
HETATM   23  O1  UNL     1      28.971   0.727  53.462  1.00  0.00    -0.346 OA
HETATM   24  C18 UNL     1      29.681  -0.320  54.143  1.00  0.00     0.202 C 
HETATM   25  C19 UNL     1      29.377  -1.589  53.372  1.00  0.00     0.202 C 
ENDBRANCH  15  16
ENDBRANCH  12  15
TORSDOF 2
ENDMDL
MODEL 7
REMARK VINA RESULT:      -8.5      3.532      5.853
REMARK  2 active torsions:
REMARK  status: ('A' for Active; 'I' for Inactive)
REMARK    1  A    between atoms: C10_12  and  C11_13 
REMARK    2  A    between atoms: C11_13  and  C12_14 
ROOT
HETATM    1  C1  UNL     1      24.785   3.208  49.947  1.00  0.00     0.062 C 
HETATM    2  C2  UNL     1      23.491   3.591  49.405  1.00  0.00     0.014 C 
HETATM    3 CL1  UNL     1      23.599   5.007  48.389  1.00  0.00    -0.089 Cl
HETATM    4  C3  UNL     1      22.409   2.932  49.673  1.00  0.00    -0.041 C 
HETATM    5  C4  UNL     1      21.146   3.477  49.013  1.00  0.00     0.004 C 
HETATM    6  C5  UNL     1      19.821   3.118  48.961  1.00  0.00    -0.024 C 
HETATM    7  C6  UNL     1      19.409   1.944  49.648  1.00  0.00     0.047 C 
HETATM    8  C7  UNL     1      18.529   1.851  50.841  1.00  0.00     0.122 C 
HETATM    9  N1  UNL     1      18.695   0.457  51.394  1.00  0.00    -0.399 N 
HETATM   10  C8  UNL     1      19.994   0.137  51.966  1.00  0.00     0.079 C 
HETATM   11  C9  UNL     1      21.338   0.313  52.051  1.00  0.00    -0.005 C 
HETATM   12  C10 UNL     1      22.617   1.047  51.569  1.00  0.00     0.018 C 
HETATM   13  C20 UNL     1      22.022   1.883  50.534  1.00  0.00     0.048 C 
HETATM   14  H10 UNL     1      17.985  -0.284  51.390  1.00  0.00     0.158 HD
ENDROOT
BRANCH  12  15
HETATM   15  C11 UNL     1      23.188   1.754  52.749  1.00  0.00     0.047 C 
BRANCH  15  16
HETATM   16  C12 UNL     1      24.539   1.201  53.090  1.00  0.00    -0.055 A 
HETATM   17  C13 UNL     1      24.650  -0.179  53.135  1.00  0.00     0.010 A 
HETATM   18  C14 UNL     1      25.827  -0.873  53.423  1.00  0.00     0.040 A 
HETATM   19  C15 UNL     1      26.968  -0.126  53.683  1.00  0.00     0.102 A 
HETATM   20  C16 UNL     1      26.861   1.239  53.640  1.00  0.00     0.102 A 
HETATM   21  O2  UNL     1      28.168  -0.752  53.976  1.00  0.00    -0.346 OA
HETATM   22  C17 UNL     1      25.701   1.916  53.356  1.00  0.00     0.046 A 
HETATM   23  O1  UNL     1      28.013   1.963  53.902  1.00  0.00    -0.346 OA
HETATM   24  C18 UNL     1      29.028   1.344  54.710  1.00  0.00     0.202 C 
HETATM   25  C19 UNL     1      29.338   0.023  54.035  1.00  0.00     0.202 C 
ENDBRANCH  15  16
ENDBRANCH  12  15
TORSDOF 2
ENDMDL
MODEL 8
REMARK VINA RESULT:      -8.3      4.166      7.284
REMARK  2 active torsions:
REMARK  status: ('A' for Active; 'I' for Inactive)
REMARK    1  A    between atoms: C10_12  and  C11_13 
REMARK    2  A    between atoms: C11_13  and  C12_14 
ROOT
HETATM    1  C1  UNL     1      23.848   3.871  50.011  1.00  0.00     0.062 C 
HETATM    2  C2  UNL     1      25.156   3.339  50.362  1.00  0.00     0.014 C 
HETATM    3 CL1  UNL     1      26.422   4.002  49.358  1.00  0.00    -0.089 Cl
HETATM    4  C3  UNL     1      25.317   2.474  51.311  1.00  0.00    -0.041 C 
HETATM    5  C4  UNL     1      26.759   2.032  51.539  1.00  0.00     0.004 C 
HETATM    6  C5  UNL     1      27.415   1.201  52.415  1.00  0.00    -0.024 C 
HETATM    7  C6  UNL     1      26.657   0.545  53.423  1.00  0.00     0.047 C 
HETATM    8  C7  UNL     1      26.381  -0.909  53.549  1.00  0.00     0.122 C 
HETATM    9  N1  UNL     1      25.255  -1.052  54.543  1.00  0.00    -0.399 N 
HETATM   10  C8  UNL     1      23.956  -0.545  54.129  1.00  0.00     0.079 C 
HETATM   11  C9  UNL     1      23.180   0.294  53.395  1.00  0.00    -0.005 C 
HETATM   12  C10 UNL     1      23.073   1.440  52.354  1.00  0.00     0.018 C 
HETATM   13  C20 UNL     1      24.493   1.696  52.153  1.00  0.00     0.048 C 
HETATM   14  H10 UNL     1      25.326  -1.458  55.483  1.00  0.00     0.158 HD
ENDROOT
BRANCH  12  15
HETATM   15  C11 UNL     1      22.321   0.904  51.187  1.00  0.00     0.047 C 
BRANCH  15  16
HETATM   16  C12 UNL     1      20.867   1.258  51.290  1.00  0.00    -0.055 A 
HETATM   17  C13 UNL     1      19.965   0.214  51.167  1.00  0.00     0.010 A 
HETATM   18  C14 UNL     1      18.578   0.349  51.247  1.00  0.00     0.040 A 
HETATM   19  C15 UNL     1      18.065   1.621  51.465  1.00  0.00     0.102 A 
HETATM   20  C16 UNL     1      18.955   2.655  51.587  1.00  0.00     0.102 A 
HETATM   21  O2  UNL     1      16.698   1.824  51.554  1.00  0.00    -0.346 OA
HETATM   22  C17 UNL     1      20.319   2.517  51.508  1.00  0.00     0.046 A 
HETATM   23  O1  UNL     1      18.421   3.915  51.805  1.00  0.00    -0.346 OA
HETATM   24  C18 UNL     1      17.081   4.165  51.350  1.00  0.00     0.202 C 
HETATM   25  C19 UNL     1      16.227   3.079  51.973  1.00  0.00     0.202 C 
ENDBRANCH  15  16
ENDBRANCH  12  15
TORSDOF 2
ENDMDL
MODEL 9
REMARK VINA RESULT:      -8.3      4.347      6.992
REMARK  2 active torsions:
REMARK  status: ('A' for Active; 'I' for Inactive)
REMARK    1  A    between atoms: C10_12  and  C11_13 
REMARK    2  A    between atoms: C11_13  and  C12_14 
ROOT
HETATM    1  C1  UNL     1      21.532  -0.499  53.534  1.00  0.00     0.062 C 
HETATM    2  C2  UNL     1      22.886  -0.687  54.034  1.00  0.00     0.014 C 
HETATM    3 CL1  UNL     1      22.935  -1.782  55.392  1.00  0.00    -0.089 Cl
HETATM    4  C3  UNL     1      23.905  -0.090  53.505  1.00  0.00    -0.041 C 
HETATM    5  C4  UNL     1      25.246  -0.409  54.157  1.00  0.00     0.004 C 
HETATM    6  C5  UNL     1      26.560  -0.071  53.942  1.00  0.00    -0.024 C 
HETATM    7  C6  UNL     1      26.870   0.776  52.843  1.00  0.00     0.047 C 
HETATM    8  C7  UNL     1      27.385   2.169  52.888  1.00  0.00     0.122 C 
HETATM    9  N1  UNL     1      27.200   2.743  51.505  1.00  0.00    -0.399 N 
HETATM   10  C8  UNL     1      25.829   2.954  51.068  1.00  0.00     0.079 C 
HETATM   11  C9  UNL     1      24.505   2.654  51.102  1.00  0.00    -0.005 C 
HETATM   12  C10 UNL     1      23.350   1.792  51.678  1.00  0.00     0.018 C 
HETATM   13  C20 UNL     1      24.131   0.910  52.534  1.00  0.00     0.048 C 
HETATM   14  H10 UNL     1      27.949   2.982  50.845  1.00  0.00     0.158 HD
ENDROOT
BRANCH  12  15
HETATM   15  C11 UNL     1      22.408   2.723  52.361  1.00  0.00     0.047 C 
BRANCH  15  16
HETATM   16  C12 UNL     1      21.044   2.638  51.742  1.00  0.00    -0.055 A 
HETATM   17  C13 UNL     1      20.912   1.798  50.648  1.00  0.00     0.010 A 
HETATM   18  C14 UNL     1      19.722   1.583  49.951  1.00  0.00     0.040 A 
HETATM   19  C15 UNL     1      18.589   2.259  50.385  1.00  0.00     0.102 A 
HETATM   20  C16 UNL     1      18.718   3.090  51.467  1.00  0.00     0.102 A 
HETATM   21  O2  UNL     1      17.377   2.091  49.738  1.00  0.00    -0.346 OA
HETATM   22  C17 UNL     1      19.891   3.298  52.149  1.00  0.00     0.046 A 
HETATM   23  O1  UNL     1      17.574   3.753  51.882  1.00  0.00    -0.346 OA
HETATM   24  C18 UNL     1      16.542   3.987  50.911  1.00  0.00     0.202 C 
HETATM   25  C19 UNL     1      16.218   2.629  50.322  1.00  0.00     0.202 C 
ENDBRANCH  15  16
ENDBRANCH  12  15
TORSDOF 2
ENDMDL
