MODEL 1
REMARK VINA RESULT:      -8.0      0.000      0.000
REMARK  6 active torsions:
REMARK  status: ('A' for Active; 'I' for Inactive)
REMARK    1  A    between atoms: C2_2  and  C3_3 
REMARK    2  A    between atoms: C4_4  and  C5_5 
REMARK    3  A    between atoms: C6_6  and  C7_7 
REMARK    4  A    between atoms: C7_7  and  N1_8 
REMARK    5  A    between atoms: C9_10  and  C10_11 
REMARK    6  A    between atoms: P1_19  and  C15_20 
ROOT
HETATM    1  C10 UNL     1      23.218   0.852  53.166  1.00  0.00    -0.003 C 
HETATM    2  C11 UNL     1      23.389   2.144  52.942  1.00  0.00     0.016 C 
HETATM    3  C12 UNL     1      24.684   2.786  53.074  1.00  0.00     0.033 C 
HETATM    4  C13 UNL     1      25.791   2.186  53.404  1.00  0.00     0.056 C 
HETATM    5  N2  UNL     1      27.145   2.553  53.612  1.00  0.00    -0.260 N 
HETATM    6  N3  UNL     1      28.075   1.897  54.364  1.00  0.00    -0.073 NA
HETATM    7  N4  UNL     1      27.939   0.867  55.010  1.00  0.00    -0.170 NA
HETATM    8  C14 UNL     1      26.714   0.108  55.106  1.00  0.00     0.214 C 
HETATM    9  P1  UNL     1      25.761   0.374  53.584  1.00  0.00    -0.049 P 
HETATM   10  C17 UNL     1      24.244  -0.082  53.623  1.00  0.00     0.024 C 
HETATM   11  H13 UNL     1      27.333   3.467  53.077  1.00  0.00     0.191 HD
ENDROOT
BRANCH   1  12
HETATM   12  C9  UNL     1      21.855   0.373  52.981  1.00  0.00     0.108 A 
HETATM   13  C8  UNL     1      21.026   0.549  51.896  1.00  0.00     0.148 A 
HETATM   14  N1  UNL     1      19.845  -0.052  52.128  1.00  0.00    -0.257 N 
HETATM   15  N6  UNL     1      19.946  -0.589  53.335  1.00  0.00    -0.066 NA
HETATM   16  N5  UNL     1      21.127  -0.347  53.852  1.00  0.00    -0.130 NA
BRANCH  14  17
HETATM   17  C7  UNL     1      18.634  -0.162  51.311  1.00  0.00     0.179 C 
BRANCH  17  18
HETATM   18  C6  UNL     1      17.489   0.184  52.169  1.00  0.00    -0.005 C 
HETATM   19  C5  UNL     1      16.574  -0.585  52.729  1.00  0.00    -0.002 C 
BRANCH  19  20
HETATM   20  C4  UNL     1      16.590  -2.028  52.546  1.00  0.00    -0.000 C 
HETATM   21  C3  UNL     1      17.128  -2.854  53.458  1.00  0.00    -0.001 C 
BRANCH  21  22
HETATM   22  C2  UNL     1      17.155  -4.302  53.294  1.00  0.00    -0.010 C 
HETATM   23  C1  UNL     1      16.346  -5.092  53.980  1.00  0.00     0.011 C 
ENDBRANCH  21  22
ENDBRANCH  19  20
ENDBRANCH  17  18
ENDBRANCH  14  17
ENDBRANCH   1  12
BRANCH   9  24
HETATM   24  C15 UNL     1      26.556  -0.429  52.168  1.00  0.00     0.037 C 
HETATM   25  C16 UNL     1      27.036  -1.812  52.553  1.00  0.00     0.010 C 
ENDBRANCH   9  24
TORSDOF 6
ENDMDL
MODEL 2
REMARK VINA RESULT:      -7.6      1.574      2.343
REMARK  6 active torsions:
REMARK  status: ('A' for Active; 'I' for Inactive)
REMARK    1  A    between atoms: C2_2  and  C3_3 
REMARK    2  A    between atoms: C4_4  and  C5_5 
REMARK    3  A    between atoms: C6_6  and  C7_7 
REMARK    4  A    between atoms: C7_7  and  N1_8 
REMARK    5  A    between atoms: C9_10  and  C10_11 
REMARK    6  A    between atoms: P1_19  and  C15_20 
ROOT
HETATM    1  C10 UNL     1      23.355   0.304  53.536  1.00  0.00    -0.003 C 
HETATM    2  C11 UNL     1      23.291   1.562  53.134  1.00  0.00     0.016 C 
HETATM    3  C12 UNL     1      24.477   2.382  52.970  1.00  0.00     0.033 C 
HETATM    4  C13 UNL     1      25.699   1.988  53.182  1.00  0.00     0.056 C 
HETATM    5  N2  UNL     1      26.997   2.557  53.117  1.00  0.00    -0.260 N 
HETATM    6  N3  UNL     1      28.117   2.145  53.778  1.00  0.00    -0.073 NA
HETATM    7  N4  UNL     1      28.237   1.209  54.557  1.00  0.00    -0.170 NA
HETATM    8  C14 UNL     1      27.170   0.316  54.945  1.00  0.00     0.214 C 
HETATM    9  P1  UNL     1      25.974   0.233  53.581  1.00  0.00    -0.049 P 
HETATM   10  C17 UNL     1      24.568  -0.410  53.926  1.00  0.00     0.024 C 
HETATM   11  H13 UNL     1      26.961   3.402  52.452  1.00  0.00     0.191 HD
ENDROOT
BRANCH   1  12
HETATM   12  C9  UNL     1      22.069  -0.373  53.639  1.00  0.00     0.108 A 
HETATM   13  C8  UNL     1      20.851   0.023  53.135  1.00  0.00     0.148 A 
HETATM   14  N1  UNL     1      19.913  -0.886  53.453  1.00  0.00    -0.257 N 
HETATM   15  N6  UNL     1      20.543  -1.827  54.142  1.00  0.00    -0.066 NA
HETATM   16  N5  UNL     1      21.818  -1.538  54.261  1.00  0.00    -0.130 NA
BRANCH  14  17
HETATM   17  C7  UNL     1      18.478  -0.945  53.165  1.00  0.00     0.179 C 
BRANCH  17  18
HETATM   18  C6  UNL     1      18.273  -0.384  51.820  1.00  0.00    -0.005 C 
HETATM   19  C5  UNL     1      17.194   0.133  51.262  1.00  0.00    -0.002 C 
BRANCH  19  20
HETATM   20  C4  UNL     1      15.938   0.219  51.991  1.00  0.00    -0.000 C 
HETATM   21  C3  UNL     1      15.346   1.397  52.250  1.00  0.00    -0.001 C 
BRANCH  21  22
HETATM   22  C2  UNL     1      14.089   1.506  52.979  1.00  0.00    -0.010 C 
HETATM   23  C1  UNL     1      13.532   0.456  53.559  1.00  0.00     0.011 C 
ENDBRANCH  21  22
ENDBRANCH  19  20
ENDBRANCH  17  18
ENDBRANCH  14  17
ENDBRANCH   1  12
BRANCH   9  24
HETATM   24  C15 UNL     1      26.667  -0.653  52.160  1.00  0.00     0.037 C 
HETATM   25  C16 UNL     1      27.028  -2.069  52.552  1.00  0.00     0.010 C 
ENDBRANCH   9  24
TORSDOF 6
ENDMDL
MODEL 3
REMARK VINA RESULT:      -7.3      2.470      4.509
REMARK  6 active torsions:
REMARK  status: ('A' for Active; 'I' for Inactive)
REMARK    1  A    between atoms: C2_2  and  C3_3 
REMARK    2  A    between atoms: C4_4  and  C5_5 
REMARK    3  A    between atoms: C6_6  and  C7_7 
REMARK    4  A    between atoms: C7_7  and  N1_8 
REMARK    5  A    between atoms: C9_10  and  C10_11 
REMARK    6  A    between atoms: P1_19  and  C15_20 
ROOT
HETATM    1  C10 UNL     1      22.705  -0.287  53.454  1.00  0.00    -0.003 C 
HETATM    2  C11 UNL     1      22.908  -0.903  54.607  1.00  0.00     0.016 C 
HETATM    3  C12 UNL     1      24.229  -1.026  55.195  1.00  0.00     0.033 C 
HETATM    4  C13 UNL     1      25.328  -0.554  54.682  1.00  0.00     0.056 C 
HETATM    5  N2  UNL     1      26.706  -0.539  55.020  1.00  0.00    -0.260 N 
HETATM    6  N3  UNL     1      27.764  -0.383  54.174  1.00  0.00    -0.073 NA
HETATM    7  N4  UNL     1      27.749  -0.224  52.961  1.00  0.00    -0.170 NA
HETATM    8  C14 UNL     1      26.556  -0.167  52.150  1.00  0.00     0.214 C 
HETATM    9  P1  UNL     1      25.200   0.466  53.179  1.00  0.00    -0.049 P 
HETATM   10  C17 UNL     1      23.739   0.285  52.595  1.00  0.00     0.024 C 
HETATM   11  H13 UNL     1      26.794  -0.687  56.081  1.00  0.00     0.191 HD
ENDROOT
BRANCH   1  12
HETATM   12  C9  UNL     1      21.317  -0.249  53.015  1.00  0.00     0.108 A 
HETATM   13  C8  UNL     1      20.806   0.234  51.832  1.00  0.00     0.148 A 
HETATM   14  N1  UNL     1      19.470   0.083  51.821  1.00  0.00    -0.257 N 
HETATM   15  N6  UNL     1      19.163  -0.485  52.979  1.00  0.00    -0.066 NA
HETATM   16  N5  UNL     1      20.243  -0.687  53.696  1.00  0.00    -0.130 NA
BRANCH  14  17
HETATM   17  C7  UNL     1      18.461   0.426  50.817  1.00  0.00     0.179 C 
BRANCH  17  18
HETATM   18  C6  UNL     1      17.636   1.511  51.372  1.00  0.00    -0.005 C 
HETATM   19  C5  UNL     1      17.822   2.818  51.367  1.00  0.00    -0.002 C 
BRANCH  19  20
HETATM   20  C4  UNL     1      18.996   3.409  50.742  1.00  0.00    -0.000 C 
HETATM   21  C3  UNL     1      19.926   4.065  51.456  1.00  0.00    -0.001 C 
BRANCH  21  22
HETATM   22  C2  UNL     1      21.108   4.663  50.850  1.00  0.00    -0.010 C 
HETATM   23  C1  UNL     1      21.853   5.540  51.503  1.00  0.00     0.011 C 
ENDBRANCH  21  22
ENDBRANCH  19  20
ENDBRANCH  17  18
ENDBRANCH  14  17
ENDBRANCH   1  12
BRANCH   9  24
HETATM   24  C15 UNL     1      25.441   2.220  53.566  1.00  0.00     0.037 C 
HETATM   25  C16 UNL     1      24.259   3.029  53.079  1.00  0.00     0.010 C 
ENDBRANCH   9  24
TORSDOF 6
ENDMDL
MODEL 4
REMARK VINA RESULT:      -7.2      4.510      6.991
REMARK  6 active torsions:
REMARK  status: ('A' for Active; 'I' for Inactive)
REMARK    1  A    between atoms: C2_2  and  C3_3 
REMARK    2  A    between atoms: C4_4  and  C5_5 
REMARK    3  A    between atoms: C6_6  and  C7_7 
REMARK    4  A    between atoms: C7_7  and  N1_8 
REMARK    5  A    between atoms: C9_10  and  C10_11 
REMARK    6  A    between atoms: P1_19  and  C15_20 
ROOT
HETATM    1  C10 UNL     1      24.390   3.974  49.535  1.00  0.00    -0.003 C 
HETATM    2  C11 UNL     1      25.554   3.351  49.605  1.00  0.00     0.016 C 
HETATM    3  C12 UNL     1      26.810   4.029  49.343  1.00  0.00     0.033 C 
HETATM    4  C13 UNL     1      26.936   5.287  49.031  1.00  0.00     0.056 C 
HETATM    5  N2  UNL     1      27.997   6.175  48.721  1.00  0.00    -0.260 N 
HETATM    6  N3  UNL     1      27.924   7.334  48.003  1.00  0.00    -0.073 NA
HETATM    7  N4  UNL     1      26.941   7.844  47.483  1.00  0.00    -0.170 NA
HETATM    8  C14 UNL     1      25.605   7.297  47.529  1.00  0.00     0.214 C 
HETATM    9  P1  UNL     1      25.441   6.326  49.055  1.00  0.00    -0.049 P 
HETATM   10  C17 UNL     1      24.185   5.364  49.137  1.00  0.00     0.024 C 
HETATM   11  H13 UNL     1      28.904   5.778  49.141  1.00  0.00     0.191 HD
ENDROOT
BRANCH   1  12
HETATM   12  C9  UNL     1      23.232   3.144  49.835  1.00  0.00     0.108 A 
HETATM   13  C8  UNL     1      23.188   1.950  50.519  1.00  0.00     0.148 A 
HETATM   14  N1  UNL     1      21.920   1.507  50.576  1.00  0.00    -0.257 N 
HETATM   15  N6  UNL     1      21.194   2.414  49.938  1.00  0.00    -0.066 NA
HETATM   16  N5  UNL     1      21.954   3.388  49.495  1.00  0.00    -0.130 NA
BRANCH  14  17
HETATM   17  C7  UNL     1      21.335   0.307  51.177  1.00  0.00     0.179 C 
BRANCH  17  18
HETATM   18  C6  UNL     1      21.279   0.522  52.632  1.00  0.00    -0.005 C 
HETATM   19  C5  UNL     1      22.131   0.185  53.582  1.00  0.00    -0.002 C 
BRANCH  19  20
HETATM   20  C4  UNL     1      23.366  -0.519  53.270  1.00  0.00    -0.000 C 
HETATM   21  C3  UNL     1      24.566   0.076  53.366  1.00  0.00    -0.001 C 
BRANCH  21  22
HETATM   22  C2  UNL     1      25.814  -0.610  53.058  1.00  0.00    -0.010 C 
HETATM   23  C1  UNL     1      26.612  -0.195  52.088  1.00  0.00     0.011 C 
ENDBRANCH  21  22
ENDBRANCH  19  20
ENDBRANCH  17  18
ENDBRANCH  14  17
ENDBRANCH   1  12
BRANCH   9  24
HETATM   24  C15 UNL     1      25.426   7.402  50.513  1.00  0.00     0.037 C 
HETATM   25  C16 UNL     1      24.005   7.782  50.867  1.00  0.00     0.010 C 
ENDBRANCH   9  24
TORSDOF 6
ENDMDL
MODEL 5
REMARK VINA RESULT:      -7.2      2.221      3.624
REMARK  6 active torsions:
REMARK  status: ('A' for Active; 'I' for Inactive)
REMARK    1  A    between atoms: C2_2  and  C3_3 
REMARK    2  A    between atoms: C4_4  and  C5_5 
REMARK    3  A    between atoms: C6_6  and  C7_7 
REMARK    4  A    between atoms: C7_7  and  N1_8 
REMARK    5  A    between atoms: C9_10  and  C10_11 
REMARK    6  A    between atoms: P1_19  and  C15_20 
ROOT
HETATM    1  C10 UNL     1      23.586   1.073  53.202  1.00  0.00    -0.003 C 
HETATM    2  C11 UNL     1      23.868   2.347  52.992  1.00  0.00     0.016 C 
HETATM    3  C12 UNL     1      25.213   2.874  53.134  1.00  0.00     0.033 C 
HETATM    4  C13 UNL     1      26.264   2.178  53.461  1.00  0.00     0.056 C 
HETATM    5  N2  UNL     1      27.644   2.425  53.675  1.00  0.00    -0.260 N 
HETATM    6  N3  UNL     1      28.511   1.684  54.424  1.00  0.00    -0.073 NA
HETATM    7  N4  UNL     1      28.285   0.663  55.058  1.00  0.00    -0.170 NA
HETATM    8  C14 UNL     1      26.999   0.011  55.143  1.00  0.00     0.214 C 
HETATM    9  P1  UNL     1      26.077   0.374  53.622  1.00  0.00    -0.049 P 
HETATM   10  C17 UNL     1      24.526   0.050  53.652  1.00  0.00     0.024 C 
HETATM   11  H13 UNL     1      27.911   3.325  53.151  1.00  0.00     0.191 HD
ENDROOT
BRANCH   1  12
HETATM   12  C9  UNL     1      22.188   0.715  53.009  1.00  0.00     0.108 A 
HETATM   13  C8  UNL     1      21.129   1.537  52.695  1.00  0.00     0.148 A 
HETATM   14  N1  UNL     1      20.002   0.810  52.608  1.00  0.00    -0.257 N 
HETATM   15  N6  UNL     1      20.360  -0.440  52.863  1.00  0.00    -0.066 NA
HETATM   16  N5  UNL     1      21.648  -0.513  53.103  1.00  0.00    -0.130 NA
BRANCH  14  17
HETATM   17  C7  UNL     1      18.620   1.190  52.306  1.00  0.00     0.179 C 
BRANCH  17  18
HETATM   18  C6  UNL     1      18.239   0.518  51.053  1.00  0.00    -0.005 C 
HETATM   19  C5  UNL     1      18.732   0.634  49.834  1.00  0.00    -0.002 C 
BRANCH  19  20
HETATM   20  C4  UNL     1      19.834   1.541  49.551  1.00  0.00    -0.000 C 
HETATM   21  C3  UNL     1      21.032   1.097  49.137  1.00  0.00    -0.001 C 
BRANCH  21  22
HETATM   22  C2  UNL     1      22.148   1.988  48.849  1.00  0.00    -0.010 C 
HETATM   23  C1  UNL     1      22.268   3.163  49.443  1.00  0.00     0.011 C 
ENDBRANCH  21  22
ENDBRANCH  19  20
ENDBRANCH  17  18
ENDBRANCH  14  17
ENDBRANCH   1  12
BRANCH   9  24
HETATM   24  C15 UNL     1      26.805  -0.481  52.199  1.00  0.00     0.037 C 
HETATM   25  C16 UNL     1      26.989  -1.950  52.511  1.00  0.00     0.010 C 
ENDBRANCH   9  24
TORSDOF 6
ENDMDL
MODEL 6
REMARK VINA RESULT:      -7.1      2.012      3.650
REMARK  6 active torsions:
REMARK  status: ('A' for Active; 'I' for Inactive)
REMARK    1  A    between atoms: C2_2  and  C3_3 
REMARK    2  A    between atoms: C4_4  and  C5_5 
REMARK    3  A    between atoms: C6_6  and  C7_7 
REMARK    4  A    between atoms: C7_7  and  N1_8 
REMARK    5  A    between atoms: C9_10  and  C10_11 
REMARK    6  A    between atoms: P1_19  and  C15_20 
ROOT
HETATM    1  C10 UNL     1      22.754  -0.453  53.758  1.00  0.00    -0.003 C 
HETATM    2  C11 UNL     1      23.048  -1.006  54.923  1.00  0.00     0.016 C 
HETATM    3  C12 UNL     1      24.405  -1.054  55.435  1.00  0.00     0.033 C 
HETATM    4  C13 UNL     1      25.453  -0.566  54.835  1.00  0.00     0.056 C 
HETATM    5  N2  UNL     1      26.847  -0.485  55.088  1.00  0.00    -0.260 N 
HETATM    6  N3  UNL     1      27.847  -0.331  54.173  1.00  0.00    -0.073 NA
HETATM    7  N4  UNL     1      27.754  -0.230  52.957  1.00  0.00    -0.170 NA
HETATM    8  C14 UNL     1      26.514  -0.255  52.218  1.00  0.00     0.214 C 
HETATM    9  P1  UNL     1      25.197   0.377  53.298  1.00  0.00    -0.049 P 
HETATM   10  C17 UNL     1      23.712   0.115  52.813  1.00  0.00     0.024 C 
HETATM   11  H13 UNL     1      27.003  -0.580  56.148  1.00  0.00     0.191 HD
ENDROOT
BRANCH   1  12
HETATM   12  C9  UNL     1      21.342  -0.487  53.403  1.00  0.00     0.108 A 
HETATM   13  C8  UNL     1      20.689   0.221  52.419  1.00  0.00     0.148 A 
HETATM   14  N1  UNL     1      19.384  -0.100  52.422  1.00  0.00    -0.257 N 
HETATM   15  N6  UNL     1      19.235  -0.991  53.391  1.00  0.00    -0.066 NA
HETATM   16  N5  UNL     1      20.382  -1.230  53.981  1.00  0.00    -0.130 NA
BRANCH  14  17
HETATM   17  C7  UNL     1      18.268   0.360  51.592  1.00  0.00     0.179 C 
BRANCH  17  18
HETATM   18  C6  UNL     1      17.096  -0.463  51.931  1.00  0.00    -0.005 C 
HETATM   19  C5  UNL     1      15.846  -0.115  52.176  1.00  0.00    -0.002 C 
BRANCH  19  20
HETATM   20  C4  UNL     1      15.431   1.280  52.134  1.00  0.00    -0.000 C 
HETATM   21  C3  UNL     1      14.443   1.750  52.913  1.00  0.00    -0.001 C 
BRANCH  21  22
HETATM   22  C2  UNL     1      14.013   3.142  52.887  1.00  0.00    -0.010 C 
HETATM   23  C1  UNL     1      12.795   3.483  52.499  1.00  0.00     0.011 C 
ENDBRANCH  21  22
ENDBRANCH  19  20
ENDBRANCH  17  18
ENDBRANCH  14  17
ENDBRANCH   1  12
BRANCH   9  24
HETATM   24  C15 UNL     1      25.391   2.154  53.591  1.00  0.00     0.037 C 
HETATM   25  C16 UNL     1      24.230   2.913  52.986  1.00  0.00     0.010 C 
ENDBRANCH   9  24
TORSDOF 6
ENDMDL
MODEL 7
REMARK VINA RESULT:      -7.1      4.177      7.723
REMARK  6 active torsions:
REMARK  status: ('A' for Active; 'I' for Inactive)
REMARK    1  A    between atoms: C2_2  and  C3_3 
REMARK    2  A    between atoms: C4_4  and  C5_5 
REMARK    3  A    between atoms: C6_6  and  C7_7 
REMARK    4  A    between atoms: C7_7  and  N1_8 
REMARK    5  A    between atoms: C9_10  and  C10_11 
REMARK    6  A    between atoms: P1_19  and  C15_20 
ROOT
HETATM    1  C10 UNL     1      24.760   2.895  52.026  1.00  0.00    -0.003 C 
HETATM    2  C11 UNL     1      25.610   2.604  51.056  1.00  0.00     0.016 C 
HETATM    3  C12 UNL     1      26.526   1.482  51.143  1.00  0.00     0.033 C 
HETATM    4  C13 UNL     1      26.609   0.653  52.144  1.00  0.00     0.056 C 
HETATM    5  N2  UNL     1      27.389  -0.480  52.488  1.00  0.00    -0.260 N 
HETATM    6  N3  UNL     1      27.644  -0.960  53.740  1.00  0.00    -0.073 NA
HETATM    7  N4  UNL     1      27.258  -0.521  54.814  1.00  0.00    -0.170 NA
HETATM    8  C14 UNL     1      26.419   0.642  54.978  1.00  0.00     0.214 C 
HETATM    9  P1  UNL     1      25.393   0.816  53.490  1.00  0.00    -0.049 P 
HETATM   10  C17 UNL     1      24.656   2.207  53.310  1.00  0.00     0.024 C 
HETATM   11  H13 UNL     1      27.774  -0.912  51.582  1.00  0.00     0.191 HD
ENDROOT
BRANCH   1  12
HETATM   12  C9  UNL     1      23.910   4.050  51.769  1.00  0.00     0.108 A 
HETATM   13  C8  UNL     1      24.224   5.214  51.105  1.00  0.00     0.148 A 
HETATM   14  N1  UNL     1      23.155   6.028  51.089  1.00  0.00    -0.257 N 
HETATM   15  N6  UNL     1      22.197   5.377  51.732  1.00  0.00    -0.066 NA
HETATM   16  N5  UNL     1      22.627   4.206  52.141  1.00  0.00    -0.130 NA
BRANCH  14  17
HETATM   17  C7  UNL     1      22.959   7.364  50.521  1.00  0.00     0.179 C 
BRANCH  17  18
HETATM   18  C6  UNL     1      22.743   7.203  49.074  1.00  0.00    -0.005 C 
HETATM   19  C5  UNL     1      23.607   7.183  48.075  1.00  0.00    -0.002 C 
BRANCH  19  20
HETATM   20  C4  UNL     1      25.035   7.334  48.312  1.00  0.00    -0.000 C 
HETATM   21  C3  UNL     1      25.869   6.282  48.316  1.00  0.00    -0.001 C 
BRANCH  21  22
HETATM   22  C2  UNL     1      27.301   6.411  48.552  1.00  0.00    -0.010 C 
HETATM   23  C1  UNL     1      28.114   5.371  48.468  1.00  0.00     0.011 C 
ENDBRANCH  21  22
ENDBRANCH  19  20
ENDBRANCH  17  18
ENDBRANCH  14  17
ENDBRANCH   1  12
BRANCH   9  24
HETATM   24  C15 UNL     1      24.149  -0.499  53.399  1.00  0.00     0.037 C 
HETATM   25  C16 UNL     1      22.872   0.031  52.784  1.00  0.00     0.010 C 
ENDBRANCH   9  24
TORSDOF 6
ENDMDL
MODEL 8
REMARK VINA RESULT:      -7.0      6.354      8.964
REMARK  6 active torsions:
REMARK  status: ('A' for Active; 'I' for Inactive)
REMARK    1  A    between atoms: C2_2  and  C3_3 
REMARK    2  A    between atoms: C4_4  and  C5_5 
REMARK    3  A    between atoms: C6_6  and  C7_7 
REMARK    4  A    between atoms: C7_7  and  N1_8 
REMARK    5  A    between atoms: C9_10  and  C10_11 
REMARK    6  A    between atoms: P1_19  and  C15_20 
ROOT
HETATM    1  C10 UNL     1      26.804   5.832  48.639  1.00  0.00    -0.003 C 
HETATM    2  C11 UNL     1      27.844   5.016  48.611  1.00  0.00     0.016 C 
HETATM    3  C12 UNL     1      29.161   5.456  48.189  1.00  0.00     0.033 C 
HETATM    4  C13 UNL     1      29.465   6.664  47.812  1.00  0.00     0.056 C 
HETATM    5  N2  UNL     1      30.622   7.345  47.354  1.00  0.00    -0.260 N 
HETATM    6  N3  UNL     1      30.670   8.481  46.601  1.00  0.00    -0.073 NA
HETATM    7  N4  UNL     1      29.738   9.144  46.167  1.00  0.00    -0.170 NA
HETATM    8  C14 UNL     1      28.342   8.843  46.378  1.00  0.00     0.214 C 
HETATM    9  P1  UNL     1      28.185   7.951  47.952  1.00  0.00    -0.049 P 
HETATM   10  C17 UNL     1      26.798   7.227  48.207  1.00  0.00     0.024 C 
HETATM   11  H13 UNL     1      31.488   6.804  47.692  1.00  0.00     0.191 HD
ENDROOT
BRANCH   1  12
HETATM   12  C9  UNL     1      25.561   5.226  49.095  1.00  0.00     0.108 A 
HETATM   13  C8  UNL     1      25.365   3.972  49.627  1.00  0.00     0.148 A 
HETATM   14  N1  UNL     1      24.063   3.802  49.917  1.00  0.00    -0.257 N 
HETATM   15  N6  UNL     1      23.467   4.934  49.571  1.00  0.00    -0.066 NA
HETATM   16  N5  UNL     1      24.338   5.785  49.083  1.00  0.00    -0.130 NA
BRANCH  14  17
HETATM   17  C7  UNL     1      23.335   2.668  50.492  1.00  0.00     0.179 C 
BRANCH  17  18
HETATM   18  C6  UNL     1      23.390   2.803  51.956  1.00  0.00    -0.005 C 
HETATM   19  C5  UNL     1      23.955   2.033  52.868  1.00  0.00    -0.002 C 
BRANCH  19  20
HETATM   20  C4  UNL     1      24.672   0.824  52.491  1.00  0.00    -0.000 C 
HETATM   21  C3  UNL     1      26.012   0.751  52.532  1.00  0.00    -0.001 C 
BRANCH  21  22
HETATM   22  C2  UNL     1      26.750  -0.449  52.158  1.00  0.00    -0.010 C 
HETATM   23  C1  UNL     1      27.586  -1.038  52.997  1.00  0.00     0.011 C 
ENDBRANCH  21  22
ENDBRANCH  19  20
ENDBRANCH  17  18
ENDBRANCH  14  17
ENDBRANCH   1  12
BRANCH   9  24
HETATM   24  C15 UNL     1      28.518   9.045  49.357  1.00  0.00     0.037 C 
HETATM   25  C16 UNL     1      27.279   9.191  50.212  1.00  0.00     0.010 C 
ENDBRANCH   9  24
TORSDOF 6
ENDMDL
MODEL 9
REMARK VINA RESULT:      -7.0      5.983      7.968
REMARK  6 active torsions:
REMARK  status: ('A' for Active; 'I' for Inactive)
REMARK    1  A    between atoms: C2_2  and  C3_3 
REMARK    2  A    between atoms: C4_4  and  C5_5 
REMARK    3  A    between atoms: C6_6  and  C7_7 
REMARK    4  A    between atoms: C7_7  and  N1_8 
REMARK    5  A    between atoms: C9_10  and  C10_11 
REMARK    6  A    between atoms: P1_19  and  C15_20 
ROOT
HETATM    1  C10 UNL     1      26.406   5.376  49.042  1.00  0.00    -0.003 C 
HETATM    2  C11 UNL     1      27.525   4.693  48.870  1.00  0.00     0.016 C 
HETATM    3  C12 UNL     1      28.691   5.271  48.227  1.00  0.00     0.033 C 
HETATM    4  C13 UNL     1      28.772   6.487  47.770  1.00  0.00     0.056 C 
HETATM    5  N2  UNL     1      29.745   7.282  47.110  1.00  0.00    -0.260 N 
HETATM    6  N3  UNL     1      29.525   8.376  46.325  1.00  0.00    -0.073 NA
HETATM    7  N4  UNL     1      28.458   8.896  46.029  1.00  0.00    -0.170 NA
HETATM    8  C14 UNL     1      27.163   8.436  46.473  1.00  0.00     0.214 C 
HETATM    9  P1  UNL     1      27.373   7.611  48.077  1.00  0.00    -0.049 P 
HETATM   10  C17 UNL     1      26.151   6.736  48.576  1.00  0.00     0.024 C 
HETATM   11  H13 UNL     1      30.716   6.870  47.319  1.00  0.00     0.191 HD
ENDROOT
BRANCH   1  12
HETATM   12  C9  UNL     1      25.339   4.644  49.712  1.00  0.00     0.108 A 
HETATM   13  C8  UNL     1      25.290   3.307  50.036  1.00  0.00     0.148 A 
HETATM   14  N1  UNL     1      24.126   3.032  50.647  1.00  0.00    -0.257 N 
HETATM   15  N6  UNL     1      23.467   4.181  50.701  1.00  0.00    -0.066 NA
HETATM   16  N5  UNL     1      24.171   5.143  50.152  1.00  0.00    -0.130 NA
BRANCH  14  17
HETATM   17  C7  UNL     1      23.580   1.783  51.185  1.00  0.00     0.179 C 
BRANCH  17  18
HETATM   18  C6  UNL     1      24.540   1.271  52.176  1.00  0.00    -0.005 C 
HETATM   19  C5  UNL     1      24.420   0.302  53.065  1.00  0.00    -0.002 C 
BRANCH  19  20
HETATM   20  C4  UNL     1      23.187  -0.462  53.183  1.00  0.00    -0.000 C 
HETATM   21  C3  UNL     1      22.674  -0.802  54.376  1.00  0.00    -0.001 C 
BRANCH  21  22
HETATM   22  C2  UNL     1      21.441  -1.566  54.517  1.00  0.00    -0.010 C 
HETATM   23  C1  UNL     1      20.322  -1.194  53.918  1.00  0.00     0.011 C 
ENDBRANCH  21  22
ENDBRANCH  19  20
ENDBRANCH  17  18
ENDBRANCH  14  17
ENDBRANCH   1  12
BRANCH   9  24
HETATM   24  C15 UNL     1      27.779   8.808  49.376  1.00  0.00     0.037 C 
HETATM   25  C16 UNL     1      26.523   9.232  50.106  1.00  0.00     0.010 C 
ENDBRANCH   9  24
TORSDOF 6
ENDMDL
