MODEL 1
REMARK VINA RESULT:      -9.0      0.000      0.000
REMARK  3 active torsions:
REMARK  status: ('A' for Active; 'I' for Inactive)
REMARK    1  A    between atoms: N1_1  and  C1_2 
REMARK    2  A    between atoms: C1_2  and  N2_4 
REMARK    3  A    between atoms: N2_4  and  N3_5 
ROOT
HETATM    1  N3  UNL     1      23.045   3.873  51.993  1.00  0.00    -0.173 NA
HETATM    2  C2  UNL     1      22.904   2.619  52.197  1.00  0.00     0.077 C 
HETATM    3  C3  UNL     1      21.519   2.225  52.418  1.00  0.00     0.033 C 
HETATM    4  C4  UNL     1      20.982   1.213  53.059  1.00  0.00     0.002 C 
HETATM    5  C5  UNL     1      21.492   0.077  53.806  1.00  0.00    -0.003 C 
HETATM    6  C6  UNL     1      22.678  -0.479  53.928  1.00  0.00    -0.017 C 
HETATM    7  C7  UNL     1      24.062  -0.466  53.557  1.00  0.00     0.045 C 
HETATM    8  C8  UNL     1      24.966  -0.829  54.708  1.00  0.00     0.041 C 
HETATM    9  C9  UNL     1      26.330  -0.225  54.834  1.00  0.00    -0.018 C 
HETATM   10  C10 UNL     1      26.971   0.209  53.779  1.00  0.00    -0.058 C 
HETATM   11  C11 UNL     1      27.760   1.470  53.602  1.00  0.00     0.007 C 
HETATM   12  C12 UNL     1      27.518   2.282  52.499  1.00  0.00     0.001 C 
HETATM   13  C13 UNL     1      26.328   1.897  51.602  1.00  0.00     0.008 C 
HETATM   14  C14 UNL     1      25.804   0.812  52.137  1.00  0.00    -0.047 C 
HETATM   15  C15 UNL     1      26.824  -0.385  52.333  1.00  0.00     0.077 C 
HETATM   16  C16 UNL     1      24.457   0.691  52.694  1.00  0.00    -0.041 C 
HETATM   17  C17 UNL     1      24.146   1.881  52.160  1.00  0.00     0.041 C 
ENDROOT
BRANCH   1  18
HETATM   18  N2  UNL     1      24.222   4.542  51.756  1.00  0.00    -0.258 N 
HETATM   19  H3  UNL     1      25.232   4.292  51.774  1.00  0.00     0.191 HD
BRANCH  18  20
HETATM   20  C1  UNL     1      23.734   5.858  51.424  1.00  0.00     0.164 C 
HETATM   21  S1  UNL     1      22.668   6.819  50.644  1.00  0.00    -0.046 SA
BRANCH  20  22
HETATM   22  N1  UNL     1      24.475   6.940  52.012  1.00  0.00    -0.278 NA
HETATM   23  H1  UNL     1      24.985   7.870  52.017  1.00  0.00     0.126 HD
HETATM   24  H2  UNL     1      24.636   7.611  51.202  1.00  0.00     0.126 HD
ENDBRANCH  20  22
ENDBRANCH  18  20
ENDBRANCH   1  18
TORSDOF 3
ENDMDL
MODEL 2
REMARK VINA RESULT:      -8.6      2.714      4.844
REMARK  3 active torsions:
REMARK  status: ('A' for Active; 'I' for Inactive)
REMARK    1  A    between atoms: N1_1  and  C1_2 
REMARK    2  A    between atoms: C1_2  and  N2_4 
REMARK    3  A    between atoms: N2_4  and  N3_5 
ROOT
HETATM    1  N3  UNL     1      26.154  -0.009  53.005  1.00  0.00    -0.173 NA
HETATM    2  C2  UNL     1      25.037   0.048  53.622  1.00  0.00     0.077 C 
HETATM    3  C3  UNL     1      24.997  -0.783  54.818  1.00  0.00     0.033 C 
HETATM    4  C4  UNL     1      24.005  -1.349  55.465  1.00  0.00     0.002 C 
HETATM    5  C5  UNL     1      22.564  -1.408  55.298  1.00  0.00    -0.003 C 
HETATM    6  C6  UNL     1      21.700  -0.733  54.571  1.00  0.00    -0.017 C 
HETATM    7  C7  UNL     1      21.482   0.310  53.612  1.00  0.00     0.045 C 
HETATM    8  C8  UNL     1      20.409  -0.046  52.614  1.00  0.00     0.041 C 
HETATM    9  C9  UNL     1      20.480   0.444  51.201  1.00  0.00    -0.018 C 
HETATM   10  C10 UNL     1      21.132   1.539  50.904  1.00  0.00    -0.058 C 
HETATM   11  C11 UNL     1      22.061   1.807  49.759  1.00  0.00     0.007 C 
HETATM   12  C12 UNL     1      23.307   2.374  50.003  1.00  0.00     0.001 C 
HETATM   13  C13 UNL     1      23.713   2.548  51.478  1.00  0.00     0.008 C 
HETATM   14  C14 UNL     1      22.701   2.093  52.191  1.00  0.00    -0.047 C 
HETATM   15  C15 UNL     1      21.306   2.769  51.864  1.00  0.00     0.077 C 
HETATM   16  C16 UNL     1      22.735   0.945  53.097  1.00  0.00    -0.041 C 
HETATM   17  C17 UNL     1      24.072   0.925  52.996  1.00  0.00     0.041 C 
ENDROOT
BRANCH   1  18
HETATM   18  N2  UNL     1      26.494   0.658  51.852  1.00  0.00    -0.258 N 
HETATM   19  H3  UNL     1      26.273   0.549  50.842  1.00  0.00     0.191 HD
BRANCH  18  20
HETATM   20  C1  UNL     1      27.346   1.699  52.372  1.00  0.00     0.164 C 
HETATM   21  S1  UNL     1      28.414   2.231  53.488  1.00  0.00    -0.046 SA
BRANCH  20  22
HETATM   22  N1  UNL     1      27.328   2.923  51.619  1.00  0.00    -0.278 NA
HETATM   23  H1  UNL     1      27.049   3.559  50.818  1.00  0.00     0.126 HD
HETATM   24  H2  UNL     1      26.697   2.706  50.790  1.00  0.00     0.126 HD
ENDBRANCH  20  22
ENDBRANCH  18  20
ENDBRANCH   1  18
TORSDOF 3
ENDMDL
MODEL 3
REMARK VINA RESULT:      -8.1      2.014      4.335
REMARK  3 active torsions:
REMARK  status: ('A' for Active; 'I' for Inactive)
REMARK    1  A    between atoms: N1_1  and  C1_2 
REMARK    2  A    between atoms: C1_2  and  N2_4 
REMARK    3  A    between atoms: N2_4  and  N3_5 
ROOT
HETATM    1  N3  UNL     1      26.792   2.851  50.733  1.00  0.00    -0.173 NA
HETATM    2  C2  UNL     1      26.487   2.367  51.875  1.00  0.00     0.077 C 
HETATM    3  C3  UNL     1      27.648   2.079  52.707  1.00  0.00     0.033 C 
HETATM    4  C4  UNL     1      27.839   1.229  53.689  1.00  0.00     0.002 C 
HETATM    5  C5  UNL     1      27.026   0.235  54.367  1.00  0.00    -0.003 C 
HETATM    6  C6  UNL     1      25.737  -0.025  54.397  1.00  0.00    -0.017 C 
HETATM    7  C7  UNL     1      24.424   0.323  53.941  1.00  0.00     0.045 C 
HETATM    8  C8  UNL     1      23.566  -0.892  53.689  1.00  0.00     0.041 C 
HETATM    9  C9  UNL     1      22.534  -0.893  52.604  1.00  0.00    -0.018 C 
HETATM   10  C10 UNL     1      21.996   0.226  52.190  1.00  0.00    -0.058 C 
HETATM   11  C11 UNL     1      21.707   0.678  50.792  1.00  0.00     0.007 C 
HETATM   12  C12 UNL     1      22.119   1.941  50.379  1.00  0.00     0.001 C 
HETATM   13  C13 UNL     1      22.995   2.740  51.362  1.00  0.00     0.008 C 
HETATM   14  C14 UNL     1      23.137   1.977  52.427  1.00  0.00    -0.047 C 
HETATM   15  C15 UNL     1      21.776   1.499  53.082  1.00  0.00     0.077 C 
HETATM   16  C16 UNL     1      24.394   1.423  52.928  1.00  0.00    -0.041 C 
HETATM   17  C17 UNL     1      25.064   2.219  52.081  1.00  0.00     0.041 C 
ENDROOT
BRANCH   1  18
HETATM   18  N2  UNL     1      25.923   3.222  49.735  1.00  0.00    -0.258 N 
HETATM   19  H3  UNL     1      25.139   2.762  49.230  1.00  0.00     0.191 HD
BRANCH  18  20
HETATM   20  C1  UNL     1      26.357   4.571  49.471  1.00  0.00     0.164 C 
HETATM   21  S1  UNL     1      26.012   6.150  49.228  1.00  0.00    -0.046 SA
BRANCH  20  22
HETATM   22  N1  UNL     1      27.779   4.729  49.332  1.00  0.00    -0.278 NA
HETATM   23  H1  UNL     1      28.704   5.243  49.398  1.00  0.00     0.126 HD
HETATM   24  H2  UNL     1      27.964   5.717  49.682  1.00  0.00     0.126 HD
ENDBRANCH  20  22
ENDBRANCH  18  20
ENDBRANCH   1  18
TORSDOF 3
ENDMDL
MODEL 4
REMARK VINA RESULT:      -8.1      3.190      5.209
REMARK  3 active torsions:
REMARK  status: ('A' for Active; 'I' for Inactive)
REMARK    1  A    between atoms: N1_1  and  C1_2 
REMARK    2  A    between atoms: C1_2  and  N2_4 
REMARK    3  A    between atoms: N2_4  and  N3_5 
ROOT
HETATM    1  N3  UNL     1      26.831   2.090  53.216  1.00  0.00    -0.173 NA
HETATM    2  C2  UNL     1      25.904   1.927  52.353  1.00  0.00     0.077 C 
HETATM    3  C3  UNL     1      25.993   2.851  51.230  1.00  0.00     0.033 C 
HETATM    4  C4  UNL     1      25.089   3.323  50.404  1.00  0.00     0.002 C 
HETATM    5  C5  UNL     1      23.657   3.152  50.232  1.00  0.00    -0.003 C 
HETATM    6  C6  UNL     1      22.777   2.293  50.699  1.00  0.00    -0.017 C 
HETATM    7  C7  UNL     1      22.528   1.144  51.519  1.00  0.00     0.045 C 
HETATM    8  C8  UNL     1      21.216   1.244  52.258  1.00  0.00     0.041 C 
HETATM    9  C9  UNL     1      21.054   0.640  53.618  1.00  0.00    -0.018 C 
HETATM   10  C10 UNL     1      21.795  -0.370  53.997  1.00  0.00    -0.058 C 
HETATM   11  C11 UNL     1      22.478  -0.604  55.309  1.00  0.00     0.007 C 
HETATM   12  C12 UNL     1      23.824  -0.956  55.330  1.00  0.00     0.001 C 
HETATM   13  C13 UNL     1      24.569  -0.930  53.983  1.00  0.00     0.008 C 
HETATM   14  C14 UNL     1      23.679  -0.564  53.081  1.00  0.00    -0.047 C 
HETATM   15  C15 UNL     1      22.377  -1.466  53.034  1.00  0.00     0.077 C 
HETATM   16  C16 UNL     1      23.723   0.656  52.275  1.00  0.00    -0.041 C 
HETATM   17  C17 UNL     1      24.983   0.863  52.686  1.00  0.00     0.041 C 
ENDROOT
BRANCH   1  18
HETATM   18  N2  UNL     1      27.014   1.376  54.377  1.00  0.00    -0.258 N 
HETATM   19  H3  UNL     1      26.428   1.151  55.206  1.00  0.00     0.191 HD
BRANCH  18  20
HETATM   20  C1  UNL     1      28.373   0.922  54.215  1.00  0.00     0.164 C 
HETATM   21  S1  UNL     1      29.438  -0.259  53.838  1.00  0.00    -0.046 SA
BRANCH  20  22
HETATM   22  N1  UNL     1      29.375   1.911  54.502  1.00  0.00    -0.278 NA
HETATM   23  H1  UNL     1      30.056   2.691  54.270  1.00  0.00     0.126 HD
HETATM   24  H2  UNL     1      29.571   2.360  53.557  1.00  0.00     0.126 HD
ENDBRANCH  20  22
ENDBRANCH  18  20
ENDBRANCH   1  18
TORSDOF 3
ENDMDL
MODEL 5
REMARK VINA RESULT:      -7.9      3.257      5.889
REMARK  3 active torsions:
REMARK  status: ('A' for Active; 'I' for Inactive)
REMARK    1  A    between atoms: N1_1  and  C1_2 
REMARK    2  A    between atoms: C1_2  and  N2_4 
REMARK    3  A    between atoms: N2_4  and  N3_5 
ROOT
HETATM    1  N3  UNL     1      26.381   1.909  52.914  1.00  0.00    -0.173 NA
HETATM    2  C2  UNL     1      25.732   2.068  51.824  1.00  0.00     0.077 C 
HETATM    3  C3  UNL     1      26.456   2.853  50.833  1.00  0.00     0.033 C 
HETATM    4  C4  UNL     1      26.051   3.594  49.829  1.00  0.00     0.002 C 
HETATM    5  C5  UNL     1      24.762   3.957  49.268  1.00  0.00    -0.003 C 
HETATM    6  C6  UNL     1      23.538   3.501  49.421  1.00  0.00    -0.017 C 
HETATM    7  C7  UNL     1      22.672   2.555  50.062  1.00  0.00     0.045 C 
HETATM    8  C8  UNL     1      21.339   3.158  50.428  1.00  0.00     0.041 C 
HETATM    9  C9  UNL     1      20.600   2.706  51.650  1.00  0.00    -0.018 C 
HETATM   10  C10 UNL     1      20.789   1.509  52.142  1.00  0.00    -0.058 C 
HETATM   11  C11 UNL     1      20.951   1.087  53.571  1.00  0.00     0.007 C 
HETATM   12  C12 UNL     1      22.015   0.265  53.928  1.00  0.00     0.001 C 
HETATM   13  C13 UNL     1      23.057  -0.034  52.835  1.00  0.00     0.008 C 
HETATM   14  C14 UNL     1      22.646   0.601  51.755  1.00  0.00    -0.047 C 
HETATM   15  C15 UNL     1      21.173   0.242  51.299  1.00  0.00     0.077 C 
HETATM   16  C16 UNL     1      23.350   1.689  51.077  1.00  0.00    -0.041 C 
HETATM   17  C17 UNL     1      24.435   1.432  51.823  1.00  0.00     0.041 C 
ENDROOT
BRANCH   1  18
HETATM   18  N2  UNL     1      25.964   1.221  54.029  1.00  0.00    -0.258 N 
HETATM   19  H3  UNL     1      25.122   1.241  54.638  1.00  0.00     0.191 HD
BRANCH  18  20
HETATM   20  C1  UNL     1      27.075   0.325  54.236  1.00  0.00     0.164 C 
HETATM   21  S1  UNL     1      28.624   0.070  54.691  1.00  0.00    -0.046 SA
BRANCH  20  22
HETATM   22  N1  UNL     1      26.807  -1.050  53.917  1.00  0.00    -0.278 NA
HETATM   23  H1  UNL     1      26.871  -1.937  53.340  1.00  0.00     0.126 HD
HETATM   24  H2  UNL     1      27.333  -1.211  53.007  1.00  0.00     0.126 HD
ENDBRANCH  20  22
ENDBRANCH  18  20
ENDBRANCH   1  18
TORSDOF 3
ENDMDL
MODEL 6
REMARK VINA RESULT:      -7.5      3.259      6.312
REMARK  3 active torsions:
REMARK  status: ('A' for Active; 'I' for Inactive)
REMARK    1  A    between atoms: N1_1  and  C1_2 
REMARK    2  A    between atoms: C1_2  and  N2_4 
REMARK    3  A    between atoms: N2_4  and  N3_5 
ROOT
HETATM    1  N3  UNL     1      26.949   2.623  51.275  1.00  0.00    -0.173 NA
HETATM    2  C2  UNL     1      26.266   3.216  50.373  1.00  0.00     0.077 C 
HETATM    3  C3  UNL     1      27.061   4.118  49.550  1.00  0.00     0.033 C 
HETATM    4  C4  UNL     1      26.746   5.188  48.858  1.00  0.00     0.002 C 
HETATM    5  C5  UNL     1      25.524   5.931  48.604  1.00  0.00    -0.003 C 
HETATM    6  C6  UNL     1      24.246   5.678  48.791  1.00  0.00    -0.017 C 
HETATM    7  C7  UNL     1      23.252   4.757  49.255  1.00  0.00     0.045 C 
HETATM    8  C8  UNL     1      22.110   5.452  49.954  1.00  0.00     0.041 C 
HETATM    9  C9  UNL     1      21.391   4.795  51.091  1.00  0.00    -0.018 C 
HETATM   10  C10 UNL     1      21.357   3.492  51.199  1.00  0.00    -0.058 C 
HETATM   11  C11 UNL     1      21.537   2.638  52.417  1.00  0.00     0.007 C 
HETATM   12  C12 UNL     1      22.426   1.568  52.380  1.00  0.00     0.001 C 
HETATM   13  C13 UNL     1      23.291   1.428  51.115  1.00  0.00     0.008 C 
HETATM   14  C14 UNL     1      22.942   2.422  50.323  1.00  0.00    -0.047 C 
HETATM   15  C15 UNL     1      21.394   2.490  49.991  1.00  0.00     0.077 C 
HETATM   16  C16 UNL     1      23.807   3.517  49.884  1.00  0.00    -0.041 C 
HETATM   17  C17 UNL     1      24.866   2.856  50.373  1.00  0.00     0.041 C 
ENDROOT
BRANCH   1  18
HETATM   18  N2  UNL     1      26.484   1.718  52.199  1.00  0.00    -0.258 N 
HETATM   19  H3  UNL     1      25.600   1.186  52.334  1.00  0.00     0.191 HD
BRANCH  18  20
HETATM   20  C1  UNL     1      27.615   1.620  53.088  1.00  0.00     0.164 C 
HETATM   21  S1  UNL     1      28.894   0.784  53.669  1.00  0.00    -0.046 SA
BRANCH  20  22
HETATM   22  N1  UNL     1      27.817   2.764  53.933  1.00  0.00    -0.278 NA
HETATM   23  H1  UNL     1      28.387   3.493  54.452  1.00  0.00     0.126 HD
HETATM   24  H2  UNL     1      28.875   2.874  53.970  1.00  0.00     0.126 HD
ENDBRANCH  20  22
ENDBRANCH  18  20
ENDBRANCH   1  18
TORSDOF 3
ENDMDL
MODEL 7
REMARK VINA RESULT:      -7.4      3.671      5.889
REMARK  3 active torsions:
REMARK  status: ('A' for Active; 'I' for Inactive)
REMARK    1  A    between atoms: N1_1  and  C1_2 
REMARK    2  A    between atoms: C1_2  and  N2_4 
REMARK    3  A    between atoms: N2_4  and  N3_5 
ROOT
HETATM    1  N3  UNL     1      27.230   6.426  48.724  1.00  0.00    -0.173 NA
HETATM    2  C2  UNL     1      25.981   6.417  48.992  1.00  0.00     0.077 C 
HETATM    3  C3  UNL     1      25.330   7.697  48.747  1.00  0.00     0.033 C 
HETATM    4  C4  UNL     1      24.255   8.251  49.256  1.00  0.00     0.002 C 
HETATM    5  C5  UNL     1      23.266   7.865  50.247  1.00  0.00    -0.003 C 
HETATM    6  C6  UNL     1      22.957   6.730  50.836  1.00  0.00    -0.017 C 
HETATM    7  C7  UNL     1      23.228   5.331  50.979  1.00  0.00     0.045 C 
HETATM    8  C8  UNL     1      23.088   4.864  52.407  1.00  0.00     0.041 C 
HETATM    9  C9  UNL     1      23.951   3.766  52.945  1.00  0.00    -0.018 C 
HETATM   10  C10 UNL     1      24.467   2.866  52.147  1.00  0.00    -0.058 C 
HETATM   11  C11 UNL     1      25.851   2.295  52.133  1.00  0.00     0.007 C 
HETATM   12  C12 UNL     1      26.564   2.250  50.939  1.00  0.00     0.001 C 
HETATM   13  C13 UNL     1      25.924   2.944  49.723  1.00  0.00     0.008 C 
HETATM   14  C14 UNL     1      24.775   3.434  50.145  1.00  0.00    -0.047 C 
HETATM   15  C15 UNL     1      23.809   2.370  50.811  1.00  0.00     0.077 C 
HETATM   16  C16 UNL     1      24.411   4.849  50.199  1.00  0.00    -0.041 C 
HETATM   17  C17 UNL     1      25.500   5.141  49.472  1.00  0.00     0.041 C 
ENDROOT
BRANCH   1  18
HETATM   18  N2  UNL     1      28.109   5.377  48.852  1.00  0.00    -0.258 N 
HETATM   19  H3  UNL     1      28.035   4.383  49.148  1.00  0.00     0.191 HD
BRANCH  18  20
HETATM   20  C1  UNL     1      29.344   5.994  48.436  1.00  0.00     0.164 C 
HETATM   21  S1  UNL     1      30.178   6.934  47.391  1.00  0.00    -0.046 SA
BRANCH  20  22
HETATM   22  N1  UNL     1      30.471   5.714  49.282  1.00  0.00    -0.278 NA
HETATM   23  H1  UNL     1      30.996   5.215  50.058  1.00  0.00     0.126 HD
HETATM   24  H2  UNL     1      30.127   4.933  49.919  1.00  0.00     0.126 HD
ENDBRANCH  20  22
ENDBRANCH  18  20
ENDBRANCH   1  18
TORSDOF 3
ENDMDL
MODEL 8
REMARK VINA RESULT:      -7.2      3.038      4.850
REMARK  3 active torsions:
REMARK  status: ('A' for Active; 'I' for Inactive)
REMARK    1  A    between atoms: N1_1  and  C1_2 
REMARK    2  A    between atoms: C1_2  and  N2_4 
REMARK    3  A    between atoms: N2_4  and  N3_5 
ROOT
HETATM    1  N3  UNL     1      21.105   1.529  50.138  1.00  0.00    -0.173 NA
HETATM    2  C2  UNL     1      22.079   2.343  50.277  1.00  0.00     0.077 C 
HETATM    3  C3  UNL     1      22.090   3.403  49.277  1.00  0.00     0.033 C 
HETATM    4  C4  UNL     1      23.058   4.139  48.784  1.00  0.00     0.002 C 
HETATM    5  C5  UNL     1      24.492   4.235  48.993  1.00  0.00    -0.003 C 
HETATM    6  C6  UNL     1      25.313   3.776  49.913  1.00  0.00    -0.017 C 
HETATM    7  C7  UNL     1      25.475   3.024  51.122  1.00  0.00     0.045 C 
HETATM    8  C8  UNL     1      26.739   2.201  51.120  1.00  0.00     0.041 C 
HETATM    9  C9  UNL     1      26.797   0.879  51.819  1.00  0.00    -0.018 C 
HETATM   10  C10 UNL     1      26.001   0.617  52.824  1.00  0.00    -0.058 C 
HETATM   11  C11 UNL     1      25.230  -0.633  53.121  1.00  0.00     0.007 C 
HETATM   12  C12 UNL     1      23.875  -0.548  53.425  1.00  0.00     0.001 C 
HETATM   13  C13 UNL     1      23.218   0.837  53.282  1.00  0.00     0.008 C 
HETATM   14  C14 UNL     1      24.173   1.655  52.889  1.00  0.00    -0.047 C 
HETATM   15  C15 UNL     1      25.446   1.686  53.831  1.00  0.00     0.077 C 
HETATM   16  C16 UNL     1      24.219   2.377  51.617  1.00  0.00    -0.041 C 
HETATM   17  C17 UNL     1      22.943   2.030  51.392  1.00  0.00     0.041 C 
ENDROOT
BRANCH   1  18
HETATM   18  N2  UNL     1      20.827   0.434  50.921  1.00  0.00    -0.258 N 
HETATM   19  H3  UNL     1      21.394  -0.258  51.452  1.00  0.00     0.191 HD
BRANCH  18  20
HETATM   20  C1  UNL     1      19.386   0.411  50.870  1.00  0.00     0.164 C 
HETATM   21  S1  UNL     1      17.949   0.035  51.551  1.00  0.00    -0.046 SA
BRANCH  20  22
HETATM   22  N1  UNL     1      18.819   0.965  49.672  1.00  0.00    -0.278 NA
HETATM   23  H1  UNL     1      18.539   0.970  48.648  1.00  0.00     0.126 HD
HETATM   24  H2  UNL     1      18.954   0.200  48.944  1.00  0.00     0.126 HD
ENDBRANCH  20  22
ENDBRANCH  18  20
ENDBRANCH   1  18
TORSDOF 3
ENDMDL
MODEL 9
REMARK VINA RESULT:      -7.2      5.208      8.251
REMARK  3 active torsions:
REMARK  status: ('A' for Active; 'I' for Inactive)
REMARK    1  A    between atoms: N1_1  and  C1_2 
REMARK    2  A    between atoms: C1_2  and  N2_4 
REMARK    3  A    between atoms: N2_4  and  N3_5 
ROOT
HETATM    1  N3  UNL     1      28.332   4.881  48.522  1.00  0.00    -0.173 NA
HETATM    2  C2  UNL     1      27.114   4.912  48.907  1.00  0.00     0.077 C 
HETATM    3  C3  UNL     1      26.696   3.697  49.593  1.00  0.00     0.033 C 
HETATM    4  C4  UNL     1      25.521   3.134  49.751  1.00  0.00     0.002 C 
HETATM    5  C5  UNL     1      24.164   3.444  49.339  1.00  0.00    -0.003 C 
HETATM    6  C6  UNL     1      23.581   4.516  48.848  1.00  0.00    -0.017 C 
HETATM    7  C7  UNL     1      23.718   5.878  48.422  1.00  0.00     0.045 C 
HETATM    8  C8  UNL     1      22.880   6.184  47.206  1.00  0.00     0.041 C 
HETATM    9  C9  UNL     1      23.341   7.176  46.184  1.00  0.00    -0.018 C 
HETATM   10  C10 UNL     1      24.165   8.139  46.509  1.00  0.00    -0.058 C 
HETATM   11  C11 UNL     1      25.364   8.649  45.770  1.00  0.00     0.007 C 
HETATM   12  C12 UNL     1      26.573   8.801  46.441  1.00  0.00     0.001 C 
HETATM   13  C13 UNL     1      26.633   8.278  47.888  1.00  0.00     0.008 C 
HETATM   14  C14 UNL     1      25.436   7.791  48.150  1.00  0.00    -0.047 C 
HETATM   15  C15 UNL     1      24.245   8.812  47.926  1.00  0.00     0.077 C 
HETATM   16  C16 UNL     1      25.122   6.395  48.453  1.00  0.00    -0.041 C 
HETATM   17  C17 UNL     1      26.433   6.144  48.578  1.00  0.00     0.041 C 
ENDROOT
BRANCH   1  18
HETATM   18  N2  UNL     1      29.011   5.871  47.852  1.00  0.00    -0.258 N 
HETATM   19  H3  UNL     1      28.741   6.682  47.260  1.00  0.00     0.191 HD
BRANCH  18  20
HETATM   20  C1  UNL     1      30.378   5.536  48.167  1.00  0.00     0.164 C 
HETATM   21  S1  UNL     1      31.852   5.007  47.700  1.00  0.00    -0.046 SA
BRANCH  20  22
HETATM   22  N1  UNL     1      30.737   5.712  49.547  1.00  0.00    -0.278 NA
HETATM   23  H1  UNL     1      30.645   6.111  50.526  1.00  0.00     0.126 HD
HETATM   24  H2  UNL     1      30.016   6.402  49.915  1.00  0.00     0.126 HD
ENDBRANCH  20  22
ENDBRANCH  18  20
ENDBRANCH   1  18
TORSDOF 3
ENDMDL
