MODEL 1
REMARK VINA RESULT:      -8.9      0.000      0.000
REMARK  4 active torsions:
REMARK  status: ('A' for Active; 'I' for Inactive)
REMARK    1  A    between atoms: C3_3  and  O1_4 
REMARK    2  A    between atoms: C4_5  and  C5_6 
REMARK    3  A    between atoms: C9_10  and  C10_11 
REMARK    4  A    between atoms: C10_11  and  C11_12 
ROOT
HETATM    1  C10 UNL     1      24.025  -0.362  53.240  1.00  0.00     0.004 C 
ENDROOT
BRANCH   1   2
HETATM    2  C9  UNL     1      24.991   0.498  53.926  1.00  0.00     0.064 A 
HETATM    3  C2  UNL     1      25.348   1.680  53.065  1.00  0.00    -0.039 A 
HETATM    4  C1  UNL     1      24.361   2.727  52.658  1.00  0.00     0.047 C 
HETATM    5  C3  UNL     1      26.634   1.599  52.767  1.00  0.00     0.075 A 
HETATM    6  C4  UNL     1      27.250   0.431  53.353  1.00  0.00    -0.024 A 
HETATM    7  C8  UNL     1      26.280  -0.192  54.019  1.00  0.00    -0.004 A 
BRANCH   5   8
HETATM    8  O1  UNL     1      27.186   2.589  51.977  1.00  0.00    -0.360 OA
HETATM    9  H4  UNL     1      27.240   3.562  52.256  1.00  0.00     0.217 HD
ENDBRANCH   5   8
BRANCH   6  10
HETATM   10  C5  UNL     1      28.679   0.100  53.177  1.00  0.00     0.013 C 
HETATM   11  C6  UNL     1      29.017  -1.332  53.393  1.00  0.00     0.015 C 
HETATM   12  C7  UNL     1      29.479   0.912  54.199  1.00  0.00     0.015 C 
ENDBRANCH   6  10
ENDBRANCH   1   2
BRANCH   1  13
HETATM   13  C11 UNL     1      22.778  -0.572  53.552  1.00  0.00     0.042 A 
HETATM   14  C12 UNL     1      22.244  -1.190  54.734  1.00  0.00     0.256 A 
HETATM   15  O2  UNL     1      22.850  -1.662  55.719  1.00  0.00    -0.267 OA
HETATM   16  N1  UNL     1      20.823  -1.196  54.625  1.00  0.00    -0.322 N 
HETATM   17  C13 UNL     1      20.483  -0.582  53.379  1.00  0.00     0.046 A 
HETATM   18  H15 UNL     1      20.107  -1.571  55.309  1.00  0.00     0.169 HD
HETATM   19  C14 UNL     1      19.282  -0.316  52.750  1.00  0.00     0.030 A 
HETATM   20  C18 UNL     1      21.640  -0.216  52.750  1.00  0.00     0.006 A 
HETATM   21  C15 UNL     1      19.195   0.300  51.523  1.00  0.00     0.002 A 
HETATM   22  C16 UNL     1      20.362   0.682  50.860  1.00  0.00     0.001 A 
HETATM   23  C17 UNL     1      21.547   0.404  51.512  1.00  0.00     0.014 A 
ENDBRANCH   1  13
TORSDOF 4
ENDMDL
MODEL 2
REMARK VINA RESULT:      -8.1      2.481      4.149
REMARK  4 active torsions:
REMARK  status: ('A' for Active; 'I' for Inactive)
REMARK    1  A    between atoms: C3_3  and  O1_4 
REMARK    2  A    between atoms: C4_5  and  C5_6 
REMARK    3  A    between atoms: C9_10  and  C10_11 
REMARK    4  A    between atoms: C10_11  and  C11_12 
ROOT
HETATM    1  C10 UNL     1      24.819   1.807  52.159  1.00  0.00     0.004 C 
ENDROOT
BRANCH   1   2
HETATM    2  C9  UNL     1      25.436   0.492  52.350  1.00  0.00     0.064 A 
HETATM    3  C2  UNL     1      24.978  -0.122  53.647  1.00  0.00    -0.039 A 
HETATM    4  C1  UNL     1      23.556  -0.496  53.919  1.00  0.00     0.047 C 
HETATM    5  C3  UNL     1      26.030  -0.249  54.437  1.00  0.00     0.075 A 
HETATM    6  C4  UNL     1      27.238   0.232  53.807  1.00  0.00    -0.024 A 
HETATM    7  C8  UNL     1      26.871   0.657  52.600  1.00  0.00    -0.004 A 
BRANCH   5   8
HETATM    8  O1  UNL     1      25.844  -0.795  55.692  1.00  0.00    -0.360 OA
HETATM    9  H4  UNL     1      26.142  -0.343  56.549  1.00  0.00     0.217 HD
ENDBRANCH   5   8
BRANCH   6  10
HETATM   10  C5  UNL     1      28.558   0.206  54.470  1.00  0.00     0.013 C 
HETATM   11  C6  UNL     1      29.314   1.485  54.401  1.00  0.00     0.015 C 
HETATM   12  C7  UNL     1      29.411  -0.861  53.779  1.00  0.00     0.015 C 
ENDBRANCH   6  10
ENDBRANCH   1   2
BRANCH   1  13
HETATM   13  C11 UNL     1      24.325   2.306  51.063  1.00  0.00     0.042 A 
HETATM   14  C12 UNL     1      24.883   3.320  50.211  1.00  0.00     0.256 A 
HETATM   15  O2  UNL     1      25.958   3.945  50.331  1.00  0.00    -0.267 OA
HETATM   16  N1  UNL     1      23.979   3.536  49.132  1.00  0.00    -0.322 N 
HETATM   17  C13 UNL     1      22.867   2.656  49.316  1.00  0.00     0.046 A 
HETATM   18  H15 UNL     1      24.066   4.208  48.318  1.00  0.00     0.169 HD
HETATM   19  C14 UNL     1      21.709   2.428  48.599  1.00  0.00     0.030 A 
HETATM   20  C18 UNL     1      23.077   1.933  50.457  1.00  0.00     0.006 A 
HETATM   21  C15 UNL     1      20.758   1.509  48.977  1.00  0.00     0.002 A 
HETATM   22  C16 UNL     1      20.948   0.759  50.138  1.00  0.00     0.001 A 
HETATM   23  C17 UNL     1      22.115   1.008  50.835  1.00  0.00     0.014 A 
ENDBRANCH   1  13
TORSDOF 4
ENDMDL
MODEL 3
REMARK VINA RESULT:      -8.1      1.577      3.009
REMARK  4 active torsions:
REMARK  status: ('A' for Active; 'I' for Inactive)
REMARK    1  A    between atoms: C3_3  and  O1_4 
REMARK    2  A    between atoms: C4_5  and  C5_6 
REMARK    3  A    between atoms: C9_10  and  C10_11 
REMARK    4  A    between atoms: C10_11  and  C11_12 
ROOT
HETATM    1  C10 UNL     1      22.947   0.853  53.450  1.00  0.00     0.004 C 
ENDROOT
BRANCH   1   2
HETATM    2  C9  UNL     1      24.036   0.654  52.492  1.00  0.00     0.064 A 
HETATM    3  C2  UNL     1      25.361   0.998  53.121  1.00  0.00    -0.039 A 
HETATM    4  C1  UNL     1      25.937   0.251  54.280  1.00  0.00     0.047 C 
HETATM    5  C3  UNL     1      25.868   2.033  52.473  1.00  0.00     0.075 A 
HETATM    6  C4  UNL     1      25.002   2.476  51.404  1.00  0.00    -0.024 A 
HETATM    7  C8  UNL     1      23.948   1.664  51.434  1.00  0.00    -0.004 A 
BRANCH   5   8
HETATM    8  O1  UNL     1      27.092   2.526  52.882  1.00  0.00    -0.360 OA
HETATM    9  H4  UNL     1      27.751   1.994  53.439  1.00  0.00     0.217 HD
ENDBRANCH   5   8
BRANCH   6  10
HETATM   10  C5  UNL     1      25.330   3.615  50.522  1.00  0.00     0.013 C 
HETATM   11  C6  UNL     1      24.208   4.077  49.662  1.00  0.00     0.015 C 
HETATM   12  C7  UNL     1      26.463   3.177  49.589  1.00  0.00     0.015 C 
ENDBRANCH   6  10
ENDBRANCH   1   2
BRANCH   1  13
HETATM   13  C11 UNL     1      21.930   0.072  53.679  1.00  0.00     0.042 A 
HETATM   14  C12 UNL     1      21.805  -0.966  54.665  1.00  0.00     0.256 A 
HETATM   15  O2  UNL     1      22.635  -1.349  55.516  1.00  0.00    -0.267 OA
HETATM   16  N1  UNL     1      20.510  -1.546  54.532  1.00  0.00    -0.322 N 
HETATM   17  C13 UNL     1      19.840  -0.867  53.468  1.00  0.00     0.046 A 
HETATM   18  H15 UNL     1      20.075  -2.333  55.091  1.00  0.00     0.169 HD
HETATM   19  C14 UNL     1      18.587  -0.996  52.901  1.00  0.00     0.030 A 
HETATM   20  C18 UNL     1      20.683   0.087  52.968  1.00  0.00     0.006 A 
HETATM   21  C15 UNL     1      18.146  -0.212  51.859  1.00  0.00     0.002 A 
HETATM   22  C16 UNL     1      18.988   0.768  51.331  1.00  0.00     0.001 A 
HETATM   23  C17 UNL     1      20.235   0.874  51.917  1.00  0.00     0.014 A 
ENDBRANCH   1  13
TORSDOF 4
ENDMDL
MODEL 4
REMARK VINA RESULT:      -8.1      3.717      6.596
REMARK  4 active torsions:
REMARK  status: ('A' for Active; 'I' for Inactive)
REMARK    1  A    between atoms: C3_3  and  O1_4 
REMARK    2  A    between atoms: C4_5  and  C5_6 
REMARK    3  A    between atoms: C9_10  and  C10_11 
REMARK    4  A    between atoms: C10_11  and  C11_12 
ROOT
HETATM    1  C10 UNL     1      24.516   2.769  51.296  1.00  0.00     0.004 C 
ENDROOT
BRANCH   1   2
HETATM    2  C9  UNL     1      24.628   2.224  52.651  1.00  0.00     0.064 A 
HETATM    3  C2  UNL     1      25.649   1.117  52.691  1.00  0.00    -0.039 A 
HETATM    4  C1  UNL     1      27.102   1.331  52.411  1.00  0.00     0.047 C 
HETATM    5  C3  UNL     1      25.026  -0.006  53.005  1.00  0.00     0.075 A 
HETATM    6  C4  UNL     1      23.609   0.200  53.199  1.00  0.00    -0.024 A 
HETATM    7  C8  UNL     1      23.401   1.498  52.989  1.00  0.00    -0.004 A 
BRANCH   5   8
HETATM    8  O1  UNL     1      25.773  -1.164  53.099  1.00  0.00    -0.360 OA
HETATM    9  H4  UNL     1      25.634  -1.862  53.822  1.00  0.00     0.217 HD
ENDBRANCH   5   8
BRANCH   6  10
HETATM   10  C5  UNL     1      22.679  -0.890  53.557  1.00  0.00     0.013 C 
HETATM   11  C6  UNL     1      21.242  -0.580  53.332  1.00  0.00     0.015 C 
HETATM   12  C7  UNL     1      22.849  -1.182  55.051  1.00  0.00     0.015 C 
ENDBRANCH   6  10
ENDBRANCH   1   2
BRANCH   1  13
HETATM   13  C11 UNL     1      24.603   4.014  50.926  1.00  0.00     0.042 A 
HETATM   14  C12 UNL     1      23.733   5.108  51.259  1.00  0.00     0.256 A 
HETATM   15  O2  UNL     1      22.707   5.110  51.972  1.00  0.00    -0.267 OA
HETATM   16  N1  UNL     1      24.231   6.279  50.619  1.00  0.00    -0.322 N 
HETATM   17  C13 UNL     1      25.406   5.908  49.894  1.00  0.00     0.046 A 
HETATM   18  H15 UNL     1      23.844   7.265  50.643  1.00  0.00     0.169 HD
HETATM   19  C14 UNL     1      26.292   6.611  49.101  1.00  0.00     0.030 A 
HETATM   20  C18 UNL     1      25.620   4.570  50.079  1.00  0.00     0.006 A 
HETATM   21  C15 UNL     1      27.379   6.030  48.489  1.00  0.00     0.002 A 
HETATM   22  C16 UNL     1      27.619   4.666  48.661  1.00  0.00     0.001 A 
HETATM   23  C17 UNL     1      26.717   3.989  49.459  1.00  0.00     0.014 A 
ENDBRANCH   1  13
TORSDOF 4
ENDMDL
MODEL 5
REMARK VINA RESULT:      -8.1      2.078      6.985
REMARK  4 active torsions:
REMARK  status: ('A' for Active; 'I' for Inactive)
REMARK    1  A    between atoms: C3_3  and  O1_4 
REMARK    2  A    between atoms: C4_5  and  C5_6 
REMARK    3  A    between atoms: C9_10  and  C10_11 
REMARK    4  A    between atoms: C10_11  and  C11_12 
ROOT
HETATM    1  C10 UNL     1      24.681   0.231  53.097  1.00  0.00     0.004 C 
ENDROOT
BRANCH   1   2
HETATM    2  C9  UNL     1      23.356   0.630  53.577  1.00  0.00     0.064 A 
HETATM    3  C2  UNL     1      22.622  -0.555  54.146  1.00  0.00    -0.039 A 
HETATM    4  C1  UNL     1      23.085  -1.304  55.354  1.00  0.00     0.047 C 
HETATM    5  C3  UNL     1      21.554  -0.776  53.398  1.00  0.00     0.075 A 
HETATM    6  C4  UNL     1      21.452   0.171  52.312  1.00  0.00    -0.024 A 
HETATM    7  C8  UNL     1      22.505   0.976  52.435  1.00  0.00    -0.004 A 
BRANCH   5   8
HETATM    8  O1  UNL     1      20.724  -1.827  53.737  1.00  0.00    -0.360 OA
HETATM    9  H4  UNL     1      20.849  -2.772  53.392  1.00  0.00     0.217 HD
ENDBRANCH   5   8
BRANCH   6  10
HETATM   10  C5  UNL     1      20.352   0.151  51.326  1.00  0.00     0.013 C 
HETATM   11  C6  UNL     1      20.621   0.915  50.079  1.00  0.00     0.015 C 
HETATM   12  C7  UNL     1      19.119   0.777  51.983  1.00  0.00     0.015 C 
ENDBRANCH   6  10
ENDBRANCH   1   2
BRANCH   1  13
HETATM   13  C11 UNL     1      25.825   0.803  53.341  1.00  0.00     0.042 A 
HETATM   14  C12 UNL     1      26.088   2.182  53.646  1.00  0.00     0.256 A 
HETATM   15  O2  UNL     1      25.286   3.134  53.744  1.00  0.00    -0.267 OA
HETATM   16  N1  UNL     1      27.492   2.332  53.834  1.00  0.00    -0.322 N 
HETATM   17  C13 UNL     1      28.093   1.048  53.646  1.00  0.00     0.046 A 
HETATM   18  H15 UNL     1      28.041   3.206  54.070  1.00  0.00     0.169 HD
HETATM   19  C14 UNL     1      29.396   0.593  53.703  1.00  0.00     0.030 A 
HETATM   20  C18 UNL     1      27.104   0.149  53.356  1.00  0.00     0.006 A 
HETATM   21  C15 UNL     1      29.746  -0.719  53.482  1.00  0.00     0.002 A 
HETATM   22  C16 UNL     1      28.755  -1.655  53.183  1.00  0.00     0.001 A 
HETATM   23  C17 UNL     1      27.462  -1.172  53.133  1.00  0.00     0.014 A 
ENDBRANCH   1  13
TORSDOF 4
ENDMDL
MODEL 6
REMARK VINA RESULT:      -7.9      2.035      3.030
REMARK  4 active torsions:
REMARK  status: ('A' for Active; 'I' for Inactive)
REMARK    1  A    between atoms: C3_3  and  O1_4 
REMARK    2  A    between atoms: C4_5  and  C5_6 
REMARK    3  A    between atoms: C9_10  and  C10_11 
REMARK    4  A    between atoms: C10_11  and  C11_12 
ROOT
HETATM    1  C10 UNL     1      23.915   0.981  52.821  1.00  0.00     0.004 C 
ENDROOT
BRANCH   1   2
HETATM    2  C9  UNL     1      24.961  -0.043  52.784  1.00  0.00     0.064 A 
HETATM    3  C2  UNL     1      25.389  -0.412  54.180  1.00  0.00    -0.039 A 
HETATM    4  C1  UNL     1      24.476  -1.056  55.173  1.00  0.00     0.047 C 
HETATM    5  C3  UNL     1      26.656  -0.066  54.327  1.00  0.00     0.075 A 
HETATM    6  C4  UNL     1      27.194   0.535  53.128  1.00  0.00    -0.024 A 
HETATM    7  C8  UNL     1      26.195   0.538  52.248  1.00  0.00    -0.004 A 
BRANCH   5   8
HETATM    8  O1  UNL     1      27.265  -0.313  55.542  1.00  0.00    -0.360 OA
HETATM    9  H4  UNL     1      27.192  -1.195  56.036  1.00  0.00     0.217 HD
ENDBRANCH   5   8
BRANCH   6  10
HETATM   10  C5  UNL     1      28.588   1.011  53.021  1.00  0.00     0.013 C 
HETATM   11  C6  UNL     1      29.602   0.109  53.628  1.00  0.00     0.015 C 
HETATM   12  C7  UNL     1      28.683   2.354  53.750  1.00  0.00     0.015 C 
ENDBRANCH   6  10
ENDBRANCH   1   2
BRANCH   1  13
HETATM   13  C11 UNL     1      22.845   1.059  52.083  1.00  0.00     0.042 A 
HETATM   14  C12 UNL     1      22.677   1.723  50.820  1.00  0.00     0.256 A 
HETATM   15  O2  UNL     1      23.513   2.370  50.153  1.00  0.00    -0.267 OA
HETATM   16  N1  UNL     1      21.330   1.533  50.397  1.00  0.00    -0.322 N 
HETATM   17  C13 UNL     1      20.669   0.754  51.397  1.00  0.00     0.046 A 
HETATM   18  H15 UNL     1      20.856   1.882  49.517  1.00  0.00     0.169 HD
HETATM   19  C14 UNL     1      19.382   0.270  51.524  1.00  0.00     0.030 A 
HETATM   20  C18 UNL     1      21.569   0.476  52.389  1.00  0.00     0.006 A 
HETATM   21  C15 UNL     1      18.961  -0.477  52.600  1.00  0.00     0.002 A 
HETATM   22  C16 UNL     1      19.859  -0.773  53.627  1.00  0.00     0.001 A 
HETATM   23  C17 UNL     1      21.139  -0.276  53.472  1.00  0.00     0.014 A 
ENDBRANCH   1  13
TORSDOF 4
ENDMDL
MODEL 7
REMARK VINA RESULT:      -7.8      2.335      5.949
REMARK  4 active torsions:
REMARK  status: ('A' for Active; 'I' for Inactive)
REMARK    1  A    between atoms: C3_3  and  O1_4 
REMARK    2  A    between atoms: C4_5  and  C5_6 
REMARK    3  A    between atoms: C9_10  and  C10_11 
REMARK    4  A    between atoms: C10_11  and  C11_12 
ROOT
HETATM    1  C10 UNL     1      22.922  -0.356  53.007  1.00  0.00     0.004 C 
ENDROOT
BRANCH   1   2
HETATM    2  C9  UNL     1      22.101   0.836  52.784  1.00  0.00     0.064 A 
HETATM    3  C2  UNL     1      20.740   0.449  52.270  1.00  0.00    -0.039 A 
HETATM    4  C1  UNL     1      19.761  -0.356  53.063  1.00  0.00     0.047 C 
HETATM    5  C3  UNL     1      20.605   0.941  51.050  1.00  0.00     0.075 A 
HETATM    6  C4  UNL     1      21.782   1.667  50.629  1.00  0.00    -0.024 A 
HETATM    7  C8  UNL     1      22.635   1.593  51.649  1.00  0.00    -0.004 A 
BRANCH   5   8
HETATM    8  O1  UNL     1      19.422   0.708  50.376  1.00  0.00    -0.360 OA
HETATM    9  H4  UNL     1      18.733   0.027  50.675  1.00  0.00     0.217 HD
ENDBRANCH   5   8
BRANCH   6  10
HETATM   10  C5  UNL     1      21.898   2.318  49.309  1.00  0.00     0.013 C 
HETATM   11  C6  UNL     1      21.838   1.389  48.150  1.00  0.00     0.015 C 
HETATM   12  C7  UNL     1      23.254   3.027  49.250  1.00  0.00     0.015 C 
ENDBRANCH   6  10
ENDBRANCH   1   2
BRANCH   1  13
HETATM   13  C11 UNL     1      23.921  -0.497  53.830  1.00  0.00     0.042 A 
HETATM   14  C12 UNL     1      23.929  -1.113  55.129  1.00  0.00     0.256 A 
HETATM   15  O2  UNL     1      22.988  -1.646  55.753  1.00  0.00    -0.267 OA
HETATM   16  N1  UNL     1      25.252  -1.026  55.649  1.00  0.00    -0.322 N 
HETATM   17  C13 UNL     1      26.058  -0.360  54.675  1.00  0.00     0.046 A 
HETATM   18  H15 UNL     1      25.624  -1.374  56.578  1.00  0.00     0.169 HD
HETATM   19  C14 UNL     1      27.391  -0.002  54.630  1.00  0.00     0.030 A 
HETATM   20  C18 UNL     1      25.267  -0.050  53.603  1.00  0.00     0.006 A 
HETATM   21  C15 UNL     1      27.961   0.650  53.561  1.00  0.00     0.002 A 
HETATM   22  C16 UNL     1      27.175   0.978  52.455  1.00  0.00     0.001 A 
HETATM   23  C17 UNL     1      25.846   0.608  52.528  1.00  0.00     0.014 A 
ENDBRANCH   1  13
TORSDOF 4
ENDMDL
MODEL 8
REMARK VINA RESULT:      -7.8      3.015      5.084
REMARK  4 active torsions:
REMARK  status: ('A' for Active; 'I' for Inactive)
REMARK    1  A    between atoms: C3_3  and  O1_4 
REMARK    2  A    between atoms: C4_5  and  C5_6 
REMARK    3  A    between atoms: C9_10  and  C10_11 
REMARK    4  A    between atoms: C10_11  and  C11_12 
ROOT
HETATM    1  C10 UNL     1      25.187   1.225  51.626  1.00  0.00     0.004 C 
ENDROOT
BRANCH   1   2
HETATM    2  C9  UNL     1      24.606   2.564  51.505  1.00  0.00     0.064 A 
HETATM    3  C2  UNL     1      23.585   2.597  50.399  1.00  0.00    -0.039 A 
HETATM    4  C1  UNL     1      22.320   1.801  50.426  1.00  0.00     0.047 C 
HETATM    5  C3  UNL     1      24.019   3.423  49.462  1.00  0.00     0.075 A 
HETATM    6  C4  UNL     1      25.297   4.004  49.806  1.00  0.00    -0.024 A 
HETATM    7  C8  UNL     1      25.617   3.492  50.992  1.00  0.00    -0.004 A 
BRANCH   5   8
HETATM    8  O1  UNL     1      23.235   3.611  48.341  1.00  0.00    -0.360 OA
HETATM    9  H4  UNL     1      23.611   3.848  47.429  1.00  0.00     0.217 HD
ENDBRANCH   5   8
BRANCH   6  10
HETATM   10  C5  UNL     1      26.007   4.962  48.935  1.00  0.00     0.013 C 
HETATM   11  C6  UNL     1      27.461   4.696  48.774  1.00  0.00     0.015 C 
HETATM   12  C7  UNL     1      25.868   6.355  49.555  1.00  0.00     0.015 C 
ENDBRANCH   6  10
ENDBRANCH   1   2
BRANCH   1  13
HETATM   13  C11 UNL     1      25.451   0.564  52.716  1.00  0.00     0.042 A 
HETATM   14  C12 UNL     1      26.728   0.325  53.330  1.00  0.00     0.256 A 
HETATM   15  O2  UNL     1      27.862   0.694  52.959  1.00  0.00    -0.267 OA
HETATM   16  N1  UNL     1      26.514  -0.450  54.507  1.00  0.00    -0.322 N 
HETATM   17  C13 UNL     1      25.109  -0.686  54.619  1.00  0.00     0.046 A 
HETATM   18  H15 UNL     1      27.226  -0.808  55.204  1.00  0.00     0.169 HD
HETATM   19  C14 UNL     1      24.331  -1.363  55.538  1.00  0.00     0.030 A 
HETATM   20  C18 UNL     1      24.486  -0.086  53.559  1.00  0.00     0.006 A 
HETATM   21  C15 UNL     1      22.962  -1.462  55.440  1.00  0.00     0.002 A 
HETATM   22  C16 UNL     1      22.303  -0.859  54.367  1.00  0.00     0.001 A 
HETATM   23  C17 UNL     1      23.106  -0.189  53.464  1.00  0.00     0.014 A 
ENDBRANCH   1  13
TORSDOF 4
ENDMDL
MODEL 9
REMARK VINA RESULT:      -7.7      2.279      7.245
REMARK  4 active torsions:
REMARK  status: ('A' for Active; 'I' for Inactive)
REMARK    1  A    between atoms: C3_3  and  O1_4 
REMARK    2  A    between atoms: C4_5  and  C5_6 
REMARK    3  A    between atoms: C9_10  and  C10_11 
REMARK    4  A    between atoms: C10_11  and  C11_12 
ROOT
HETATM    1  C10 UNL     1      22.373   0.873  52.265  1.00  0.00     0.004 C 
ENDROOT
BRANCH   1   2
HETATM    2  C9  UNL     1      21.114   1.033  52.995  1.00  0.00     0.064 A 
HETATM    3  C2  UNL     1      20.840  -0.179  53.846  1.00  0.00    -0.039 A 
HETATM    4  C1  UNL     1      21.714  -0.595  54.986  1.00  0.00     0.047 C 
HETATM    5  C3  UNL     1      19.738  -0.757  53.398  1.00  0.00     0.075 A 
HETATM    6  C4  UNL     1      19.179  -0.048  52.270  1.00  0.00    -0.024 A 
HETATM    7  C8  UNL     1      19.992   0.984  52.054  1.00  0.00    -0.004 A 
BRANCH   5   8
HETATM    8  O1  UNL     1      19.293  -1.899  54.034  1.00  0.00    -0.360 OA
HETATM    9  H4  UNL     1      19.881  -2.475  54.627  1.00  0.00     0.217 HD
ENDBRANCH   5   8
BRANCH   6  10
HETATM   10  C5  UNL     1      17.948  -0.480  51.577  1.00  0.00     0.013 C 
HETATM   11  C6  UNL     1      17.691   0.204  50.282  1.00  0.00     0.015 C 
HETATM   12  C7  UNL     1      16.760  -0.173  52.493  1.00  0.00     0.015 C 
ENDBRANCH   6  10
ENDBRANCH   1   2
BRANCH   1  13
HETATM   13  C11 UNL     1      23.465   1.571  52.392  1.00  0.00     0.042 A 
HETATM   14  C12 UNL     1      23.622   2.999  52.360  1.00  0.00     0.256 A 
HETATM   15  O2  UNL     1      22.755   3.884  52.204  1.00  0.00    -0.267 OA
HETATM   16  N1  UNL     1      25.004   3.294  52.542  1.00  0.00    -0.322 N 
HETATM   17  C13 UNL     1      25.696   2.052  52.686  1.00  0.00     0.046 A 
HETATM   18  H15 UNL     1      25.482   4.238  52.573  1.00  0.00     0.169 HD
HETATM   19  C14 UNL     1      27.023   1.723  52.885  1.00  0.00     0.030 A 
HETATM   20  C18 UNL     1      24.783   1.038  52.597  1.00  0.00     0.006 A 
HETATM   21  C15 UNL     1      27.469   0.426  52.997  1.00  0.00     0.002 A 
HETATM   22  C16 UNL     1      26.557  -0.627  52.908  1.00  0.00     0.001 A 
HETATM   23  C17 UNL     1      25.237  -0.268  52.710  1.00  0.00     0.014 A 
ENDBRANCH   1  13
TORSDOF 4
ENDMDL
