MODEL 1
REMARK VINA RESULT:      -8.3      0.000      0.000
REMARK  10 active torsions:
REMARK  status: ('A' for Active; 'I' for Inactive)
REMARK    1  A    between atoms: N1_1  and  C1_2 
REMARK    2  A    between atoms: C1_2  and  C2_3 
REMARK    3  A    between atoms: C2_3  and  C13_18 
REMARK    4  A    between atoms: C3_4  and  C4_5 
REMARK    5  A    between atoms: C4_5  and  N2_6 
REMARK    6  A    between atoms: C4_5  and  C5_7 
REMARK    7  A    between atoms: C5_7  and  C6_9 
REMARK    8  A    between atoms: C7_10  and  C8_11 
REMARK    9  A    between atoms: C8_11  and  N3_12 
REMARK   10  A    between atoms: C15_20  and  C16_21 
ROOT
HETATM    1  C2  UNL     1      25.686   0.182  53.139  1.00  0.00    -0.003 C 
HETATM    2  C3  UNL     1      25.718   1.230  52.369  1.00  0.00     0.027 C 
ENDROOT
BRANCH   1   3
HETATM    3  C1  UNL     1      26.827  -0.650  53.597  1.00  0.00     0.307 C 
BRANCH   3   4
HETATM    4  N1  UNL     1      27.314  -0.273  54.913  1.00  0.00     0.082 N 
HETATM    5  H1  UNL     1      28.142   0.325  54.759  1.00  0.00     0.313 HD
HETATM    6  H2  UNL     1      26.565   0.224  55.451  1.00  0.00     0.313 HD
ENDBRANCH   3   4
ENDBRANCH   1   3
BRANCH   1   7
HETATM    7  C13 UNL     1      24.369  -0.265  53.627  1.00  0.00     0.065 A 
HETATM    8  C14 UNL     1      23.209  -0.059  52.957  1.00  0.00     0.044 A 
HETATM    9  C15 UNL     1      21.958  -0.457  53.363  1.00  0.00    -0.022 A 
HETATM   10  C22 UNL     1      21.869  -1.138  54.583  1.00  0.00     0.031 A 
HETATM   11  C23 UNL     1      23.059  -1.336  55.248  1.00  0.00     0.118 A 
HETATM   12  N4  UNL     1      24.242  -0.921  54.793  1.00  0.00    -0.261 NA
BRANCH   9  13
HETATM   13  C16 UNL     1      20.784  -0.163  52.529  1.00  0.00    -0.025 A 
HETATM   14  C17 UNL     1      20.925   0.546  51.350  1.00  0.00     0.012 A 
HETATM   15  C18 UNL     1      19.791   0.802  50.593  1.00  0.00     0.002 A 
HETATM   16  C19 UNL     1      18.527   0.360  50.995  1.00  0.00     0.019 A 
HETATM   17  C20 UNL     1      18.454  -0.339  52.179  1.00  0.00     0.011 A 
HETATM   18 BR1  UNL     1      16.776  -1.005  52.848  1.00  0.00    -0.051 Br
HETATM   19  C21 UNL     1      19.546  -0.623  52.971  1.00  0.00     0.031 A 
ENDBRANCH   9  13
ENDBRANCH   1   7
BRANCH   2  20
HETATM   20  C4  UNL     1      26.784   1.973  51.686  1.00  0.00     0.314 C 
BRANCH  20  21
HETATM   21  N2  UNL     1      27.629   2.681  52.642  1.00  0.00     0.094 N 
HETATM   22  H7  UNL     1      27.861   3.610  52.203  1.00  0.00     0.314 HD
HETATM   23  H8  UNL     1      28.480   2.147  52.905  1.00  0.00     0.314 HD
ENDBRANCH  20  21
BRANCH  20  24
HETATM   24  C5  UNL     1      26.264   2.834  50.614  1.00  0.00     0.185 C 
HETATM   25  O1  UNL     1      25.013   2.580  50.663  1.00  0.00    -0.291 OA
BRANCH  24  26
HETATM   26  C6  UNL     1      26.770   3.807  49.606  1.00  0.00     0.050 C 
HETATM   27  C7  UNL     1      26.331   4.939  49.063  1.00  0.00     0.007 C 
BRANCH  27  28
HETATM   28  C8  UNL     1      25.312   5.989  48.934  1.00  0.00     0.300 C 
BRANCH  28  29
HETATM   29  N3  UNL     1      24.148   5.746  49.713  1.00  0.00     0.096 N 
HETATM   30  C9  UNL     1      24.188   6.142  51.090  1.00  0.00     0.299 C 
HETATM   31  C10 UNL     1      23.106   5.351  51.802  1.00  0.00     0.198 C 
HETATM   32  O2  UNL     1      22.015   5.104  51.001  1.00  0.00    -0.388 OA
HETATM   33  C11 UNL     1      21.795   6.107  50.061  1.00  0.00     0.198 C 
HETATM   34  C12 UNL     1      22.944   6.295  49.122  1.00  0.00     0.299 C 
ENDBRANCH  28  29
ENDBRANCH  27  28
ENDBRANCH  24  26
ENDBRANCH  20  24
ENDBRANCH   2  20
TORSDOF 10
ENDMDL
MODEL 2
REMARK VINA RESULT:      -8.3      2.245      2.956
REMARK  10 active torsions:
REMARK  status: ('A' for Active; 'I' for Inactive)
REMARK    1  A    between atoms: N1_1  and  C1_2 
REMARK    2  A    between atoms: C1_2  and  C2_3 
REMARK    3  A    between atoms: C2_3  and  C13_18 
REMARK    4  A    between atoms: C3_4  and  C4_5 
REMARK    5  A    between atoms: C4_5  and  N2_6 
REMARK    6  A    between atoms: C4_5  and  C5_7 
REMARK    7  A    between atoms: C5_7  and  C6_9 
REMARK    8  A    between atoms: C7_10  and  C8_11 
REMARK    9  A    between atoms: C8_11  and  N3_12 
REMARK   10  A    between atoms: C15_20  and  C16_21 
ROOT
HETATM    1  C2  UNL     1      25.753   0.010  52.960  1.00  0.00    -0.003 C 
HETATM    2  C3  UNL     1      25.786   1.194  52.421  1.00  0.00     0.027 C 
ENDROOT
BRANCH   1   3
HETATM    3  C1  UNL     1      26.828  -1.011  52.986  1.00  0.00     0.307 C 
BRANCH   3   4
HETATM    4  N1  UNL     1      27.747  -0.844  54.099  1.00  0.00     0.082 N 
HETATM    5  H1  UNL     1      27.378  -1.421  54.872  1.00  0.00     0.313 HD
HETATM    6  H2  UNL     1      28.715  -1.133  53.820  1.00  0.00     0.313 HD
ENDBRANCH   3   4
ENDBRANCH   1   3
BRANCH   1   7
HETATM    7  C13 UNL     1      24.504  -0.400  53.627  1.00  0.00     0.065 A 
HETATM    8  C14 UNL     1      23.273  -0.238  53.084  1.00  0.00     0.044 A 
HETATM    9  C15 UNL     1      22.079  -0.604  53.658  1.00  0.00    -0.022 A 
HETATM   10  C22 UNL     1      22.137  -1.201  54.924  1.00  0.00     0.031 A 
HETATM   11  C23 UNL     1      23.398  -1.355  55.458  1.00  0.00     0.118 A 
HETATM   12  N4  UNL     1      24.517  -0.975  54.841  1.00  0.00    -0.261 NA
BRANCH   9  13
HETATM   13  C16 UNL     1      20.815  -0.365  52.949  1.00  0.00    -0.025 A 
HETATM   14  C17 UNL     1      19.628  -0.864  53.450  1.00  0.00     0.012 A 
HETATM   15  C18 UNL     1      18.457  -0.615  52.749  1.00  0.00     0.002 A 
HETATM   16  C19 UNL     1      18.457   0.123  51.562  1.00  0.00     0.019 A 
HETATM   17  C20 UNL     1      19.673   0.593  51.116  1.00  0.00     0.011 A 
HETATM   18 BR1  UNL     1      19.816   1.624  49.496  1.00  0.00    -0.051 Br
HETATM   19  C21 UNL     1      20.866   0.376  51.770  1.00  0.00     0.031 A 
ENDBRANCH   9  13
ENDBRANCH   1   7
BRANCH   2  20
HETATM   20  C4  UNL     1      26.795   1.960  51.681  1.00  0.00     0.314 C 
BRANCH  20  21
HETATM   21  N2  UNL     1      27.698   2.660  52.589  1.00  0.00     0.094 N 
HETATM   22  H7  UNL     1      27.937   1.979  53.355  1.00  0.00     0.314 HD
HETATM   23  H8  UNL     1      27.298   3.544  52.959  1.00  0.00     0.314 HD
ENDBRANCH  20  21
BRANCH  20  24
HETATM   24  C5  UNL     1      26.197   2.834  50.662  1.00  0.00     0.185 C 
HETATM   25  O1  UNL     1      24.957   2.775  50.969  1.00  0.00    -0.291 OA
BRANCH  24  26
HETATM   26  C6  UNL     1      26.620   3.667  49.502  1.00  0.00     0.050 C 
HETATM   27  C7  UNL     1      26.441   4.925  49.110  1.00  0.00     0.007 C 
BRANCH  27  28
HETATM   28  C8  UNL     1      25.876   6.264  49.317  1.00  0.00     0.300 C 
BRANCH  28  29
HETATM   29  N3  UNL     1      26.857   7.293  49.349  1.00  0.00     0.096 N 
HETATM   30  C9  UNL     1      27.703   7.425  48.201  1.00  0.00     0.299 C 
HETATM   31  C10 UNL     1      28.935   8.188  48.654  1.00  0.00     0.198 C 
HETATM   32  O2  UNL     1      28.658   9.107  49.639  1.00  0.00    -0.388 OA
HETATM   33  C11 UNL     1      27.373   9.635  49.541  1.00  0.00     0.198 C 
HETATM   34  C12 UNL     1      26.301   8.598  49.652  1.00  0.00     0.299 C 
ENDBRANCH  28  29
ENDBRANCH  27  28
ENDBRANCH  24  26
ENDBRANCH  20  24
ENDBRANCH   2  20
TORSDOF 10
ENDMDL
MODEL 3
REMARK VINA RESULT:      -8.2      4.826     10.252
REMARK  10 active torsions:
REMARK  status: ('A' for Active; 'I' for Inactive)
REMARK    1  A    between atoms: N1_1  and  C1_2 
REMARK    2  A    between atoms: C1_2  and  C2_3 
REMARK    3  A    between atoms: C2_3  and  C13_18 
REMARK    4  A    between atoms: C3_4  and  C4_5 
REMARK    5  A    between atoms: C4_5  and  N2_6 
REMARK    6  A    between atoms: C4_5  and  C5_7 
REMARK    7  A    between atoms: C5_7  and  C6_9 
REMARK    8  A    between atoms: C7_10  and  C8_11 
REMARK    9  A    between atoms: C8_11  and  N3_12 
REMARK   10  A    between atoms: C15_20  and  C16_21 
ROOT
HETATM    1  C2  UNL     1      26.528   5.511  49.087  1.00  0.00    -0.003 C 
HETATM    2  C3  UNL     1      26.527   4.210  49.066  1.00  0.00     0.027 C 
ENDROOT
BRANCH   1   3
HETATM    3  C1  UNL     1      25.545   6.416  49.731  1.00  0.00     0.307 C 
BRANCH   3   4
HETATM    4  N1  UNL     1      26.148   7.322  50.693  1.00  0.00     0.082 N 
HETATM    5  H1  UNL     1      26.371   8.189  50.178  1.00  0.00     0.313 HD
HETATM    6  H2  UNL     1      25.492   7.496  51.491  1.00  0.00     0.313 HD
ENDBRANCH   3   4
ENDBRANCH   1   3
BRANCH   1   7
HETATM    7  C13 UNL     1      27.625   6.202  48.384  1.00  0.00     0.065 A 
HETATM    8  C14 UNL     1      28.900   5.744  48.346  1.00  0.00     0.044 A 
HETATM    9  C15 UNL     1      29.957   6.344  47.705  1.00  0.00    -0.022 A 
HETATM   10  C22 UNL     1      29.696   7.542  47.027  1.00  0.00     0.031 A 
HETATM   11  C23 UNL     1      28.394   7.989  47.079  1.00  0.00     0.118 A 
HETATM   12  N4  UNL     1      27.415   7.353  47.723  1.00  0.00    -0.261 NA
BRANCH   9  13
HETATM   13  C16 UNL     1      31.291   5.730  47.750  1.00  0.00    -0.025 A 
HETATM   14  C17 UNL     1      32.395   6.485  48.099  1.00  0.00     0.012 A 
HETATM   15  C18 UNL     1      33.637   5.866  48.129  1.00  0.00     0.002 A 
HETATM   16  C19 UNL     1      33.787   4.511  47.818  1.00  0.00     0.019 A 
HETATM   17  C20 UNL     1      32.649   3.816  47.478  1.00  0.00     0.011 A 
HETATM   18 BR1  UNL     1      32.714   1.945  47.027  1.00  0.00    -0.051 Br
HETATM   19  C21 UNL     1      31.391   4.378  47.431  1.00  0.00     0.031 A 
ENDBRANCH   9  13
ENDBRANCH   1   7
BRANCH   2  20
HETATM   20  C4  UNL     1      25.644   3.173  49.615  1.00  0.00     0.314 C 
BRANCH  20  21
HETATM   21  N2  UNL     1      24.250   3.428  49.267  1.00  0.00     0.094 N 
HETATM   22  H7  UNL     1      24.033   2.813  48.440  1.00  0.00     0.314 HD
HETATM   23  H8  UNL     1      24.056   4.429  49.074  1.00  0.00     0.314 HD
ENDBRANCH  20  21
BRANCH  20  24
HETATM   24  C5  UNL     1      25.859   2.962  51.054  1.00  0.00     0.185 C 
HETATM   25  O1  UNL     1      27.135   2.926  51.120  1.00  0.00    -0.291 OA
BRANCH  24  26
HETATM   26  C6  UNL     1      25.061   2.797  52.301  1.00  0.00     0.050 C 
HETATM   27  C7  UNL     1      24.729   1.787  53.099  1.00  0.00     0.007 C 
BRANCH  27  28
HETATM   28  C8  UNL     1      24.775   0.363  53.452  1.00  0.00     0.300 C 
BRANCH  28  29
HETATM   29  N3  UNL     1      26.094  -0.124  53.665  1.00  0.00     0.096 N 
HETATM   30  C9  UNL     1      26.899  -0.361  52.504  1.00  0.00     0.299 C 
HETATM   31  C10 UNL     1      28.000  -1.317  52.925  1.00  0.00     0.198 C 
HETATM   32  O2  UNL     1      28.391  -1.134  54.231  1.00  0.00    -0.388 OA
HETATM   33  C11 UNL     1      28.265   0.186  54.654  1.00  0.00     0.198 C 
HETATM   34  C12 UNL     1      26.859   0.694  54.585  1.00  0.00     0.299 C 
ENDBRANCH  28  29
ENDBRANCH  27  28
ENDBRANCH  24  26
ENDBRANCH  20  24
ENDBRANCH   2  20
TORSDOF 10
ENDMDL
MODEL 4
REMARK VINA RESULT:      -7.9      4.192      7.198
REMARK  10 active torsions:
REMARK  status: ('A' for Active; 'I' for Inactive)
REMARK    1  A    between atoms: N1_1  and  C1_2 
REMARK    2  A    between atoms: C1_2  and  C2_3 
REMARK    3  A    between atoms: C2_3  and  C13_18 
REMARK    4  A    between atoms: C3_4  and  C4_5 
REMARK    5  A    between atoms: C4_5  and  N2_6 
REMARK    6  A    between atoms: C4_5  and  C5_7 
REMARK    7  A    between atoms: C5_7  and  C6_9 
REMARK    8  A    between atoms: C7_10  and  C8_11 
REMARK    9  A    between atoms: C8_11  and  N3_12 
REMARK   10  A    between atoms: C15_20  and  C16_21 
ROOT
HETATM    1  C2  UNL     1      24.685   5.451  49.802  1.00  0.00    -0.003 C 
HETATM    2  C3  UNL     1      25.800   5.421  49.132  1.00  0.00     0.027 C 
ENDROOT
BRANCH   1   3
HETATM    3  C1  UNL     1      24.039   6.621  50.447  1.00  0.00     0.307 C 
BRANCH   3   4
HETATM    4  N1  UNL     1      24.473   6.828  51.818  1.00  0.00     0.082 N 
HETATM    5  H1  UNL     1      23.934   7.631  52.178  1.00  0.00     0.313 HD
HETATM    6  H2  UNL     1      24.315   5.961  52.385  1.00  0.00     0.313 HD
ENDBRANCH   3   4
ENDBRANCH   1   3
BRANCH   1   7
HETATM    7  C13 UNL     1      23.954   4.182  49.965  1.00  0.00     0.065 A 
HETATM    8  C14 UNL     1      24.301   3.222  50.856  1.00  0.00     0.044 A 
HETATM    9  C15 UNL     1      23.655   2.026  51.052  1.00  0.00    -0.022 A 
HETATM   10  C22 UNL     1      22.531   1.770  50.257  1.00  0.00     0.031 A 
HETATM   11  C23 UNL     1      22.195   2.758  49.357  1.00  0.00     0.118 A 
HETATM   12  N4  UNL     1      22.871   3.899  49.220  1.00  0.00    -0.261 NA
BRANCH   9  13
HETATM   13  C16 UNL     1      24.148   1.077  52.061  1.00  0.00    -0.025 A 
HETATM   14  C17 UNL     1      25.502   0.828  52.181  1.00  0.00     0.012 A 
HETATM   15  C18 UNL     1      25.926  -0.074  53.146  1.00  0.00     0.002 A 
HETATM   16  C19 UNL     1      25.019  -0.725  53.987  1.00  0.00     0.019 A 
HETATM   17  C20 UNL     1      23.684  -0.434  53.816  1.00  0.00     0.011 A 
HETATM   18 BR1  UNL     1      22.329  -1.260  54.908  1.00  0.00    -0.051 Br
HETATM   19  C21 UNL     1      23.206   0.453  52.876  1.00  0.00     0.031 A 
ENDBRANCH   9  13
ENDBRANCH   1   7
BRANCH   2  20
HETATM   20  C4  UNL     1      26.804   6.424  48.759  1.00  0.00     0.314 C 
BRANCH  20  21
HETATM   21  N2  UNL     1      26.282   7.346  47.756  1.00  0.00     0.094 N 
HETATM   22  H7  UNL     1      25.238   7.376  47.895  1.00  0.00     0.314 HD
HETATM   23  H8  UNL     1      26.542   7.083  46.786  1.00  0.00     0.314 HD
ENDBRANCH  20  21
BRANCH  20  24
HETATM   24  C5  UNL     1      28.088   5.815  48.382  1.00  0.00     0.185 C 
HETATM   25  O1  UNL     1      27.918   4.605  48.755  1.00  0.00    -0.291 OA
BRANCH  24  26
HETATM   26  C6  UNL     1      29.380   6.208  47.753  1.00  0.00     0.050 C 
HETATM   27  C7  UNL     1      30.664   6.166  48.097  1.00  0.00     0.007 C 
BRANCH  27  28
HETATM   28  C8  UNL     1      31.725   5.830  49.054  1.00  0.00     0.300 C 
BRANCH  28  29
HETATM   29  N3  UNL     1      32.635   4.851  48.570  1.00  0.00     0.096 N 
HETATM   30  C9  UNL     1      32.237   4.104  47.414  1.00  0.00     0.299 C 
HETATM   31  C10 UNL     1      33.075   2.838  47.404  1.00  0.00     0.198 C 
HETATM   32  O2  UNL     1      34.334   3.032  47.921  1.00  0.00    -0.388 OA
HETATM   33  C11 UNL     1      34.816   4.320  47.706  1.00  0.00     0.198 C 
HETATM   34  C12 UNL     1      33.964   5.379  48.330  1.00  0.00     0.299 C 
ENDBRANCH  28  29
ENDBRANCH  27  28
ENDBRANCH  24  26
ENDBRANCH  20  24
ENDBRANCH   2  20
TORSDOF 10
ENDMDL
MODEL 5
REMARK VINA RESULT:      -7.8      3.660      5.977
REMARK  10 active torsions:
REMARK  status: ('A' for Active; 'I' for Inactive)
REMARK    1  A    between atoms: N1_1  and  C1_2 
REMARK    2  A    between atoms: C1_2  and  C2_3 
REMARK    3  A    between atoms: C2_3  and  C13_18 
REMARK    4  A    between atoms: C3_4  and  C4_5 
REMARK    5  A    between atoms: C4_5  and  N2_6 
REMARK    6  A    between atoms: C4_5  and  C5_7 
REMARK    7  A    between atoms: C5_7  and  C6_9 
REMARK    8  A    between atoms: C7_10  and  C8_11 
REMARK    9  A    between atoms: C8_11  and  N3_12 
REMARK   10  A    between atoms: C15_20  and  C16_21 
ROOT
HETATM    1  C2  UNL     1      24.980   3.978  50.903  1.00  0.00    -0.003 C 
HETATM    2  C3  UNL     1      25.880   4.399  50.062  1.00  0.00     0.027 C 
ENDROOT
BRANCH   1   3
HETATM    3  C1  UNL     1      23.767   4.691  51.374  1.00  0.00     0.307 C 
BRANCH   3   4
HETATM    4  N1  UNL     1      24.064   5.768  52.303  1.00  0.00     0.082 N 
HETATM    5  H1  UNL     1      23.198   5.939  52.839  1.00  0.00     0.313 HD
HETATM    6  H2  UNL     1      24.866   5.503  52.924  1.00  0.00     0.313 HD
ENDBRANCH   3   4
ENDBRANCH   1   3
BRANCH   1   7
HETATM    7  C13 UNL     1      25.164   2.636  51.482  1.00  0.00     0.065 A 
HETATM    8  C14 UNL     1      24.163   1.915  52.044  1.00  0.00     0.044 A 
HETATM    9  C15 UNL     1      24.277   0.662  52.594  1.00  0.00    -0.022 A 
HETATM   10  C22 UNL     1      25.546   0.070  52.576  1.00  0.00     0.031 A 
HETATM   11  C23 UNL     1      26.549   0.819  52.002  1.00  0.00     0.118 A 
HETATM   12  N4  UNL     1      26.366   2.034  51.485  1.00  0.00    -0.261 NA
BRANCH   9  13
HETATM   13  C16 UNL     1      23.098  -0.001  53.170  1.00  0.00    -0.025 A 
HETATM   14  C17 UNL     1      23.230  -0.827  54.271  1.00  0.00     0.012 A 
HETATM   15  C18 UNL     1      22.092  -1.433  54.784  1.00  0.00     0.002 A 
HETATM   16  C19 UNL     1      20.832  -1.224  54.215  1.00  0.00     0.019 A 
HETATM   17  C20 UNL     1      20.769  -0.391  53.120  1.00  0.00     0.011 A 
HETATM   18 BR1  UNL     1      19.097  -0.018  52.240  1.00  0.00    -0.051 Br
HETATM   19  C21 UNL     1      21.865   0.237  52.569  1.00  0.00     0.031 A 
ENDBRANCH   9  13
ENDBRANCH   1   7
BRANCH   2  20
HETATM   20  C4  UNL     1      26.072   5.633  49.291  1.00  0.00     0.314 C 
BRANCH  20  21
HETATM   21  N2  UNL     1      24.927   5.898  48.427  1.00  0.00     0.094 N 
HETATM   22  H7  UNL     1      24.320   6.589  48.941  1.00  0.00     0.314 HD
HETATM   23  H8  UNL     1      24.408   5.039  48.163  1.00  0.00     0.314 HD
ENDBRANCH  20  21
BRANCH  20  24
HETATM   24  C5  UNL     1      27.359   5.653  48.581  1.00  0.00     0.185 C 
HETATM   25  O1  UNL     1      27.733   4.436  48.693  1.00  0.00    -0.291 OA
BRANCH  24  26
HETATM   26  C6  UNL     1      28.230   6.618  47.854  1.00  0.00     0.050 C 
HETATM   27  C7  UNL     1      29.465   7.089  47.996  1.00  0.00     0.007 C 
BRANCH  27  28
HETATM   28  C8  UNL     1      30.744   7.138  48.717  1.00  0.00     0.300 C 
BRANCH  28  29
HETATM   29  N3  UNL     1      31.732   6.272  48.174  1.00  0.00     0.096 N 
HETATM   30  C9  UNL     1      32.864   5.974  49.000  1.00  0.00     0.299 C 
HETATM   31  C10 UNL     1      33.966   5.495  48.073  1.00  0.00     0.198 C 
HETATM   32  O2  UNL     1      33.481   4.809  46.983  1.00  0.00    -0.388 OA
HETATM   33  C11 UNL     1      32.301   4.122  47.257  1.00  0.00     0.198 C 
HETATM   34  C12 UNL     1      31.186   5.019  47.690  1.00  0.00     0.299 C 
ENDBRANCH  28  29
ENDBRANCH  27  28
ENDBRANCH  24  26
ENDBRANCH  20  24
ENDBRANCH   2  20
TORSDOF 10
ENDMDL
MODEL 6
REMARK VINA RESULT:      -7.8      1.838      2.243
REMARK  10 active torsions:
REMARK  status: ('A' for Active; 'I' for Inactive)
REMARK    1  A    between atoms: N1_1  and  C1_2 
REMARK    2  A    between atoms: C1_2  and  C2_3 
REMARK    3  A    between atoms: C2_3  and  C13_18 
REMARK    4  A    between atoms: C3_4  and  C4_5 
REMARK    5  A    between atoms: C4_5  and  N2_6 
REMARK    6  A    between atoms: C4_5  and  C5_7 
REMARK    7  A    between atoms: C5_7  and  C6_9 
REMARK    8  A    between atoms: C7_10  and  C8_11 
REMARK    9  A    between atoms: C8_11  and  N3_12 
REMARK   10  A    between atoms: C15_20  and  C16_21 
ROOT
HETATM    1  C2  UNL     1      25.798   0.272  53.170  1.00  0.00    -0.003 C 
HETATM    2  C3  UNL     1      25.776   1.326  52.407  1.00  0.00     0.027 C 
ENDROOT
BRANCH   1   3
HETATM    3  C1  UNL     1      26.976  -0.526  53.591  1.00  0.00     0.307 C 
BRANCH   3   4
HETATM    4  N1  UNL     1      27.420  -0.220  54.940  1.00  0.00     0.082 N 
HETATM    5  H1  UNL     1      28.021  -1.006  55.235  1.00  0.00     0.313 HD
HETATM    6  H2  UNL     1      27.931   0.695  54.957  1.00  0.00     0.313 HD
ENDBRANCH   3   4
ENDBRANCH   1   3
BRANCH   1   7
HETATM    7  C13 UNL     1      24.510  -0.218  53.691  1.00  0.00     0.065 A 
HETATM    8  C14 UNL     1      23.325  -0.044  53.056  1.00  0.00     0.044 A 
HETATM    9  C15 UNL     1      22.099  -0.483  53.493  1.00  0.00    -0.022 A 
HETATM   10  C22 UNL     1      22.065  -1.175  54.710  1.00  0.00     0.031 A 
HETATM   11  C23 UNL     1      23.279  -1.340  55.340  1.00  0.00     0.118 A 
HETATM   12  N4  UNL     1      24.435  -0.885  54.856  1.00  0.00    -0.261 NA
BRANCH   9  13
HETATM   13  C16 UNL     1      20.894  -0.220  52.694  1.00  0.00    -0.025 A 
HETATM   14  C17 UNL     1      20.973   0.537  51.540  1.00  0.00     0.012 A 
HETATM   15  C18 UNL     1      19.811   0.762  50.816  1.00  0.00     0.002 A 
HETATM   16  C19 UNL     1      18.580   0.241  51.226  1.00  0.00     0.019 A 
HETATM   17  C20 UNL     1      18.569  -0.504  52.384  1.00  0.00     0.011 A 
HETATM   18 BR1  UNL     1      16.942  -1.280  53.062  1.00  0.00    -0.051 Br
HETATM   19  C21 UNL     1      19.690  -0.759  53.143  1.00  0.00     0.031 A 
ENDBRANCH   9  13
ENDBRANCH   1   7
BRANCH   2  20
HETATM   20  C4  UNL     1      26.799   2.106  51.700  1.00  0.00     0.314 C 
BRANCH  20  21
HETATM   21  N2  UNL     1      27.731   2.725  52.636  1.00  0.00     0.094 N 
HETATM   22  H7  UNL     1      27.634   3.766  52.507  1.00  0.00     0.314 HD
HETATM   23  H8  UNL     1      28.709   2.402  52.510  1.00  0.00     0.314 HD
ENDBRANCH  20  21
BRANCH  20  24
HETATM   24  C5  UNL     1      26.213   3.055  50.742  1.00  0.00     0.185 C 
HETATM   25  O1  UNL     1      27.166   3.192  49.901  1.00  0.00    -0.291 OA
BRANCH  24  26
HETATM   26  C6  UNL     1      24.944   3.805  50.532  1.00  0.00     0.050 C 
HETATM   27  C7  UNL     1      23.789   3.580  49.912  1.00  0.00     0.007 C 
BRANCH  27  28
HETATM   28  C8  UNL     1      22.910   2.718  49.112  1.00  0.00     0.300 C 
BRANCH  28  29
HETATM   29  N3  UNL     1      21.786   3.402  48.573  1.00  0.00     0.096 N 
HETATM   30  C9  UNL     1      20.876   2.635  47.774  1.00  0.00     0.299 C 
HETATM   31  C10 UNL     1      20.100   3.627  46.926  1.00  0.00     0.198 C 
HETATM   32  O2  UNL     1      19.894   4.826  47.567  1.00  0.00    -0.388 OA
HETATM   33  C11 UNL     1      19.790   4.691  48.949  1.00  0.00     0.198 C 
HETATM   34  C12 UNL     1      21.016   4.110  49.577  1.00  0.00     0.299 C 
ENDBRANCH  28  29
ENDBRANCH  27  28
ENDBRANCH  24  26
ENDBRANCH  20  24
ENDBRANCH   2  20
TORSDOF 10
ENDMDL
MODEL 7
REMARK VINA RESULT:      -7.7      1.655      2.103
REMARK  10 active torsions:
REMARK  status: ('A' for Active; 'I' for Inactive)
REMARK    1  A    between atoms: N1_1  and  C1_2 
REMARK    2  A    between atoms: C1_2  and  C2_3 
REMARK    3  A    between atoms: C2_3  and  C13_18 
REMARK    4  A    between atoms: C3_4  and  C4_5 
REMARK    5  A    between atoms: C4_5  and  N2_6 
REMARK    6  A    between atoms: C4_5  and  C5_7 
REMARK    7  A    between atoms: C5_7  and  C6_9 
REMARK    8  A    between atoms: C7_10  and  C8_11 
REMARK    9  A    between atoms: C8_11  and  N3_12 
REMARK   10  A    between atoms: C15_20  and  C16_21 
ROOT
HETATM    1  C2  UNL     1      25.131   0.174  53.064  1.00  0.00    -0.003 C 
HETATM    2  C3  UNL     1      25.273   1.186  52.259  1.00  0.00     0.027 C 
ENDROOT
BRANCH   1   3
HETATM    3  C1  UNL     1      26.194  -0.660  53.678  1.00  0.00     0.307 C 
BRANCH   3   4
HETATM    4  N1  UNL     1      26.474  -0.301  55.058  1.00  0.00     0.082 N 
HETATM    5  H1  UNL     1      27.390   0.176  55.056  1.00  0.00     0.313 HD
HETATM    6  H2  UNL     1      25.712   0.311  55.437  1.00  0.00     0.313 HD
ENDBRANCH   3   4
ENDBRANCH   1   3
BRANCH   1   7
HETATM    7  C13 UNL     1      23.758  -0.224  53.423  1.00  0.00     0.065 A 
HETATM    8  C14 UNL     1      22.669   0.067  52.670  1.00  0.00     0.044 A 
HETATM    9  C15 UNL     1      21.371  -0.282  52.954  1.00  0.00    -0.022 A 
HETATM   10  C22 UNL     1      21.148  -1.005  54.133  1.00  0.00     0.031 A 
HETATM   11  C23 UNL     1      22.268  -1.289  54.883  1.00  0.00     0.118 A 
HETATM   12  N4  UNL     1      23.503  -0.918  54.545  1.00  0.00    -0.261 NA
BRANCH   9  13
HETATM   13  C16 UNL     1      20.287   0.104  52.040  1.00  0.00    -0.025 A 
HETATM   14  C17 UNL     1      18.994  -0.327  52.271  1.00  0.00     0.012 A 
HETATM   15  C18 UNL     1      18.000   0.061  51.383  1.00  0.00     0.002 A 
HETATM   16  C19 UNL     1      18.280   0.870  50.278  1.00  0.00     0.019 A 
HETATM   17  C20 UNL     1      19.588   1.264  50.105  1.00  0.00     0.011 A 
HETATM   18 BR1  UNL     1      20.111   2.379  48.624  1.00  0.00    -0.051 Br
HETATM   19  C21 UNL     1      20.615   0.910  50.953  1.00  0.00     0.031 A 
ENDBRANCH   9  13
ENDBRANCH   1   7
BRANCH   2  20
HETATM   20  C4  UNL     1      26.425   1.877  51.667  1.00  0.00     0.314 C 
BRANCH  20  21
HETATM   21  N2  UNL     1      27.257   2.493  52.695  1.00  0.00     0.094 N 
HETATM   22  H7  UNL     1      27.585   3.412  52.301  1.00  0.00     0.314 HD
HETATM   23  H8  UNL     1      28.046   1.890  52.995  1.00  0.00     0.314 HD
ENDBRANCH  20  21
BRANCH  20  24
HETATM   24  C5  UNL     1      26.030   2.805  50.598  1.00  0.00     0.185 C 
HETATM   25  O1  UNL     1      27.133   3.402  50.355  1.00  0.00    -0.291 OA
BRANCH  24  26
HETATM   26  C6  UNL     1      24.814   3.180  49.824  1.00  0.00     0.050 C 
HETATM   27  C7  UNL     1      24.345   4.286  49.252  1.00  0.00     0.007 C 
BRANCH  27  28
HETATM   28  C8  UNL     1      24.473   5.710  48.918  1.00  0.00     0.300 C 
BRANCH  28  29
HETATM   29  N3  UNL     1      23.304   6.466  49.208  1.00  0.00     0.096 N 
HETATM   30  C9  UNL     1      22.107   6.112  48.504  1.00  0.00     0.299 C 
HETATM   31  C10 UNL     1      21.187   7.318  48.578  1.00  0.00     0.198 C 
HETATM   32  O2  UNL     1      21.329   8.023  49.750  1.00  0.00    -0.388 OA
HETATM   33  C11 UNL     1      21.691   7.218  50.826  1.00  0.00     0.198 C 
HETATM   34  C12 UNL     1      22.996   6.516  50.624  1.00  0.00     0.299 C 
ENDBRANCH  28  29
ENDBRANCH  27  28
ENDBRANCH  24  26
ENDBRANCH  20  24
ENDBRANCH   2  20
TORSDOF 10
ENDMDL
MODEL 8
REMARK VINA RESULT:      -7.6      5.188      8.355
REMARK  10 active torsions:
REMARK  status: ('A' for Active; 'I' for Inactive)
REMARK    1  A    between atoms: N1_1  and  C1_2 
REMARK    2  A    between atoms: C1_2  and  C2_3 
REMARK    3  A    between atoms: C2_3  and  C13_18 
REMARK    4  A    between atoms: C3_4  and  C4_5 
REMARK    5  A    between atoms: C4_5  and  N2_6 
REMARK    6  A    between atoms: C4_5  and  C5_7 
REMARK    7  A    between atoms: C5_7  and  C6_9 
REMARK    8  A    between atoms: C7_10  and  C8_11 
REMARK    9  A    between atoms: C8_11  and  N3_12 
REMARK   10  A    between atoms: C15_20  and  C16_21 
ROOT
HETATM    1  C2  UNL     1      19.186  -0.087  52.373  1.00  0.00    -0.003 C 
HETATM    2  C3  UNL     1      19.106   1.063  51.770  1.00  0.00     0.027 C 
ENDROOT
BRANCH   1   3
HETATM    3  C1  UNL     1      18.149  -1.144  52.465  1.00  0.00     0.307 C 
BRANCH   3   4
HETATM    4  N1  UNL     1      17.587  -1.277  53.798  1.00  0.00     0.082 N 
HETATM    5  H1  UNL     1      16.569  -1.137  53.702  1.00  0.00     0.313 HD
HETATM    6  H2  UNL     1      17.818  -2.218  54.199  1.00  0.00     0.313 HD
ENDBRANCH   3   4
ENDBRANCH   1   3
BRANCH   1   7
HETATM    7  C13 UNL     1      20.446  -0.406  53.068  1.00  0.00     0.065 A 
HETATM    8  C14 UNL     1      21.658   0.066  52.684  1.00  0.00     0.044 A 
HETATM    9  C15 UNL     1      22.860  -0.195  53.295  1.00  0.00    -0.022 A 
HETATM   10  C22 UNL     1      22.836  -1.028  54.421  1.00  0.00     0.031 A 
HETATM   11  C23 UNL     1      21.595  -1.497  54.794  1.00  0.00     0.118 A 
HETATM   12  N4  UNL     1      20.465  -1.201  54.151  1.00  0.00    -0.261 NA
BRANCH   9  13
HETATM   13  C16 UNL     1      24.100   0.389  52.765  1.00  0.00    -0.025 A 
HETATM   14  C17 UNL     1      24.051   1.485  51.924  1.00  0.00     0.012 A 
HETATM   15  C18 UNL     1      25.245   2.005  51.445  1.00  0.00     0.002 A 
HETATM   16  C19 UNL     1      26.479   1.448  51.795  1.00  0.00     0.019 A 
HETATM   17  C20 UNL     1      26.458   0.357  52.636  1.00  0.00     0.011 A 
HETATM   18 BR1  UNL     1      28.086  -0.506  53.197  1.00  0.00    -0.051 Br
HETATM   19  C21 UNL     1      25.304  -0.201  53.141  1.00  0.00     0.031 A 
ENDBRANCH   9  13
ENDBRANCH   1   7
BRANCH   2  20
HETATM   20  C4  UNL     1      18.065   1.749  50.995  1.00  0.00     0.314 C 
BRANCH  20  21
HETATM   21  N2  UNL     1      18.395   1.773  49.574  1.00  0.00     0.094 N 
HETATM   22  H7  UNL     1      18.654   0.787  49.311  1.00  0.00     0.314 HD
HETATM   23  H8  UNL     1      19.145   2.452  49.342  1.00  0.00     0.314 HD
ENDBRANCH  20  21
BRANCH  20  24
HETATM   24  C5  UNL     1      17.742   3.073  51.545  1.00  0.00     0.185 C 
HETATM   25  O1  UNL     1      18.882   3.458  51.974  1.00  0.00    -0.291 OA
BRANCH  24  26
HETATM   26  C6  UNL     1      16.562   3.968  51.708  1.00  0.00     0.050 C 
HETATM   27  C7  UNL     1      15.241   3.830  51.659  1.00  0.00     0.007 C 
BRANCH  27  28
HETATM   28  C8  UNL     1      14.044   3.000  51.470  1.00  0.00     0.300 C 
BRANCH  28  29
HETATM   29  N3  UNL     1      13.141   3.051  52.567  1.00  0.00     0.096 N 
HETATM   30  C9  UNL     1      13.155   1.943  53.476  1.00  0.00     0.299 C 
HETATM   31  C10 UNL     1      11.827   1.969  54.212  1.00  0.00     0.198 C 
HETATM   32  O2  UNL     1      11.352   3.245  54.405  1.00  0.00    -0.388 OA
HETATM   33  C11 UNL     1      12.368   4.187  54.541  1.00  0.00     0.198 C 
HETATM   34  C12 UNL     1      13.257   4.271  53.341  1.00  0.00     0.299 C 
ENDBRANCH  28  29
ENDBRANCH  27  28
ENDBRANCH  24  26
ENDBRANCH  20  24
ENDBRANCH   2  20
TORSDOF 10
ENDMDL
MODEL 9
REMARK VINA RESULT:      -7.6      1.564      2.151
REMARK  10 active torsions:
REMARK  status: ('A' for Active; 'I' for Inactive)
REMARK    1  A    between atoms: N1_1  and  C1_2 
REMARK    2  A    between atoms: C1_2  and  C2_3 
REMARK    3  A    between atoms: C2_3  and  C13_18 
REMARK    4  A    between atoms: C3_4  and  C4_5 
REMARK    5  A    between atoms: C4_5  and  N2_6 
REMARK    6  A    between atoms: C4_5  and  C5_7 
REMARK    7  A    between atoms: C5_7  and  C6_9 
REMARK    8  A    between atoms: C7_10  and  C8_11 
REMARK    9  A    between atoms: C8_11  and  N3_12 
REMARK   10  A    between atoms: C15_20  and  C16_21 
ROOT
HETATM    1  C2  UNL     1      25.554   0.386  52.934  1.00  0.00    -0.003 C 
HETATM    2  C3  UNL     1      25.441   1.357  52.075  1.00  0.00     0.027 C 
ENDROOT
BRANCH   1   3
HETATM    3  C1  UNL     1      26.794  -0.284  53.397  1.00  0.00     0.307 C 
BRANCH   3   4
HETATM    4  N1  UNL     1      26.833  -1.700  53.073  1.00  0.00     0.082 N 
HETATM    5  H1  UNL     1      25.989  -2.119  53.495  1.00  0.00     0.313 HD
HETATM    6  H2  UNL     1      26.862  -1.835  52.034  1.00  0.00     0.313 HD
ENDBRANCH   3   4
ENDBRANCH   1   3
BRANCH   1   7
HETATM    7  C13 UNL     1      24.314  -0.142  53.532  1.00  0.00     0.065 A 
HETATM    8  C14 UNL     1      23.086   0.014  52.979  1.00  0.00     0.044 A 
HETATM    9  C15 UNL     1      21.902  -0.458  53.491  1.00  0.00    -0.022 A 
HETATM   10  C22 UNL     1      21.965  -1.168  54.697  1.00  0.00     0.031 A 
HETATM   11  C23 UNL     1      23.222  -1.314  55.241  1.00  0.00     0.118 A 
HETATM   12  N4  UNL     1      24.333  -0.827  54.688  1.00  0.00    -0.261 NA
BRANCH   9  13
HETATM   13  C16 UNL     1      20.640  -0.212  52.779  1.00  0.00    -0.025 A 
HETATM   14  C17 UNL     1      20.581   0.731  51.770  1.00  0.00     0.012 A 
HETATM   15  C18 UNL     1      19.370   0.933  51.123  1.00  0.00     0.002 A 
HETATM   16  C19 UNL     1      18.226   0.208  51.468  1.00  0.00     0.019 A 
HETATM   17  C20 UNL     1      18.352  -0.716  52.482  1.00  0.00     0.011 A 
HETATM   18 BR1  UNL     1      16.855  -1.783  53.057  1.00  0.00    -0.051 Br
HETATM   19  C21 UNL     1      19.527  -0.958  53.158  1.00  0.00     0.031 A 
ENDBRANCH   9  13
ENDBRANCH   1   7
BRANCH   2  20
HETATM   20  C4  UNL     1      26.391   2.135  51.271  1.00  0.00     0.314 C 
BRANCH  20  21
HETATM   21  N2  UNL     1      27.328   2.864  52.120  1.00  0.00     0.094 N 
HETATM   22  H7  UNL     1      27.893   2.137  52.631  1.00  0.00     0.314 HD
HETATM   23  H8  UNL     1      26.859   3.525  52.769  1.00  0.00     0.314 HD
ENDBRANCH  20  21
BRANCH  20  24
HETATM   24  C5  UNL     1      25.717   2.985  50.279  1.00  0.00     0.185 C 
HETATM   25  O1  UNL     1      26.682   3.717  49.870  1.00  0.00    -0.291 OA
BRANCH  24  26
HETATM   26  C6  UNL     1      24.358   3.183  49.701  1.00  0.00     0.050 C 
HETATM   27  C7  UNL     1      23.737   4.141  49.020  1.00  0.00     0.007 C 
BRANCH  27  28
HETATM   28  C8  UNL     1      23.732   5.463  48.382  1.00  0.00     0.300 C 
BRANCH  28  29
HETATM   29  N3  UNL     1      24.890   6.235  48.671  1.00  0.00     0.096 N 
HETATM   30  C9  UNL     1      25.221   7.285  47.754  1.00  0.00     0.299 C 
HETATM   31  C10 UNL     1      26.691   7.601  47.967  1.00  0.00     0.198 C 
HETATM   32  O2  UNL     1      27.086   7.433  49.273  1.00  0.00    -0.388 OA
HETATM   33  C11 UNL     1      26.066   7.688  50.185  1.00  0.00     0.198 C 
HETATM   34  C12 UNL     1      24.881   6.792  50.010  1.00  0.00     0.299 C 
ENDBRANCH  28  29
ENDBRANCH  27  28
ENDBRANCH  24  26
ENDBRANCH  20  24
ENDBRANCH   2  20
TORSDOF 10
ENDMDL
