MODEL 1
REMARK VINA RESULT:      -8.0      0.000      0.000
REMARK  7 active torsions:
REMARK  status: ('A' for Active; 'I' for Inactive)
REMARK    1  A    between atoms: C2_2  and  C3_4 
REMARK    2  A    between atoms: C6_7  and  O2_8 
REMARK    3  A    between atoms: O2_8  and  P1_9 
REMARK    4  A    between atoms: P1_9  and  C7_10 
REMARK    5  A    between atoms: C7_10  and  C8_11 
REMARK    6  A    between atoms: C8_11  and  C9_12 
REMARK    7  A    between atoms: C9_12  and  O3_13 
ROOT
HETATM    1  C3  UNL     1      21.527   0.290  52.902  1.00  0.00    -0.008 C 
HETATM    2  C4  UNL     1      22.295  -0.660  53.402  1.00  0.00     0.013 C 
HETATM    3  C5  UNL     1      23.738  -0.780  53.589  1.00  0.00     0.033 C 
HETATM    4  C6  UNL     1      24.947  -0.262  53.414  1.00  0.00     0.054 C 
HETATM    5  C10 UNL     1      25.403   0.961  52.734  1.00  0.00     0.092 C 
HETATM    6  C11 UNL     1      25.341   2.115  53.601  1.00  0.00    -0.019 C 
HETATM    7  C12 UNL     1      24.538   3.025  53.019  1.00  0.00     0.008 C 
HETATM    8  C13 UNL     1      23.866   2.793  51.699  1.00  0.00    -0.030 A 
HETATM    9  C14 UNL     1      24.481   3.345  50.571  1.00  0.00     0.013 A 
HETATM   10  C15 UNL     1      24.013   3.214  49.258  1.00  0.00     0.024 A 
HETATM   11  C16 UNL     1      22.857   2.480  49.108  1.00  0.00     0.034 A 
HETATM   12 CL1  UNL     1      22.172   2.243  47.517  1.00  0.00    -0.084 Cl
HETATM   13  C17 UNL     1      22.233   1.928  50.203  1.00  0.00     0.032 A 
HETATM   14  C18 UNL     1      22.674   2.047  51.487  1.00  0.00    -0.042 A 
HETATM   15  C19 UNL     1      22.189   1.576  52.765  1.00  0.00     0.082 C 
ENDROOT
BRANCH   4  16
HETATM   16  O2  UNL     1      26.029  -1.012  53.942  1.00  0.00    -0.331 OA
BRANCH  16  17
HETATM   17  P1  UNL     1      27.371  -1.467  52.888  1.00  0.00     0.019 P 
HETATM   18  H6  UNL     1      27.370  -2.871  52.585  1.00  0.00     0.088 HD
BRANCH  17  19
HETATM   19  C7  UNL     1      28.946  -0.889  53.645  1.00  0.00     0.063 C 
BRANCH  19  20
HETATM   20  C8  UNL     1      28.744   0.240  54.617  1.00  0.00     0.032 C 
BRANCH  20  21
HETATM   21  C9  UNL     1      28.968   1.592  53.980  1.00  0.00     0.164 C 
BRANCH  21  22
HETATM   22  O3  UNL     1      29.740   2.416  54.778  1.00  0.00    -0.401 OA
HETATM   23  H13 UNL     1      30.211   3.029  54.177  1.00  0.00     0.209 HD
ENDBRANCH  21  22
ENDBRANCH  20  21
ENDBRANCH  19  20
ENDBRANCH  17  19
ENDBRANCH  16  17
ENDBRANCH   4  16
BRANCH   1  24
HETATM   24  C2  UNL     1      20.087   0.278  52.743  1.00  0.00     0.152 C 
HETATM   25  C1  UNL     1      19.176  -0.760  53.244  1.00  0.00     0.096 C 
HETATM   26  O1  UNL     1      19.474   1.201  52.134  1.00  0.00    -0.293 OA
ENDBRANCH   1  24
TORSDOF 7
ENDMDL
MODEL 2
REMARK VINA RESULT:      -7.4      3.936      6.301
REMARK  7 active torsions:
REMARK  status: ('A' for Active; 'I' for Inactive)
REMARK    1  A    between atoms: C2_2  and  C3_4 
REMARK    2  A    between atoms: C6_7  and  O2_8 
REMARK    3  A    between atoms: O2_8  and  P1_9 
REMARK    4  A    between atoms: P1_9  and  C7_10 
REMARK    5  A    between atoms: C7_10  and  C8_11 
REMARK    6  A    between atoms: C8_11  and  C9_12 
REMARK    7  A    between atoms: C9_12  and  O3_13 
ROOT
HETATM    1  C3  UNL     1      26.587   1.951  52.822  1.00  0.00    -0.008 C 
HETATM    2  C4  UNL     1      27.066   2.433  51.689  1.00  0.00     0.013 C 
HETATM    3  C5  UNL     1      26.477   3.230  50.618  1.00  0.00     0.033 C 
HETATM    4  C6  UNL     1      25.403   3.815  50.104  1.00  0.00     0.054 C 
HETATM    5  C10 UNL     1      23.997   3.846  50.540  1.00  0.00     0.092 C 
HETATM    6  C11 UNL     1      23.757   4.890  51.510  1.00  0.00    -0.019 C 
HETATM    7  C12 UNL     1      23.278   4.312  52.628  1.00  0.00     0.008 C 
HETATM    8  C13 UNL     1      23.066   2.834  52.754  1.00  0.00    -0.030 A 
HETATM    9  C14 UNL     1      21.765   2.363  52.548  1.00  0.00     0.013 A 
HETATM   10  C15 UNL     1      21.382   1.016  52.601  1.00  0.00     0.024 A 
HETATM   11  C16 UNL     1      22.391   0.122  52.882  1.00  0.00     0.034 A 
HETATM   12 CL1  UNL     1      22.041  -1.589  52.975  1.00  0.00    -0.084 Cl
HETATM   13  C17 UNL     1      23.678   0.561  53.089  1.00  0.00     0.032 A 
HETATM   14  C18 UNL     1      24.067   1.866  53.042  1.00  0.00    -0.042 A 
HETATM   15  C19 UNL     1      25.328   2.548  53.233  1.00  0.00     0.082 C 
ENDROOT
BRANCH   4  16
HETATM   16  O2  UNL     1      25.600   4.529  48.894  1.00  0.00    -0.331 OA
BRANCH  16  17
HETATM   17  P1  UNL     1      26.667   5.936  48.876  1.00  0.00     0.019 P 
HETATM   18  H6  UNL     1      28.024   5.590  49.199  1.00  0.00     0.088 HD
BRANCH  17  19
HETATM   19  C7  UNL     1      25.966   7.230  49.981  1.00  0.00     0.063 C 
BRANCH  19  20
HETATM   20  C8  UNL     1      26.196   8.623  49.464  1.00  0.00     0.032 C 
BRANCH  20  21
HETATM   21  C9  UNL     1      27.543   9.172  49.873  1.00  0.00     0.164 C 
BRANCH  21  22
HETATM   22  O3  UNL     1      27.596   9.453  51.225  1.00  0.00    -0.401 OA
HETATM   23  H13 UNL     1      28.123  10.273  51.323  1.00  0.00     0.209 HD
ENDBRANCH  21  22
ENDBRANCH  20  21
ENDBRANCH  19  20
ENDBRANCH  17  19
ENDBRANCH  16  17
ENDBRANCH   4  16
BRANCH   1  24
HETATM   24  C2  UNL     1      27.275   1.138  53.803  1.00  0.00     0.152 C 
HETATM   25  C1  UNL     1      28.483   0.337  53.562  1.00  0.00     0.096 C 
HETATM   26  O1  UNL     1      26.871   1.049  54.999  1.00  0.00    -0.293 OA
ENDBRANCH   1  24
TORSDOF 7
ENDMDL
MODEL 3
REMARK VINA RESULT:      -7.1      2.790      4.984
REMARK  7 active torsions:
REMARK  status: ('A' for Active; 'I' for Inactive)
REMARK    1  A    between atoms: C2_2  and  C3_4 
REMARK    2  A    between atoms: C6_7  and  O2_8 
REMARK    3  A    between atoms: O2_8  and  P1_9 
REMARK    4  A    between atoms: P1_9  and  C7_10 
REMARK    5  A    between atoms: C7_10  and  C8_11 
REMARK    6  A    between atoms: C8_11  and  C9_12 
REMARK    7  A    between atoms: C9_12  and  O3_13 
ROOT
HETATM    1  C3  UNL     1      26.021   3.888  49.860  1.00  0.00    -0.008 C 
HETATM    2  C4  UNL     1      26.406   3.136  50.875  1.00  0.00     0.013 C 
HETATM    3  C5  UNL     1      25.685   2.268  51.802  1.00  0.00     0.033 C 
HETATM    4  C6  UNL     1      24.525   1.789  52.230  1.00  0.00     0.054 C 
HETATM    5  C10 UNL     1      23.136   2.074  51.833  1.00  0.00     0.092 C 
HETATM    6  C11 UNL     1      22.727   1.279  50.699  1.00  0.00    -0.019 C 
HETATM    7  C12 UNL     1      22.358   2.121  49.716  1.00  0.00     0.008 C 
HETATM    8  C13 UNL     1      22.401   3.612  49.862  1.00  0.00    -0.030 A 
HETATM    9  C14 UNL     1      21.198   4.250  50.183  1.00  0.00     0.013 A 
HETATM   10  C15 UNL     1      21.050   5.628  50.381  1.00  0.00     0.024 A 
HETATM   11  C16 UNL     1      22.197   6.376  50.239  1.00  0.00     0.034 A 
HETATM   12 CL1  UNL     1      22.144   8.110  50.463  1.00  0.00    -0.084 Cl
HETATM   13  C17 UNL     1      23.392   5.772  49.923  1.00  0.00     0.032 A 
HETATM   14  C18 UNL     1      23.553   4.433  49.726  1.00  0.00    -0.042 A 
HETATM   15  C19 UNL     1      24.681   3.595  49.382  1.00  0.00     0.082 C 
ENDROOT
BRANCH   4  16
HETATM   16  O2  UNL     1      24.592   0.845  53.288  1.00  0.00    -0.331 OA
BRANCH  16  17
HETATM   17  P1  UNL     1      25.985  -0.234  53.405  1.00  0.00     0.019 P 
HETATM   18  H6  UNL     1      25.602  -1.618  53.378  1.00  0.00     0.088 HD
BRANCH  17  19
HETATM   19  C7  UNL     1      26.965   0.218  54.896  1.00  0.00     0.063 C 
BRANCH  19  20
HETATM   20  C8  UNL     1      28.421   0.433  54.592  1.00  0.00     0.032 C 
BRANCH  20  21
HETATM   21  C9  UNL     1      28.678   1.766  53.929  1.00  0.00     0.164 C 
BRANCH  21  22
HETATM   22  O3  UNL     1      29.667   2.482  54.577  1.00  0.00    -0.401 OA
HETATM   23  H13 UNL     1      29.881   1.992  55.397  1.00  0.00     0.209 HD
ENDBRANCH  21  22
ENDBRANCH  20  21
ENDBRANCH  19  20
ENDBRANCH  17  19
ENDBRANCH  16  17
ENDBRANCH   4  16
BRANCH   1  24
HETATM   24  C2  UNL     1      26.842   4.738  49.022  1.00  0.00     0.152 C 
HETATM   25  C1  UNL     1      26.502   6.098  48.583  1.00  0.00     0.096 C 
HETATM   26  O1  UNL     1      27.965   4.358  48.583  1.00  0.00    -0.293 OA
ENDBRANCH   1  24
TORSDOF 7
ENDMDL
MODEL 4
REMARK VINA RESULT:      -7.0      3.670      7.264
REMARK  7 active torsions:
REMARK  status: ('A' for Active; 'I' for Inactive)
REMARK    1  A    between atoms: C2_2  and  C3_4 
REMARK    2  A    between atoms: C6_7  and  O2_8 
REMARK    3  A    between atoms: O2_8  and  P1_9 
REMARK    4  A    between atoms: P1_9  and  C7_10 
REMARK    5  A    between atoms: C7_10  and  C8_11 
REMARK    6  A    between atoms: C8_11  and  C9_12 
REMARK    7  A    between atoms: C9_12  and  O3_13 
ROOT
HETATM    1  C3  UNL     1      24.354   3.258  50.116  1.00  0.00    -0.008 C 
HETATM    2  C4  UNL     1      23.394   2.997  49.248  1.00  0.00     0.013 C 
HETATM    3  C5  UNL     1      22.198   2.162  49.306  1.00  0.00     0.033 C 
HETATM    4  C6  UNL     1      21.457   1.295  49.983  1.00  0.00     0.054 C 
HETATM    5  C10 UNL     1      21.652   0.645  51.289  1.00  0.00     0.092 C 
HETATM    6  C11 UNL     1      21.183   1.470  52.378  1.00  0.00    -0.019 C 
HETATM    7  C12 UNL     1      22.220   1.690  53.207  1.00  0.00     0.008 C 
HETATM    8  C13 UNL     1      23.591   1.134  52.961  1.00  0.00    -0.030 A 
HETATM    9  C14 UNL     1      23.931  -0.036  53.647  1.00  0.00     0.013 A 
HETATM   10  C15 UNL     1      25.152  -0.710  53.526  1.00  0.00     0.024 A 
HETATM   11  C16 UNL     1      26.061  -0.145  52.659  1.00  0.00     0.034 A 
HETATM   12 CL1  UNL     1      27.623  -0.892  52.420  1.00  0.00    -0.084 Cl
HETATM   13  C17 UNL     1      25.750   1.007  51.973  1.00  0.00     0.032 A 
HETATM   14  C18 UNL     1      24.567   1.675  52.079  1.00  0.00    -0.042 A 
HETATM   15  C19 UNL     1      24.035   2.880  51.482  1.00  0.00     0.082 C 
ENDROOT
BRANCH   4  16
HETATM   16  O2  UNL     1      20.259   0.871  49.352  1.00  0.00    -0.331 OA
BRANCH  16  17
HETATM   17  P1  UNL     1      18.706   1.483  49.928  1.00  0.00     0.019 P 
HETATM   18  H6  UNL     1      18.864   2.530  50.898  1.00  0.00     0.088 HD
BRANCH  17  19
HETATM   19  C7  UNL     1      17.700   0.070  50.544  1.00  0.00     0.063 C 
BRANCH  19  20
HETATM   20  C8  UNL     1      18.171  -0.442  51.876  1.00  0.00     0.032 C 
BRANCH  20  21
HETATM   21  C9  UNL     1      17.130  -1.295  52.563  1.00  0.00     0.164 C 
BRANCH  21  22
HETATM   22  O3  UNL     1      17.204  -1.191  53.940  1.00  0.00    -0.401 OA
HETATM   23  H13 UNL     1      18.040  -0.723  54.143  1.00  0.00     0.209 HD
ENDBRANCH  21  22
ENDBRANCH  20  21
ENDBRANCH  19  20
ENDBRANCH  17  19
ENDBRANCH  16  17
ENDBRANCH   4  16
BRANCH   1  24
HETATM   24  C2  UNL     1      25.520   4.096  49.927  1.00  0.00     0.152 C 
HETATM   25  C1  UNL     1      26.818   3.656  49.396  1.00  0.00     0.096 C 
HETATM   26  O1  UNL     1      25.513   5.327  50.218  1.00  0.00    -0.293 OA
ENDBRANCH   1  24
TORSDOF 7
ENDMDL
MODEL 5
REMARK VINA RESULT:      -7.0      4.166      5.940
REMARK  7 active torsions:
REMARK  status: ('A' for Active; 'I' for Inactive)
REMARK    1  A    between atoms: C2_2  and  C3_4 
REMARK    2  A    between atoms: C6_7  and  O2_8 
REMARK    3  A    between atoms: O2_8  and  P1_9 
REMARK    4  A    between atoms: P1_9  and  C7_10 
REMARK    5  A    between atoms: C7_10  and  C8_11 
REMARK    6  A    between atoms: C8_11  and  C9_12 
REMARK    7  A    between atoms: C9_12  and  O3_13 
ROOT
HETATM    1  C3  UNL     1      19.668   1.518  51.225  1.00  0.00    -0.008 C 
HETATM    2  C4  UNL     1      19.437   2.813  51.338  1.00  0.00     0.013 C 
HETATM    3  C5  UNL     1      20.312   3.974  51.466  1.00  0.00     0.033 C 
HETATM    4  C6  UNL     1      21.543   4.452  51.590  1.00  0.00     0.054 C 
HETATM    5  C10 UNL     1      22.849   3.785  51.718  1.00  0.00     0.092 C 
HETATM    6  C11 UNL     1      23.410   3.448  50.430  1.00  0.00    -0.019 C 
HETATM    7  C12 UNL     1      23.608   2.117  50.401  1.00  0.00     0.008 C 
HETATM    8  C13 UNL     1      23.272   1.219  51.553  1.00  0.00    -0.030 A 
HETATM    9  C14 UNL     1      24.324   0.858  52.401  1.00  0.00     0.013 A 
HETATM   10  C15 UNL     1      24.197   0.048  53.536  1.00  0.00     0.024 A 
HETATM   11  C16 UNL     1      22.925  -0.408  53.803  1.00  0.00     0.034 A 
HETATM   12 CL1  UNL     1      22.635  -1.427  55.194  1.00  0.00    -0.084 Cl
HETATM   13  C17 UNL     1      21.873  -0.067  52.983  1.00  0.00     0.032 A 
HETATM   14  C18 UNL     1      21.980   0.719  51.875  1.00  0.00    -0.042 A 
HETATM   15  C19 UNL     1      21.041   1.189  50.881  1.00  0.00     0.082 C 
ENDROOT
BRANCH   4  16
HETATM   16  O2  UNL     1      21.661   5.866  51.641  1.00  0.00    -0.331 OA
BRANCH  16  17
HETATM   17  P1  UNL     1      21.260   6.826  50.214  1.00  0.00     0.019 P 
HETATM   18  H6  UNL     1      20.754   6.015  49.141  1.00  0.00     0.088 HD
BRANCH  17  19
HETATM   19  C7  UNL     1      22.730   7.825  49.736  1.00  0.00     0.063 C 
BRANCH  19  20
HETATM   20  C8  UNL     1      23.986   7.004  49.642  1.00  0.00     0.032 C 
BRANCH  20  21
HETATM   21  C9  UNL     1      24.954   7.307  50.761  1.00  0.00     0.164 C 
BRANCH  21  22
HETATM   22  O3  UNL     1      24.483   6.866  51.984  1.00  0.00    -0.401 OA
HETATM   23  H13 UNL     1      24.693   5.911  52.040  1.00  0.00     0.209 HD
ENDBRANCH  21  22
ENDBRANCH  20  21
ENDBRANCH  19  20
ENDBRANCH  17  19
ENDBRANCH  16  17
ENDBRANCH   4  16
BRANCH   1  24
HETATM   24  C2  UNL     1      18.698   0.446  51.131  1.00  0.00     0.152 C 
HETATM   25  C1  UNL     1      18.346  -0.493  52.204  1.00  0.00     0.096 C 
HETATM   26  O1  UNL     1      18.048   0.225  50.068  1.00  0.00    -0.293 OA
ENDBRANCH   1  24
TORSDOF 7
ENDMDL
MODEL 6
REMARK VINA RESULT:      -7.0      3.927      5.843
REMARK  7 active torsions:
REMARK  status: ('A' for Active; 'I' for Inactive)
REMARK    1  A    between atoms: C2_2  and  C3_4 
REMARK    2  A    between atoms: C6_7  and  O2_8 
REMARK    3  A    between atoms: O2_8  and  P1_9 
REMARK    4  A    between atoms: P1_9  and  C7_10 
REMARK    5  A    between atoms: C7_10  and  C8_11 
REMARK    6  A    between atoms: C8_11  and  C9_12 
REMARK    7  A    between atoms: C9_12  and  O3_13 
ROOT
HETATM    1  C3  UNL     1      25.787   2.021  51.970  1.00  0.00    -0.008 C 
HETATM    2  C4  UNL     1      26.351   2.570  50.910  1.00  0.00     0.013 C 
HETATM    3  C5  UNL     1      25.985   3.697  50.058  1.00  0.00     0.033 C 
HETATM    4  C6  UNL     1      25.110   4.646  49.754  1.00  0.00     0.054 C 
HETATM    5  C10 UNL     1      23.786   4.976  50.305  1.00  0.00     0.092 C 
HETATM    6  C11 UNL     1      23.883   5.828  51.468  1.00  0.00    -0.019 C 
HETATM    7  C12 UNL     1      23.291   5.192  52.496  1.00  0.00     0.008 C 
HETATM    8  C13 UNL     1      22.667   3.836  52.365  1.00  0.00    -0.030 A 
HETATM    9  C14 UNL     1      21.281   3.793  52.187  1.00  0.00     0.013 A 
HETATM   10  C15 UNL     1      20.529   2.623  52.023  1.00  0.00     0.024 A 
HETATM   11  C16 UNL     1      21.246   1.447  52.047  1.00  0.00     0.034 A 
HETATM   12 CL1  UNL     1      20.422  -0.083  51.853  1.00  0.00    -0.084 Cl
HETATM   13  C17 UNL     1      22.610   1.463  52.222  1.00  0.00     0.032 A 
HETATM   14  C18 UNL     1      23.356   2.593  52.383  1.00  0.00    -0.042 A 
HETATM   15  C19 UNL     1      24.765   2.847  52.590  1.00  0.00     0.082 C 
ENDROOT
BRANCH   4  16
HETATM   16  O2  UNL     1      25.469   5.507  48.684  1.00  0.00    -0.331 OA
BRANCH  16  17
HETATM   17  P1  UNL     1      26.568   6.857  48.982  1.00  0.00     0.019 P 
HETATM   18  H6  UNL     1      25.914   8.128  48.841  1.00  0.00     0.088 HD
BRANCH  17  19
HETATM   19  C7  UNL     1      28.043   6.675  47.898  1.00  0.00     0.063 C 
BRANCH  19  20
HETATM   20  C8  UNL     1      28.853   5.449  48.217  1.00  0.00     0.032 C 
BRANCH  20  21
HETATM   21  C9  UNL     1      30.314   5.767  48.433  1.00  0.00     0.164 C 
BRANCH  21  22
HETATM   22  O3  UNL     1      30.672   5.668  49.765  1.00  0.00    -0.401 OA
HETATM   23  H13 UNL     1      29.840   5.625  50.279  1.00  0.00     0.209 HD
ENDBRANCH  21  22
ENDBRANCH  20  21
ENDBRANCH  19  20
ENDBRANCH  17  19
ENDBRANCH  16  17
ENDBRANCH   4  16
BRANCH   1  24
HETATM   24  C2  UNL     1      26.240   0.870  52.723  1.00  0.00     0.152 C 
HETATM   25  C1  UNL     1      26.723  -0.395  52.152  1.00  0.00     0.096 C 
HETATM   26  O1  UNL     1      26.257   0.863  53.988  1.00  0.00    -0.293 OA
ENDBRANCH   1  24
TORSDOF 7
ENDMDL
MODEL 7
REMARK VINA RESULT:      -7.0      2.766      5.710
REMARK  7 active torsions:
REMARK  status: ('A' for Active; 'I' for Inactive)
REMARK    1  A    between atoms: C2_2  and  C3_4 
REMARK    2  A    between atoms: C6_7  and  O2_8 
REMARK    3  A    between atoms: O2_8  and  P1_9 
REMARK    4  A    between atoms: P1_9  and  C7_10 
REMARK    5  A    between atoms: C7_10  and  C8_11 
REMARK    6  A    between atoms: C8_11  and  C9_12 
REMARK    7  A    between atoms: C9_12  and  O3_13 
ROOT
HETATM    1  C3  UNL     1      25.299   1.984  51.874  1.00  0.00    -0.008 C 
HETATM    2  C4  UNL     1      24.308   1.683  52.693  1.00  0.00     0.013 C 
HETATM    3  C5  UNL     1      22.859   1.832  52.599  1.00  0.00     0.033 C 
HETATM    4  C6  UNL     1      21.809   2.271  51.917  1.00  0.00     0.054 C 
HETATM    5  C10 UNL     1      21.701   3.022  50.656  1.00  0.00     0.092 C 
HETATM    6  C11 UNL     1      21.732   2.150  49.505  1.00  0.00    -0.019 C 
HETATM    7  C12 UNL     1      22.769   2.521  48.732  1.00  0.00     0.008 C 
HETATM    8  C13 UNL     1      23.682   3.656  49.085  1.00  0.00    -0.030 A 
HETATM    9  C14 UNL     1      23.426   4.887  48.475  1.00  0.00     0.013 A 
HETATM   10  C15 UNL     1      24.157   6.061  48.699  1.00  0.00     0.024 A 
HETATM   11  C16 UNL     1      25.198   5.952  49.594  1.00  0.00     0.034 A 
HETATM   12 CL1  UNL     1      26.185   7.348  49.961  1.00  0.00    -0.084 Cl
HETATM   13  C17 UNL     1      25.470   4.751  50.208  1.00  0.00     0.032 A 
HETATM   14  C18 UNL     1      24.770   3.600  50.000  1.00  0.00    -0.042 A 
HETATM   15  C19 UNL     1      24.878   2.251  50.509  1.00  0.00     0.082 C 
ENDROOT
BRANCH   4  16
HETATM   16  O2  UNL     1      20.538   2.013  52.493  1.00  0.00    -0.331 OA
BRANCH  16  17
HETATM   17  P1  UNL     1      19.998   0.345  52.700  1.00  0.00     0.019 P 
HETATM   18  H6  UNL     1      18.590   0.197  52.452  1.00  0.00     0.088 HD
BRANCH  17  19
HETATM   19  C7  UNL     1      20.506  -0.244  54.368  1.00  0.00     0.063 C 
BRANCH  19  20
HETATM   20  C8  UNL     1      21.413  -1.441  54.311  1.00  0.00     0.032 C 
BRANCH  20  21
HETATM   21  C9  UNL     1      22.780  -1.153  54.886  1.00  0.00     0.164 C 
BRANCH  21  22
HETATM   22  O3  UNL     1      23.062  -1.958  55.974  1.00  0.00    -0.401 OA
HETATM   23  H13 UNL     1      22.282  -1.919  56.564  1.00  0.00     0.209 HD
ENDBRANCH  21  22
ENDBRANCH  20  21
ENDBRANCH  19  20
ENDBRANCH  17  19
ENDBRANCH  16  17
ENDBRANCH   4  16
BRANCH   1  24
HETATM   24  C2  UNL     1      26.720   1.810  52.096  1.00  0.00     0.152 C 
HETATM   25  C1  UNL     1      27.357   0.637  52.711  1.00  0.00     0.096 C 
HETATM   26  O1  UNL     1      27.561   2.694  51.764  1.00  0.00    -0.293 OA
ENDBRANCH   1  24
TORSDOF 7
ENDMDL
MODEL 8
REMARK VINA RESULT:      -6.9      3.577      6.975
REMARK  7 active torsions:
REMARK  status: ('A' for Active; 'I' for Inactive)
REMARK    1  A    between atoms: C2_2  and  C3_4 
REMARK    2  A    between atoms: C6_7  and  O2_8 
REMARK    3  A    between atoms: O2_8  and  P1_9 
REMARK    4  A    between atoms: P1_9  and  C7_10 
REMARK    5  A    between atoms: C7_10  and  C8_11 
REMARK    6  A    between atoms: C8_11  and  C9_12 
REMARK    7  A    between atoms: C9_12  and  O3_13 
ROOT
HETATM    1  C3  UNL     1      24.990   3.199  50.028  1.00  0.00    -0.008 C 
HETATM    2  C4  UNL     1      24.060   3.107  49.095  1.00  0.00     0.013 C 
HETATM    3  C5  UNL     1      22.733   2.500  49.068  1.00  0.00     0.033 C 
HETATM    4  C6  UNL     1      21.804   1.785  49.690  1.00  0.00     0.054 C 
HETATM    5  C10 UNL     1      21.791   1.121  51.003  1.00  0.00     0.092 C 
HETATM    6  C11 UNL     1      21.404   2.025  52.061  1.00  0.00    -0.019 C 
HETATM    7  C12 UNL     1      22.406   2.062  52.959  1.00  0.00     0.008 C 
HETATM    8  C13 UNL     1      23.668   1.268  52.805  1.00  0.00    -0.030 A 
HETATM    9  C14 UNL     1      23.745   0.061  53.507  1.00  0.00     0.013 A 
HETATM   10  C15 UNL     1      24.832  -0.821  53.467  1.00  0.00     0.024 A 
HETATM   11  C16 UNL     1      25.884  -0.435  52.666  1.00  0.00     0.034 A 
HETATM   12 CL1  UNL     1      27.300  -1.451  52.531  1.00  0.00    -0.084 Cl
HETATM   13  C17 UNL     1      25.832   0.749  51.965  1.00  0.00     0.032 A 
HETATM   14  C18 UNL     1      24.782   1.619  51.994  1.00  0.00    -0.042 A 
HETATM   15  C19 UNL     1      24.516   2.895  51.368  1.00  0.00     0.082 C 
ENDROOT
BRANCH   4  16
HETATM   16  O2  UNL     1      20.595   1.577  48.976  1.00  0.00    -0.331 OA
BRANCH  16  17
HETATM   17  P1  UNL     1      19.634   2.968  48.467  1.00  0.00     0.019 P 
HETATM   18  H6  UNL     1      20.154   3.579  47.275  1.00  0.00     0.088 HD
BRANCH  17  19
HETATM   19  C7  UNL     1      19.487   4.140  49.878  1.00  0.00     0.063 C 
BRANCH  19  20
HETATM   20  C8  UNL     1      20.446   5.294  49.778  1.00  0.00     0.032 C 
BRANCH  20  21
HETATM   21  C9  UNL     1      21.325   5.417  51.001  1.00  0.00     0.164 C 
BRANCH  21  22
HETATM   22  O3  UNL     1      21.641   6.734  51.278  1.00  0.00    -0.401 OA
HETATM   23  H13 UNL     1      21.372   6.900  52.205  1.00  0.00     0.209 HD
ENDBRANCH  21  22
ENDBRANCH  20  21
ENDBRANCH  19  20
ENDBRANCH  17  19
ENDBRANCH  16  17
ENDBRANCH   4  16
BRANCH   1  24
HETATM   24  C2  UNL     1      26.298   3.813  49.923  1.00  0.00     0.152 C 
HETATM   25  C1  UNL     1      26.650   4.941  49.050  1.00  0.00     0.096 C 
HETATM   26  O1  UNL     1      27.283   3.408  50.604  1.00  0.00    -0.293 OA
ENDBRANCH   1  24
TORSDOF 7
ENDMDL
MODEL 9
REMARK VINA RESULT:      -6.8      3.980      5.901
REMARK  7 active torsions:
REMARK  status: ('A' for Active; 'I' for Inactive)
REMARK    1  A    between atoms: C2_2  and  C3_4 
REMARK    2  A    between atoms: C6_7  and  O2_8 
REMARK    3  A    between atoms: O2_8  and  P1_9 
REMARK    4  A    between atoms: P1_9  and  C7_10 
REMARK    5  A    between atoms: C7_10  and  C8_11 
REMARK    6  A    between atoms: C8_11  and  C9_12 
REMARK    7  A    between atoms: C9_12  and  O3_13 
ROOT
HETATM    1  C3  UNL     1      21.929   1.381  52.390  1.00  0.00    -0.008 C 
HETATM    2  C4  UNL     1      21.313   2.544  52.497  1.00  0.00     0.013 C 
HETATM    3  C5  UNL     1      21.708   3.913  52.179  1.00  0.00     0.033 C 
HETATM    4  C6  UNL     1      22.647   4.750  51.759  1.00  0.00     0.054 C 
HETATM    5  C10 UNL     1      24.056   4.540  51.390  1.00  0.00     0.092 C 
HETATM    6  C11 UNL     1      24.198   4.131  50.011  1.00  0.00    -0.019 C 
HETATM    7  C12 UNL     1      24.827   2.941  49.996  1.00  0.00     0.008 C 
HETATM    8  C13 UNL     1      25.266   2.236  51.243  1.00  0.00    -0.030 A 
HETATM    9  C14 UNL     1      26.607   2.382  51.612  1.00  0.00     0.013 A 
HETATM   10  C15 UNL     1      27.191   1.818  52.754  1.00  0.00     0.024 A 
HETATM   11  C16 UNL     1      26.348   1.070  53.545  1.00  0.00     0.034 A 
HETATM   12 CL1  UNL     1      26.956   0.314  55.000  1.00  0.00    -0.084 Cl
HETATM   13  C17 UNL     1      25.024   0.911  53.203  1.00  0.00     0.032 A 
HETATM   14  C18 UNL     1      24.442   1.452  52.096  1.00  0.00    -0.042 A 
HETATM   15  C19 UNL     1      23.107   1.412  51.540  1.00  0.00     0.082 C 
ENDROOT
BRANCH   4  16
HETATM   16  O2  UNL     1      22.269   6.114  51.661  1.00  0.00    -0.331 OA
BRANCH  16  17
HETATM   17  P1  UNL     1      21.793   6.776  50.094  1.00  0.00     0.019 P 
HETATM   18  H6  UNL     1      21.521   5.745  49.131  1.00  0.00     0.088 HD
BRANCH  17  19
HETATM   19  C7  UNL     1      23.078   7.969  49.536  1.00  0.00     0.063 C 
BRANCH  19  20
HETATM   20  C8  UNL     1      24.213   8.101  50.512  1.00  0.00     0.032 C 
BRANCH  20  21
HETATM   21  C9  UNL     1      25.522   7.608  49.941  1.00  0.00     0.164 C 
BRANCH  21  22
HETATM   22  O3  UNL     1      26.604   8.034  50.688  1.00  0.00    -0.401 OA
HETATM   23  H13 UNL     1      26.533   9.008  50.758  1.00  0.00     0.209 HD
ENDBRANCH  21  22
ENDBRANCH  20  21
ENDBRANCH  19  20
ENDBRANCH  17  19
ENDBRANCH  16  17
ENDBRANCH   4  16
BRANCH   1  24
HETATM   24  C2  UNL     1      21.434   0.074  52.771  1.00  0.00     0.152 C 
HETATM   25  C1  UNL     1      22.259  -1.103  53.075  1.00  0.00     0.096 C 
HETATM   26  O1  UNL     1      20.197  -0.167  52.877  1.00  0.00    -0.293 OA
ENDBRANCH   1  24
TORSDOF 7
ENDMDL
