MODEL 1
REMARK VINA RESULT:      -8.6      0.000      0.000
REMARK  6 active torsions:
REMARK  status: ('A' for Active; 'I' for Inactive)
REMARK    1  A    between atoms: C4_5  and  N1_6 
REMARK    2  A    between atoms: N1_6  and  C5_7 
REMARK    3  A    between atoms: C8_11  and  N3_12 
REMARK    4  A    between atoms: N3_12  and  C9_13 
REMARK    5  A    between atoms: C9_13  and  C10_14 
REMARK    6  A    between atoms: C11_15  and  C12_16 
ROOT
HETATM    1  C5  UNL     1      24.160   3.953  49.828  1.00  0.00     0.723 C 
HETATM    2  N2  UNL     1      23.367   3.491  48.942  1.00  0.00    -0.099 NA
HETATM    3  C6  UNL     1      22.652   2.277  49.034  1.00  0.00     0.229 C 
HETATM    4  C7  UNL     1      21.812   2.104  50.239  1.00  0.00     0.069 C 
HETATM    5  C8  UNL     1      22.024   1.082  51.044  1.00  0.00     0.112 C 
HETATM    6  N4  UNL     1      20.780   3.021  50.544  1.00  0.00    -0.261 NA
HETATM    7  C17 UNL     1      20.993   3.991  51.369  1.00  0.00     0.136 C 
HETATM    8  C18 UNL     1      21.949   4.682  52.266  1.00  0.00     0.137 C 
HETATM    9  N5  UNL     1      22.690   3.749  51.840  1.00  0.00    -0.252 NA
HETATM   10  C19 UNL     1      24.027   3.531  52.192  1.00  0.00     0.252 C 
HETATM   11  N6  UNL     1      24.699   3.655  51.113  1.00  0.00    -0.056 NA
ENDROOT
BRANCH   5  12
HETATM   12  N3  UNL     1      21.418   0.654  52.226  1.00  0.00    -0.387 N 
HETATM   13  H7  UNL     1      20.413   0.990  52.125  1.00  0.00     0.159 HD
BRANCH  12  14
HETATM   14  C9  UNL     1      21.992  -0.069  53.331  1.00  0.00     0.213 C 
BRANCH  14  15
HETATM   15  C10 UNL     1      23.456   0.156  53.404  1.00  0.00    -0.087 C 
HETATM   16  C11 UNL     1      24.656   0.336  53.443  1.00  0.00    -0.098 C 
BRANCH  16  17
HETATM   17  C12 UNL     1      26.121   0.564  53.466  1.00  0.00     0.089 C 
HETATM   18  C13 UNL     1      26.718  -0.134  52.268  1.00  0.00     0.021 C 
HETATM   19  C14 UNL     1      27.437  -1.370  52.786  1.00  0.00     0.028 C 
HETATM   20  C15 UNL     1      28.498  -0.895  53.753  1.00  0.00     0.167 C 
HETATM   21  O1  UNL     1      27.958  -0.224  54.841  1.00  0.00    -0.390 OA
HETATM   22  C16 UNL     1      26.599  -0.050  54.769  1.00  0.00     0.184 C 
ENDBRANCH  16  17
ENDBRANCH  14  15
ENDBRANCH  12  14
ENDBRANCH   5  12
BRANCH   1  23
HETATM   23  N1  UNL     1      24.684   5.212  49.353  1.00  0.00    -0.188 N 
HETATM   24  H3  UNL     1      24.049   6.075  49.302  1.00  0.00     0.184 HD
BRANCH  23  25
HETATM   25  C4  UNL     1      26.023   5.532  48.911  1.00  0.00     0.049 A 
HETATM   26  C3  UNL     1      27.066   4.598  48.897  1.00  0.00     0.033 A 
HETATM   27  C2  UNL     1      28.290   5.030  48.444  1.00  0.00     0.044 A 
HETATM   28  C1  UNL     1      28.590   6.279  48.005  1.00  0.00     0.116 A 
HETATM   29  F1  UNL     1      29.837   6.605  47.578  1.00  0.00    -0.206 F 
HETATM   30  C21 UNL     1      27.547   7.196  48.024  1.00  0.00     0.044 A 
HETATM   31  C20 UNL     1      26.288   6.813  48.473  1.00  0.00     0.033 A 
ENDBRANCH  23  25
ENDBRANCH   1  23
TORSDOF 6
ENDMDL
MODEL 2
REMARK VINA RESULT:      -8.2      3.277      5.193
REMARK  6 active torsions:
REMARK  status: ('A' for Active; 'I' for Inactive)
REMARK    1  A    between atoms: C4_5  and  N1_6 
REMARK    2  A    between atoms: N1_6  and  C5_7 
REMARK    3  A    between atoms: C8_11  and  N3_12 
REMARK    4  A    between atoms: N3_12  and  C9_13 
REMARK    5  A    between atoms: C9_13  and  C10_14 
REMARK    6  A    between atoms: C11_15  and  C12_16 
ROOT
HETATM    1  C5  UNL     1      25.232   2.972  51.128  1.00  0.00     0.723 C 
HETATM    2  N2  UNL     1      25.224   3.237  49.880  1.00  0.00    -0.099 NA
HETATM    3  C6  UNL     1      24.074   3.319  49.067  1.00  0.00     0.229 C 
HETATM    4  C7  UNL     1      23.013   4.242  49.526  1.00  0.00     0.069 C 
HETATM    5  C8  UNL     1      21.802   3.781  49.764  1.00  0.00     0.112 C 
HETATM    6  N4  UNL     1      23.279   5.617  49.717  1.00  0.00    -0.261 NA
HETATM    7  C17 UNL     1      23.570   6.068  50.891  1.00  0.00     0.136 C 
HETATM    8  C18 UNL     1      23.785   5.770  52.326  1.00  0.00     0.137 C 
HETATM    9  N5  UNL     1      23.509   4.610  51.905  1.00  0.00    -0.252 NA
HETATM   10  C19 UNL     1      23.453   3.444  52.677  1.00  0.00     0.252 C 
HETATM   11  N6  UNL     1      24.360   2.672  52.214  1.00  0.00    -0.056 NA
ENDROOT
BRANCH   5  12
HETATM   12  N3  UNL     1      20.618   4.382  50.194  1.00  0.00    -0.387 N 
HETATM   13  H7  UNL     1      20.531   5.238  49.567  1.00  0.00     0.159 HD
BRANCH  12  14
HETATM   14  C9  UNL     1      19.712   3.964  51.233  1.00  0.00     0.213 C 
BRANCH  14  15
HETATM   15  C10 UNL     1      20.022   2.583  51.678  1.00  0.00    -0.087 C 
HETATM   16  C11 UNL     1      20.259   1.447  52.031  1.00  0.00    -0.098 C 
BRANCH  16  17
HETATM   17  C12 UNL     1      20.537   0.049  52.442  1.00  0.00     0.089 C 
HETATM   18  C13 UNL     1      20.049  -0.125  53.859  1.00  0.00     0.021 C 
HETATM   19  C14 UNL     1      21.279  -0.180  54.751  1.00  0.00     0.028 C 
HETATM   20  C15 UNL     1      22.111  -1.354  54.289  1.00  0.00     0.167 C 
HETATM   21  O1  UNL     1      22.537  -1.217  52.975  1.00  0.00    -0.390 OA
HETATM   22  C16 UNL     1      22.044  -0.103  52.345  1.00  0.00     0.184 C 
ENDBRANCH  16  17
ENDBRANCH  14  15
ENDBRANCH  12  14
ENDBRANCH   5  12
BRANCH   1  23
HETATM   23  N1  UNL     1      26.602   2.985  51.585  1.00  0.00    -0.188 N 
HETATM   24  H3  UNL     1      27.238   3.818  51.355  1.00  0.00     0.184 HD
BRANCH  23  25
HETATM   25  C4  UNL     1      27.312   1.996  52.365  1.00  0.00     0.049 A 
HETATM   26  C3  UNL     1      27.096   0.619  52.229  1.00  0.00     0.033 A 
HETATM   27  C2  UNL     1      27.844  -0.215  53.025  1.00  0.00     0.044 A 
HETATM   28  C1  UNL     1      28.776   0.164  53.936  1.00  0.00     0.116 A 
HETATM   29  F1  UNL     1      29.462  -0.744  54.676  1.00  0.00    -0.206 F 
HETATM   30  C21 UNL     1      28.980   1.533  54.060  1.00  0.00     0.044 A 
HETATM   31  C20 UNL     1      28.251   2.423  53.280  1.00  0.00     0.033 A 
ENDBRANCH  23  25
ENDBRANCH   1  23
TORSDOF 6
ENDMDL
MODEL 3
REMARK VINA RESULT:      -8.2      3.561      6.505
REMARK  6 active torsions:
REMARK  status: ('A' for Active; 'I' for Inactive)
REMARK    1  A    between atoms: C4_5  and  N1_6 
REMARK    2  A    between atoms: N1_6  and  C5_7 
REMARK    3  A    between atoms: C8_11  and  N3_12 
REMARK    4  A    between atoms: N3_12  and  C9_13 
REMARK    5  A    between atoms: C9_13  and  C10_14 
REMARK    6  A    between atoms: C11_15  and  C12_16 
ROOT
HETATM    1  C5  UNL     1      21.599   3.019  52.297  1.00  0.00     0.723 C 
HETATM    2  N2  UNL     1      21.429   4.267  52.096  1.00  0.00    -0.099 NA
HETATM    3  C6  UNL     1      22.435   5.182  51.718  1.00  0.00     0.229 C 
HETATM    4  C7  UNL     1      23.211   4.835  50.507  1.00  0.00     0.069 C 
HETATM    5  C8  UNL     1      24.519   4.699  50.585  1.00  0.00     0.112 C 
HETATM    6  N4  UNL     1      22.569   4.646  49.262  1.00  0.00    -0.261 NA
HETATM    7  C17 UNL     1      22.253   3.459  48.865  1.00  0.00     0.136 C 
HETATM    8  C18 UNL     1      22.252   2.005  49.150  1.00  0.00     0.137 C 
HETATM    9  N5  UNL     1      22.821   2.429  50.197  1.00  0.00    -0.252 NA
HETATM   10  C19 UNL     1      23.280   1.644  51.261  1.00  0.00     0.252 C 
HETATM   11  N6  UNL     1      22.606   2.010  52.284  1.00  0.00    -0.056 NA
ENDROOT
BRANCH   5  12
HETATM   12  N3  UNL     1      25.505   4.388  49.647  1.00  0.00    -0.387 N 
HETATM   13  H7  UNL     1      25.453   5.194  48.954  1.00  0.00     0.159 HD
BRANCH  12  14
HETATM   14  C9  UNL     1      26.393   3.254  49.605  1.00  0.00     0.213 C 
BRANCH  14  15
HETATM   15  C10 UNL     1      26.712   2.783  50.975  1.00  0.00    -0.087 C 
HETATM   16  C11 UNL     1      26.954   2.392  52.097  1.00  0.00    -0.098 C 
BRANCH  16  17
HETATM   17  C12 UNL     1      27.230   1.895  53.467  1.00  0.00     0.089 C 
HETATM   18  C13 UNL     1      28.694   2.122  53.757  1.00  0.00     0.021 C 
HETATM   19  C14 UNL     1      29.375   0.764  53.699  1.00  0.00     0.028 C 
HETATM   20  C15 UNL     1      28.719  -0.108  54.745  1.00  0.00     0.167 C 
HETATM   21  O1  UNL     1      27.365  -0.295  54.502  1.00  0.00    -0.390 OA
HETATM   22  C16 UNL     1      26.888   0.417  53.431  1.00  0.00     0.184 C 
ENDBRANCH  16  17
ENDBRANCH  14  15
ENDBRANCH  12  14
ENDBRANCH   5  12
BRANCH   1  23
HETATM   23  N1  UNL     1      20.328   2.441  52.664  1.00  0.00    -0.188 N 
HETATM   24  H3  UNL     1      19.945   2.568  53.658  1.00  0.00     0.184 HD
BRANCH  23  25
HETATM   25  C4  UNL     1      19.410   1.671  51.855  1.00  0.00     0.049 A 
HETATM   26  C3  UNL     1      18.830   2.163  50.679  1.00  0.00     0.033 A 
HETATM   27  C2  UNL     1      17.981   1.324  49.998  1.00  0.00     0.044 A 
HETATM   28  C1  UNL     1      17.645   0.058  50.354  1.00  0.00     0.116 A 
HETATM   29  F1  UNL     1      16.791  -0.690  49.609  1.00  0.00    -0.206 F 
HETATM   30  C21 UNL     1      18.226  -0.418  51.523  1.00  0.00     0.044 A 
HETATM   31  C20 UNL     1      19.093   0.388  52.251  1.00  0.00     0.033 A 
ENDBRANCH  23  25
ENDBRANCH   1  23
TORSDOF 6
ENDMDL
MODEL 4
REMARK VINA RESULT:      -8.2      3.665      6.901
REMARK  6 active torsions:
REMARK  status: ('A' for Active; 'I' for Inactive)
REMARK    1  A    between atoms: C4_5  and  N1_6 
REMARK    2  A    between atoms: N1_6  and  C5_7 
REMARK    3  A    between atoms: C8_11  and  N3_12 
REMARK    4  A    between atoms: N3_12  and  C9_13 
REMARK    5  A    between atoms: C9_13  and  C10_14 
REMARK    6  A    between atoms: C11_15  and  C12_16 
ROOT
HETATM    1  C5  UNL     1      21.152   2.564  51.601  1.00  0.00     0.723 C 
HETATM    2  N2  UNL     1      20.890   3.781  51.881  1.00  0.00    -0.099 NA
HETATM    3  C6  UNL     1      21.844   4.802  52.074  1.00  0.00     0.229 C 
HETATM    4  C7  UNL     1      22.818   5.001  50.978  1.00  0.00     0.069 C 
HETATM    5  C8  UNL     1      24.108   4.888  51.221  1.00  0.00     0.112 C 
HETATM    6  N4  UNL     1      22.386   5.311  49.668  1.00  0.00    -0.261 NA
HETATM    7  C17 UNL     1      22.250   4.377  48.788  1.00  0.00     0.136 C 
HETATM    8  C18 UNL     1      22.353   2.932  48.473  1.00  0.00     0.137 C 
HETATM    9  N5  UNL     1      22.719   2.915  49.684  1.00  0.00    -0.252 NA
HETATM   10  C19 UNL     1      23.094   1.782  50.415  1.00  0.00     0.252 C 
HETATM   11  N6  UNL     1      22.246   1.680  51.366  1.00  0.00    -0.056 NA
ENDROOT
BRANCH   5  12
HETATM   12  N3  UNL     1      25.245   5.016  50.422  1.00  0.00    -0.387 N 
HETATM   13  H7  UNL     1      25.410   6.067  50.390  1.00  0.00     0.159 HD
BRANCH  12  14
HETATM   14  C9  UNL     1      26.027   3.988  49.784  1.00  0.00     0.213 C 
BRANCH  14  15
HETATM   15  C10 UNL     1      26.431   2.949  50.763  1.00  0.00    -0.087 C 
HETATM   16  C11 UNL     1      26.755   2.111  51.578  1.00  0.00    -0.098 C 
BRANCH  16  17
HETATM   17  C12 UNL     1      27.130   1.095  52.591  1.00  0.00     0.089 C 
HETATM   18  C13 UNL     1      26.350  -0.164  52.296  1.00  0.00     0.021 C 
HETATM   19  C14 UNL     1      25.269  -0.277  53.359  1.00  0.00     0.028 C 
HETATM   20  C15 UNL     1      25.966  -0.341  54.699  1.00  0.00     0.167 C 
HETATM   21  O1  UNL     1      26.711   0.800  54.962  1.00  0.00    -0.390 OA
HETATM   22  C16 UNL     1      26.737   1.698  53.926  1.00  0.00     0.184 C 
ENDBRANCH  16  17
ENDBRANCH  14  15
ENDBRANCH  12  14
ENDBRANCH   5  12
BRANCH   1  23
HETATM   23  N1  UNL     1      19.905   1.846  51.485  1.00  0.00    -0.188 N 
HETATM   24  H3  UNL     1      19.153   2.181  50.797  1.00  0.00     0.184 HD
BRANCH  23  25
HETATM   25  C4  UNL     1      19.469   0.658  52.185  1.00  0.00     0.049 A 
HETATM   26  C3  UNL     1      20.215   0.056  53.205  1.00  0.00     0.033 A 
HETATM   27  C2  UNL     1      19.682  -1.064  53.796  1.00  0.00     0.044 A 
HETATM   28  C1  UNL     1      18.497  -1.650  53.487  1.00  0.00     0.116 A 
HETATM   29  F1  UNL     1      18.061  -2.761  54.134  1.00  0.00    -0.206 F 
HETATM   30  C21 UNL     1      17.767  -1.042  52.474  1.00  0.00     0.044 A 
HETATM   31  C20 UNL     1      18.258   0.094  51.842  1.00  0.00     0.033 A 
ENDBRANCH  23  25
ENDBRANCH   1  23
TORSDOF 6
ENDMDL
MODEL 5
REMARK VINA RESULT:      -8.1      1.442      1.885
REMARK  6 active torsions:
REMARK  status: ('A' for Active; 'I' for Inactive)
REMARK    1  A    between atoms: C4_5  and  N1_6 
REMARK    2  A    between atoms: N1_6  and  C5_7 
REMARK    3  A    between atoms: C8_11  and  N3_12 
REMARK    4  A    between atoms: N3_12  and  C9_13 
REMARK    5  A    between atoms: C9_13  and  C10_14 
REMARK    6  A    between atoms: C11_15  and  C12_16 
ROOT
HETATM    1  C5  UNL     1      23.055   3.154  49.440  1.00  0.00     0.723 C 
HETATM    2  N2  UNL     1      22.163   2.564  48.744  1.00  0.00    -0.099 NA
HETATM    3  C6  UNL     1      21.587   1.311  49.042  1.00  0.00     0.229 C 
HETATM    4  C7  UNL     1      20.991   1.169  50.388  1.00  0.00     0.069 C 
HETATM    5  C8  UNL     1      21.432   0.232  51.204  1.00  0.00     0.112 C 
HETATM    6  N4  UNL     1      19.952   2.026  50.818  1.00  0.00    -0.261 NA
HETATM    7  C17 UNL     1      20.220   3.070  51.527  1.00  0.00     0.136 C 
HETATM    8  C18 UNL     1      21.254   3.900  52.189  1.00  0.00     0.137 C 
HETATM    9  N5  UNL     1      21.987   2.995  51.695  1.00  0.00    -0.252 NA
HETATM   10  C19 UNL     1      23.380   2.908  51.811  1.00  0.00     0.252 C 
HETATM   11  N6  UNL     1      23.838   2.998  50.621  1.00  0.00    -0.056 NA
ENDROOT
BRANCH   5  12
HETATM   12  N3  UNL     1      21.084  -0.147  52.501  1.00  0.00    -0.387 N 
HETATM   13  H7  UNL     1      20.092   0.223  52.611  1.00  0.00     0.159 HD
BRANCH  12  14
HETATM   14  C9  UNL     1      21.862  -0.868  53.476  1.00  0.00     0.213 C 
BRANCH  14  15
HETATM   15  C10 UNL     1      23.263  -0.381  53.496  1.00  0.00    -0.087 C 
HETATM   16  C11 UNL     1      24.415  -0.002  53.518  1.00  0.00    -0.098 C 
BRANCH  16  17
HETATM   17  C12 UNL     1      25.831   0.438  53.539  1.00  0.00     0.089 C 
HETATM   18  C13 UNL     1      26.518  -0.150  52.330  1.00  0.00     0.021 C 
HETATM   19  C14 UNL     1      27.413  -1.274  52.829  1.00  0.00     0.028 C 
HETATM   20  C15 UNL     1      28.397  -0.662  53.799  1.00  0.00     0.167 C 
HETATM   21  O1  UNL     1      27.771  -0.091  54.898  1.00  0.00    -0.390 OA
HETATM   22  C16 UNL     1      26.401  -0.116  54.832  1.00  0.00     0.184 C 
ENDBRANCH  16  17
ENDBRANCH  14  15
ENDBRANCH  12  14
ENDBRANCH   5  12
BRANCH   1  23
HETATM   23  N1  UNL     1      23.374   4.408  48.799  1.00  0.00    -0.188 N 
HETATM   24  H3  UNL     1      22.943   4.651  47.847  1.00  0.00     0.184 HD
BRANCH  23  25
HETATM   25  C4  UNL     1      24.232   5.475  49.262  1.00  0.00     0.049 A 
HETATM   26  C3  UNL     1      23.800   6.473  50.145  1.00  0.00     0.033 A 
HETATM   27  C2  UNL     1      24.719   7.426  50.514  1.00  0.00     0.044 A 
HETATM   28  C1  UNL     1      26.012   7.497  50.106  1.00  0.00     0.116 A 
HETATM   29  F1  UNL     1      26.841   8.485  50.531  1.00  0.00    -0.206 F 
HETATM   30  C21 UNL     1      26.427   6.501  49.231  1.00  0.00     0.044 A 
HETATM   31  C20 UNL     1      25.539   5.513  48.824  1.00  0.00     0.033 A 
ENDBRANCH  23  25
ENDBRANCH   1  23
TORSDOF 6
ENDMDL
MODEL 6
REMARK VINA RESULT:      -7.9      3.448      6.354
REMARK  6 active torsions:
REMARK  status: ('A' for Active; 'I' for Inactive)
REMARK    1  A    between atoms: C4_5  and  N1_6 
REMARK    2  A    between atoms: N1_6  and  C5_7 
REMARK    3  A    between atoms: C8_11  and  N3_12 
REMARK    4  A    between atoms: N3_12  and  C9_13 
REMARK    5  A    between atoms: C9_13  and  C10_14 
REMARK    6  A    between atoms: C11_15  and  C12_16 
ROOT
HETATM    1  C5  UNL     1      25.436   2.532  51.876  1.00  0.00     0.723 C 
HETATM    2  N2  UNL     1      25.915   3.045  50.811  1.00  0.00    -0.099 NA
HETATM    3  C6  UNL     1      25.201   3.262  49.613  1.00  0.00     0.229 C 
HETATM    4  C7  UNL     1      23.952   4.047  49.730  1.00  0.00     0.069 C 
HETATM    5  C8  UNL     1      22.808   3.517  49.345  1.00  0.00     0.112 C 
HETATM    6  N4  UNL     1      23.964   5.360  50.252  1.00  0.00    -0.261 NA
HETATM    7  C17 UNL     1      23.695   5.570  51.496  1.00  0.00     0.136 C 
HETATM    8  C18 UNL     1      23.329   4.992  52.811  1.00  0.00     0.137 C 
HETATM    9  N5  UNL     1      23.380   3.935  52.117  1.00  0.00    -0.252 NA
HETATM   10  C19 UNL     1      23.136   2.635  52.576  1.00  0.00     0.252 C 
HETATM   11  N6  UNL     1      24.231   1.995  52.417  1.00  0.00    -0.056 NA
ENDROOT
BRANCH   5  12
HETATM   12  N3  UNL     1      21.495   3.988  49.326  1.00  0.00    -0.387 N 
HETATM   13  H7  UNL     1      21.369   4.336  48.328  1.00  0.00     0.159 HD
BRANCH  12  14
HETATM   14  C9  UNL     1      20.523   4.012  50.390  1.00  0.00     0.213 C 
BRANCH  14  15
HETATM   15  C10 UNL     1      20.092   2.636  50.740  1.00  0.00    -0.087 C 
HETATM   16  C11 UNL     1      19.745   1.505  51.007  1.00  0.00    -0.098 C 
BRANCH  16  17
HETATM   17  C12 UNL     1      19.339   0.113  51.317  1.00  0.00     0.089 C 
HETATM   18  C13 UNL     1      17.906  -0.063  50.873  1.00  0.00     0.021 C 
HETATM   19  C14 UNL     1      17.052  -0.097  52.131  1.00  0.00     0.028 C 
HETATM   20  C15 UNL     1      17.534  -1.261  52.965  1.00  0.00     0.167 C 
HETATM   21  O1  UNL     1      18.861  -1.122  53.350  1.00  0.00    -0.390 OA
HETATM   22  C16 UNL     1      19.480  -0.018  52.822  1.00  0.00     0.184 C 
ENDBRANCH  16  17
ENDBRANCH  14  15
ENDBRANCH  12  14
ENDBRANCH   5  12
BRANCH   1  23
HETATM   23  N1  UNL     1      26.484   2.486  52.868  1.00  0.00    -0.188 N 
HETATM   24  H3  UNL     1      26.618   3.304  53.549  1.00  0.00     0.184 HD
BRANCH  23  25
HETATM   25  C4  UNL     1      27.452   1.441  53.122  1.00  0.00     0.049 A 
HETATM   26  C3  UNL     1      28.720   1.691  53.662  1.00  0.00     0.033 A 
HETATM   27  C2  UNL     1      29.541   0.608  53.863  1.00  0.00     0.044 A 
HETATM   28  C1  UNL     1      29.245  -0.688  53.589  1.00  0.00     0.116 A 
HETATM   29  F1  UNL     1      30.132  -1.688  53.825  1.00  0.00    -0.206 F 
HETATM   30  C21 UNL     1      27.984  -0.922  53.054  1.00  0.00     0.044 A 
HETATM   31  C20 UNL     1      27.113   0.137  52.829  1.00  0.00     0.033 A 
ENDBRANCH  23  25
ENDBRANCH   1  23
TORSDOF 6
ENDMDL
MODEL 7
REMARK VINA RESULT:      -7.8      4.971      8.327
REMARK  6 active torsions:
REMARK  status: ('A' for Active; 'I' for Inactive)
REMARK    1  A    between atoms: C4_5  and  N1_6 
REMARK    2  A    between atoms: N1_6  and  C5_7 
REMARK    3  A    between atoms: C8_11  and  N3_12 
REMARK    4  A    between atoms: N3_12  and  C9_13 
REMARK    5  A    between atoms: C9_13  and  C10_14 
REMARK    6  A    between atoms: C11_15  and  C12_16 
ROOT
HETATM    1  C5  UNL     1      23.666   3.435  51.613  1.00  0.00     0.723 C 
HETATM    2  N2  UNL     1      23.120   4.321  52.350  1.00  0.00    -0.099 NA
HETATM    3  C6  UNL     1      21.927   5.013  52.053  1.00  0.00     0.229 C 
HETATM    4  C7  UNL     1      20.745   4.177  51.749  1.00  0.00     0.069 C 
HETATM    5  C8  UNL     1      20.135   4.306  50.588  1.00  0.00     0.112 C 
HETATM    6  N4  UNL     1      20.258   3.238  52.685  1.00  0.00    -0.261 NA
HETATM    7  C17 UNL     1      20.609   1.998  52.607  1.00  0.00     0.136 C 
HETATM    8  C18 UNL     1      21.392   0.963  51.892  1.00  0.00     0.137 C 
HETATM    9  N5  UNL     1      21.681   1.975  51.190  1.00  0.00    -0.252 NA
HETATM   10  C19 UNL     1      22.520   1.989  50.069  1.00  0.00     0.252 C 
HETATM   11  N6  UNL     1      23.499   2.752  50.373  1.00  0.00    -0.056 NA
ENDROOT
BRANCH   5  12
HETATM   12  N3  UNL     1      19.024   3.681  50.018  1.00  0.00    -0.387 N 
HETATM   13  H7  UNL     1      19.344   2.675  49.887  1.00  0.00     0.159 HD
BRANCH  12  14
HETATM   14  C9  UNL     1      17.742   4.243  49.677  1.00  0.00     0.213 C 
BRANCH  14  15
HETATM   15  C10 UNL     1      16.740   3.944  50.729  1.00  0.00    -0.087 C 
HETATM   16  C11 UNL     1      15.934   3.688  51.599  1.00  0.00    -0.098 C 
BRANCH  16  17
HETATM   17  C12 UNL     1      14.969   3.370  52.679  1.00  0.00     0.089 C 
HETATM   18  C13 UNL     1      13.666   2.965  52.033  1.00  0.00     0.021 C 
HETATM   19  C14 UNL     1      12.694   4.118  52.230  1.00  0.00     0.028 C 
HETATM   20  C15 UNL     1      12.547   4.327  53.720  1.00  0.00     0.167 C 
HETATM   21  O1  UNL     1      13.749   4.667  54.326  1.00  0.00    -0.390 OA
HETATM   22  C16 UNL     1      14.825   4.653  53.476  1.00  0.00     0.184 C 
ENDBRANCH  16  17
ENDBRANCH  14  15
ENDBRANCH  12  14
ENDBRANCH   5  12
BRANCH   1  23
HETATM   23  N1  UNL     1      24.865   2.972  52.272  1.00  0.00    -0.188 N 
HETATM   24  H3  UNL     1      25.548   3.678  52.703  1.00  0.00     0.184 HD
BRANCH  23  25
HETATM   25  C4  UNL     1      25.330   1.618  52.471  1.00  0.00     0.049 A 
HETATM   26  C3  UNL     1      24.652   0.688  53.269  1.00  0.00     0.033 A 
HETATM   27  C2  UNL     1      25.198  -0.570  53.368  1.00  0.00     0.044 A 
HETATM   28  C1  UNL     1      26.334  -1.004  52.767  1.00  0.00     0.116 A 
HETATM   29  F1  UNL     1      26.790  -2.272  52.932  1.00  0.00    -0.206 F 
HETATM   30  C21 UNL     1      26.997  -0.071  51.978  1.00  0.00     0.044 A 
HETATM   31  C20 UNL     1      26.490   1.216  51.843  1.00  0.00     0.033 A 
ENDBRANCH  23  25
ENDBRANCH   1  23
TORSDOF 6
ENDMDL
MODEL 8
REMARK VINA RESULT:      -7.7      3.058      6.943
REMARK  6 active torsions:
REMARK  status: ('A' for Active; 'I' for Inactive)
REMARK    1  A    between atoms: C4_5  and  N1_6 
REMARK    2  A    between atoms: N1_6  and  C5_7 
REMARK    3  A    between atoms: C8_11  and  N3_12 
REMARK    4  A    between atoms: N3_12  and  C9_13 
REMARK    5  A    between atoms: C9_13  and  C10_14 
REMARK    6  A    between atoms: C11_15  and  C12_16 
ROOT
HETATM    1  C5  UNL     1      24.892   2.737  52.047  1.00  0.00     0.723 C 
HETATM    2  N2  UNL     1      24.064   3.272  52.856  1.00  0.00    -0.099 NA
HETATM    3  C6  UNL     1      23.561   4.588  52.763  1.00  0.00     0.229 C 
HETATM    4  C7  UNL     1      22.930   4.957  51.477  1.00  0.00     0.069 C 
HETATM    5  C8  UNL     1      23.404   5.973  50.784  1.00  0.00     0.112 C 
HETATM    6  N4  UNL     1      21.824   4.234  50.975  1.00  0.00    -0.261 NA
HETATM    7  C17 UNL     1      21.999   3.288  50.115  1.00  0.00     0.136 C 
HETATM    8  C18 UNL     1      22.954   2.502  49.299  1.00  0.00     0.137 C 
HETATM    9  N5  UNL     1      23.761   3.281  49.884  1.00  0.00    -0.252 NA
HETATM   10  C19 UNL     1      25.152   3.300  49.722  1.00  0.00     0.252 C 
HETATM   11  N6  UNL     1      25.643   3.013  50.867  1.00  0.00    -0.056 NA
ENDROOT
BRANCH   5  12
HETATM   12  N3  UNL     1      23.038   6.555  49.570  1.00  0.00    -0.387 N 
HETATM   13  H7  UNL     1      22.164   7.111  49.814  1.00  0.00     0.159 HD
BRANCH  12  14
HETATM   14  C9  UNL     1      23.673   6.445  48.281  1.00  0.00     0.213 C 
BRANCH  14  15
HETATM   15  C10 UNL     1      25.133   6.681  48.392  1.00  0.00    -0.087 C 
HETATM   16  C11 UNL     1      26.324   6.889  48.496  1.00  0.00    -0.098 C 
BRANCH  16  17
HETATM   17  C12 UNL     1      27.775   7.152  48.648  1.00  0.00     0.089 C 
HETATM   18  C13 UNL     1      28.142   8.286  47.723  1.00  0.00     0.021 C 
HETATM   19  C14 UNL     1      28.914   7.681  46.561  1.00  0.00     0.028 C 
HETATM   20  C15 UNL     1      30.135   7.005  47.141  1.00  0.00     0.167 C 
HETATM   21  O1  UNL     1      29.805   5.982  48.019  1.00  0.00    -0.390 OA
HETATM   22  C16 UNL     1      28.459   5.858  48.247  1.00  0.00     0.184 C 
ENDBRANCH  16  17
ENDBRANCH  14  15
ENDBRANCH  12  14
ENDBRANCH   5  12
BRANCH   1  23
HETATM   23  N1  UNL     1      25.150   1.387  52.489  1.00  0.00    -0.188 N 
HETATM   24  H3  UNL     1      24.348   0.677  52.548  1.00  0.00     0.184 HD
BRANCH  23  25
HETATM   25  C4  UNL     1      26.401   0.782  52.890  1.00  0.00     0.049 A 
HETATM   26  C3  UNL     1      26.747  -0.538  52.573  1.00  0.00     0.033 A 
HETATM   27  C2  UNL     1      27.971  -0.987  53.007  1.00  0.00     0.044 A 
HETATM   28  C1  UNL     1      28.884  -0.276  53.715  1.00  0.00     0.116 A 
HETATM   29  F1  UNL     1      30.069  -0.817  54.098  1.00  0.00    -0.206 F 
HETATM   30  C21 UNL     1      28.529   1.031  54.022  1.00  0.00     0.044 A 
HETATM   31  C20 UNL     1      27.303   1.538  53.609  1.00  0.00     0.033 A 
ENDBRANCH  23  25
ENDBRANCH   1  23
TORSDOF 6
ENDMDL
MODEL 9
REMARK VINA RESULT:      -7.7      3.451      7.381
REMARK  6 active torsions:
REMARK  status: ('A' for Active; 'I' for Inactive)
REMARK    1  A    between atoms: C4_5  and  N1_6 
REMARK    2  A    between atoms: N1_6  and  C5_7 
REMARK    3  A    between atoms: C8_11  and  N3_12 
REMARK    4  A    between atoms: N3_12  and  C9_13 
REMARK    5  A    between atoms: C9_13  and  C10_14 
REMARK    6  A    between atoms: C11_15  and  C12_16 
ROOT
HETATM    1  C5  UNL     1      25.258   2.067  51.682  1.00  0.00     0.723 C 
HETATM    2  N2  UNL     1      26.140   2.841  51.181  1.00  0.00    -0.099 NA
HETATM    3  C6  UNL     1      26.021   3.540  49.961  1.00  0.00     0.229 C 
HETATM    4  C7  UNL     1      24.823   4.395  49.812  1.00  0.00     0.069 C 
HETATM    5  C8  UNL     1      23.984   4.180  48.819  1.00  0.00     0.112 C 
HETATM    6  N4  UNL     1      24.560   5.443  50.723  1.00  0.00    -0.261 NA
HETATM    7  C17 UNL     1      23.763   5.256  51.721  1.00  0.00     0.136 C 
HETATM    8  C18 UNL     1      22.874   4.322  52.452  1.00  0.00     0.137 C 
HETATM    9  N5  UNL     1      23.261   3.563  51.517  1.00  0.00    -0.252 NA
HETATM   10  C19 UNL     1      22.884   2.228  51.329  1.00  0.00     0.252 C 
HETATM   11  N6  UNL     1      23.957   1.542  51.430  1.00  0.00    -0.056 NA
ENDROOT
BRANCH   5  12
HETATM   12  N3  UNL     1      22.799   4.797  48.418  1.00  0.00    -0.387 N 
HETATM   13  H7  UNL     1      22.056   4.317  49.010  1.00  0.00     0.159 HD
BRANCH  12  14
HETATM   14  C9  UNL     1      22.602   5.836  47.439  1.00  0.00     0.213 C 
BRANCH  14  15
HETATM   15  C10 UNL     1      23.676   6.854  47.528  1.00  0.00    -0.087 C 
HETATM   16  C11 UNL     1      24.563   7.681  47.583  1.00  0.00    -0.098 C 
BRANCH  16  17
HETATM   17  C12 UNL     1      25.648   8.691  47.624  1.00  0.00     0.089 C 
HETATM   18  C13 UNL     1      26.958   7.959  47.783  1.00  0.00     0.021 C 
HETATM   19  C14 UNL     1      27.421   8.180  49.214  1.00  0.00     0.028 C 
HETATM   20  C15 UNL     1      27.577   9.672  49.406  1.00  0.00     0.167 C 
HETATM   21  O1  UNL     1      26.382  10.355  49.230  1.00  0.00    -0.390 OA
HETATM   22  C16 UNL     1      25.339   9.558  48.831  1.00  0.00     0.184 C 
ENDBRANCH  16  17
ENDBRANCH  14  15
ENDBRANCH  12  14
ENDBRANCH   5  12
BRANCH   1  23
HETATM   23  N1  UNL     1      25.763   1.554  52.933  1.00  0.00    -0.188 N 
HETATM   24  H3  UNL     1      25.179   1.645  53.828  1.00  0.00     0.184 HD
BRANCH  23  25
HETATM   25  C4  UNL     1      27.014   0.879  53.203  1.00  0.00     0.049 A 
HETATM   26  C3  UNL     1      28.112   1.515  53.794  1.00  0.00     0.033 A 
HETATM   27  C2  UNL     1      29.239   0.757  54.004  1.00  0.00     0.044 A 
HETATM   28  C1  UNL     1      29.395  -0.555  53.694  1.00  0.00     0.116 A 
HETATM   29  F1  UNL     1      30.555  -1.214  53.943  1.00  0.00    -0.206 F 
HETATM   30  C21 UNL     1      28.297  -1.174  53.108  1.00  0.00     0.044 A 
HETATM   31  C20 UNL     1      27.132  -0.455  52.872  1.00  0.00     0.033 A 
ENDBRANCH  23  25
ENDBRANCH   1  23
TORSDOF 6
ENDMDL
