MODEL 1
REMARK VINA RESULT:      -7.6      0.000      0.000
REMARK  8 active torsions:
REMARK  status: ('A' for Active; 'I' for Inactive)
REMARK    1  A    between atoms: O1_1  and  C1_2 
REMARK    2  A    between atoms: C3_5  and  N1_6 
REMARK    3  A    between atoms: C4_8  and  C5_9 
REMARK    4  A    between atoms: C5_9  and  C6_10 
REMARK    5  A    between atoms: C7_11  and  C8_12 
REMARK    6  A    between atoms: C9_13  and  C10_14 
REMARK    7  A    between atoms: C10_14  and  S2_15 
REMARK    8  A    between atoms: C12_17  and  C13_18 
ROOT
HETATM    1  N1  UNL     1      25.495   1.862  53.030  1.00  0.00    -0.237 N 
HETATM    2  N2  UNL     1      24.854   3.071  53.297  1.00  0.00    -0.178 NA
HETATM    3  C4  UNL     1      23.854   3.219  52.484  1.00  0.00     0.038 C 
HETATM    4  C11 UNL     1      23.748   2.054  51.570  1.00  0.00     0.089 C 
HETATM    5  C12 UNL     1      24.557   1.011  52.329  1.00  0.00     0.151 C 
ENDROOT
BRANCH   3   6
HETATM    6  C5  UNL     1      22.888   4.370  52.409  1.00  0.00     0.083 C 
BRANCH   6   7
HETATM    7  C6  UNL     1      21.659   3.838  51.781  1.00  0.00    -0.021 C 
HETATM    8  C7  UNL     1      20.619   3.341  52.419  1.00  0.00    -0.004 C 
BRANCH   8   9
HETATM    9  C8  UNL     1      19.402   2.812  51.824  1.00  0.00    -0.004 C 
HETATM   10  C9  UNL     1      19.300   1.797  50.981  1.00  0.00    -0.017 C 
BRANCH  10  11
HETATM   11  C10 UNL     1      20.108   0.804  50.279  1.00  0.00     0.098 C 
BRANCH  11  12
HETATM   12  S2  UNL     1      20.986   1.508  48.873  1.00  0.00    -0.178 SA
HETATM   13  H11 UNL     1      20.631   2.886  48.811  1.00  0.00     0.101 HD
ENDBRANCH  11  12
ENDBRANCH  10  11
ENDBRANCH   8   9
ENDBRANCH   6   7
ENDBRANCH   3   6
BRANCH   1  14
HETATM   14  C3  UNL     1      26.887   1.703  53.481  1.00  0.00     0.192 A 
HETATM   15  S1  UNL     1      27.477   0.018  52.838  1.00  0.00    -0.058 SA
HETATM   16  C2  UNL     1      29.171   0.309  53.638  1.00  0.00     0.111 A 
HETATM   17  C1  UNL     1      28.971   1.596  54.225  1.00  0.00     0.171 A 
HETATM   18  N3  UNL     1      27.775   2.113  54.034  1.00  0.00    -0.198 NA
BRANCH  17  19
HETATM   19  O1  UNL     1      29.853   2.398  54.976  1.00  0.00    -0.344 OA
HETATM   20  H1  UNL     1      30.730   2.087  55.314  1.00  0.00     0.219 HD
ENDBRANCH  17  19
ENDBRANCH   1  14
BRANCH   5  21
HETATM   21  C13 UNL     1      23.732   0.207  53.257  1.00  0.00    -0.033 A 
HETATM   22  C14 UNL     1      24.298  -0.517  54.284  1.00  0.00     0.009 A 
HETATM   23  C15 UNL     1      23.477  -1.264  55.135  1.00  0.00     0.001 A 
HETATM   24  C16 UNL     1      22.093  -1.290  54.966  1.00  0.00     0.000 A 
HETATM   25  C17 UNL     1      21.504  -0.565  53.935  1.00  0.00     0.001 A 
HETATM   26  C18 UNL     1      22.361   0.152  53.128  1.00  0.00     0.009 A 
ENDBRANCH   5  21
TORSDOF 8
ENDMDL
MODEL 2
REMARK VINA RESULT:      -7.4      2.417      3.533
REMARK  8 active torsions:
REMARK  status: ('A' for Active; 'I' for Inactive)
REMARK    1  A    between atoms: O1_1  and  C1_2 
REMARK    2  A    between atoms: C3_5  and  N1_6 
REMARK    3  A    between atoms: C4_8  and  C5_9 
REMARK    4  A    between atoms: C5_9  and  C6_10 
REMARK    5  A    between atoms: C7_11  and  C8_12 
REMARK    6  A    between atoms: C9_13  and  C10_14 
REMARK    7  A    between atoms: C10_14  and  S2_15 
REMARK    8  A    between atoms: C12_17  and  C13_18 
ROOT
HETATM    1  N1  UNL     1      25.463   1.696  52.989  1.00  0.00    -0.237 N 
HETATM    2  N2  UNL     1      24.794   2.898  53.211  1.00  0.00    -0.178 NA
HETATM    3  C4  UNL     1      23.793   2.995  52.391  1.00  0.00     0.038 C 
HETATM    4  C11 UNL     1      23.716   1.796  51.519  1.00  0.00     0.089 C 
HETATM    5  C12 UNL     1      24.546   0.799  52.316  1.00  0.00     0.151 C 
ENDROOT
BRANCH   3   6
HETATM    6  C5  UNL     1      22.801   4.120  52.274  1.00  0.00     0.083 C 
BRANCH   6   7
HETATM    7  C6  UNL     1      23.571   5.306  51.843  1.00  0.00    -0.021 C 
HETATM    8  C7  UNL     1      24.273   5.409  50.733  1.00  0.00    -0.004 C 
BRANCH   8   9
HETATM    9  C8  UNL     1      25.038   6.564  50.289  1.00  0.00    -0.004 C 
HETATM   10  C9  UNL     1      26.080   6.567  49.473  1.00  0.00    -0.017 C 
BRANCH  10  11
HETATM   11  C10 UNL     1      26.923   5.670  48.687  1.00  0.00     0.098 C 
BRANCH  11  12
HETATM   12  S2  UNL     1      28.440   6.468  48.137  1.00  0.00    -0.178 SA
HETATM   13  H11 UNL     1      28.373   6.553  46.716  1.00  0.00     0.101 HD
ENDBRANCH  11  12
ENDBRANCH  10  11
ENDBRANCH   8   9
ENDBRANCH   6   7
ENDBRANCH   3   6
BRANCH   1  14
HETATM   14  C3  UNL     1      26.857   1.585  53.448  1.00  0.00     0.192 A 
HETATM   15  S1  UNL     1      27.481  -0.116  52.881  1.00  0.00    -0.058 SA
HETATM   16  C2  UNL     1      29.167   0.244  53.670  1.00  0.00     0.111 A 
HETATM   17  C1  UNL     1      28.940   1.551  54.198  1.00  0.00     0.171 A 
HETATM   18  N3  UNL     1      27.735   2.036  53.983  1.00  0.00    -0.198 NA
BRANCH  17  19
HETATM   19  O1  UNL     1      29.805   2.403  54.914  1.00  0.00    -0.344 OA
HETATM   20  H1  UNL     1      30.791   2.381  54.837  1.00  0.00     0.219 HD
ENDBRANCH  17  19
ENDBRANCH   1  14
BRANCH   5  21
HETATM   21  C13 UNL     1      23.736   0.010  53.269  1.00  0.00    -0.033 A 
HETATM   22  C14 UNL     1      24.302  -0.582  54.379  1.00  0.00     0.009 A 
HETATM   23  C15 UNL     1      23.496  -1.320  55.252  1.00  0.00     0.001 A 
HETATM   24  C16 UNL     1      22.129  -1.469  55.023  1.00  0.00     0.000 A 
HETATM   25  C17 UNL     1      21.541  -0.879  53.909  1.00  0.00     0.001 A 
HETATM   26  C18 UNL     1      22.382  -0.164  53.083  1.00  0.00     0.009 A 
ENDBRANCH   5  21
TORSDOF 8
ENDMDL
MODEL 3
REMARK VINA RESULT:      -7.4      3.270      5.118
REMARK  8 active torsions:
REMARK  status: ('A' for Active; 'I' for Inactive)
REMARK    1  A    between atoms: O1_1  and  C1_2 
REMARK    2  A    between atoms: C3_5  and  N1_6 
REMARK    3  A    between atoms: C4_8  and  C5_9 
REMARK    4  A    between atoms: C5_9  and  C6_10 
REMARK    5  A    between atoms: C7_11  and  C8_12 
REMARK    6  A    between atoms: C9_13  and  C10_14 
REMARK    7  A    between atoms: C10_14  and  S2_15 
REMARK    8  A    between atoms: C12_17  and  C13_18 
ROOT
HETATM    1  N1  UNL     1      25.354   3.098  50.859  1.00  0.00    -0.237 N 
HETATM    2  N2  UNL     1      25.888   1.955  51.451  1.00  0.00    -0.178 NA
HETATM    3  C4  UNL     1      25.158   1.612  52.468  1.00  0.00     0.038 C 
HETATM    4  C11 UNL     1      24.021   2.552  52.632  1.00  0.00     0.089 C 
HETATM    5  C12 UNL     1      23.963   3.189  51.251  1.00  0.00     0.151 C 
ENDROOT
BRANCH   3   6
HETATM    6  C5  UNL     1      25.359   0.447  53.397  1.00  0.00     0.083 C 
BRANCH   6   7
HETATM    7  C6  UNL     1      24.055  -0.245  53.481  1.00  0.00    -0.021 C 
HETATM    8  C7  UNL     1      23.538  -0.789  54.564  1.00  0.00    -0.004 C 
BRANCH   8   9
HETATM    9  C8  UNL     1      22.261  -1.475  54.670  1.00  0.00    -0.004 C 
HETATM   10  C9  UNL     1      21.075  -1.022  54.295  1.00  0.00    -0.017 C 
BRANCH  10  11
HETATM   11  C10 UNL     1      20.431   0.141  53.690  1.00  0.00     0.098 C 
BRANCH  11  12
HETATM   12  S2  UNL     1      18.993  -0.311  52.705  1.00  0.00    -0.178 SA
HETATM   13  H11 UNL     1      18.954  -1.734  52.656  1.00  0.00     0.101 HD
ENDBRANCH  11  12
ENDBRANCH  10  11
ENDBRANCH   8   9
ENDBRANCH   6   7
ENDBRANCH   3   6
BRANCH   1  14
HETATM   14  C3  UNL     1      26.240   3.919  50.018  1.00  0.00     0.192 A 
HETATM   15  S1  UNL     1      25.364   5.585  49.773  1.00  0.00    -0.058 SA
HETATM   16  C2  UNL     1      26.817   6.189  48.715  1.00  0.00     0.111 A 
HETATM   17  C1  UNL     1      27.666   5.042  48.748  1.00  0.00     0.171 A 
HETATM   18  N3  UNL     1      27.200   4.026  49.445  1.00  0.00    -0.198 NA
BRANCH  17  19
HETATM   19  O1  UNL     1      28.925   4.826  48.152  1.00  0.00    -0.344 OA
HETATM   20  H1  UNL     1      29.276   3.933  47.911  1.00  0.00     0.219 HD
ENDBRANCH  17  19
ENDBRANCH   1  14
BRANCH   5  21
HETATM   21  C13 UNL     1      23.073   2.461  50.320  1.00  0.00    -0.033 A 
HETATM   22  C14 UNL     1      22.192   1.499  50.768  1.00  0.00     0.009 A 
HETATM   23  C15 UNL     1      21.372   0.836  49.849  1.00  0.00     0.001 A 
HETATM   24  C16 UNL     1      21.425   1.130  48.487  1.00  0.00     0.000 A 
HETATM   25  C17 UNL     1      22.307   2.098  48.018  1.00  0.00     0.001 A 
HETATM   26  C18 UNL     1      23.092   2.718  48.966  1.00  0.00     0.009 A 
ENDBRANCH   5  21
TORSDOF 8
ENDMDL
MODEL 4
REMARK VINA RESULT:      -7.3      3.148      5.306
REMARK  8 active torsions:
REMARK  status: ('A' for Active; 'I' for Inactive)
REMARK    1  A    between atoms: O1_1  and  C1_2 
REMARK    2  A    between atoms: C3_5  and  N1_6 
REMARK    3  A    between atoms: C4_8  and  C5_9 
REMARK    4  A    between atoms: C5_9  and  C6_10 
REMARK    5  A    between atoms: C7_11  and  C8_12 
REMARK    6  A    between atoms: C9_13  and  C10_14 
REMARK    7  A    between atoms: C10_14  and  S2_15 
REMARK    8  A    between atoms: C12_17  and  C13_18 
ROOT
HETATM    1  N1  UNL     1      25.020   0.678  53.007  1.00  0.00    -0.237 N 
HETATM    2  N2  UNL     1      25.118   1.190  51.715  1.00  0.00    -0.178 NA
HETATM    3  C4  UNL     1      26.096   2.042  51.660  1.00  0.00     0.038 C 
HETATM    4  C11 UNL     1      26.757   2.162  52.983  1.00  0.00     0.089 C 
HETATM    5  C12 UNL     1      26.298   0.878  53.659  1.00  0.00     0.151 C 
ENDROOT
BRANCH   3   6
HETATM    6  C5  UNL     1      26.562   2.836  50.470  1.00  0.00     0.083 C 
BRANCH   6   7
HETATM    7  C6  UNL     1      25.341   3.330  49.798  1.00  0.00    -0.021 C 
HETATM    8  C7  UNL     1      25.115   4.573  49.427  1.00  0.00    -0.004 C 
BRANCH   8   9
HETATM    9  C8  UNL     1      23.923   5.082  48.767  1.00  0.00    -0.004 C 
HETATM   10  C9  UNL     1      22.664   4.894  49.131  1.00  0.00    -0.017 C 
BRANCH  10  11
HETATM   11  C10 UNL     1      21.852   4.238  50.152  1.00  0.00     0.098 C 
BRANCH  11  12
HETATM   12  S2  UNL     1      22.116   4.940  51.789  1.00  0.00    -0.178 SA
HETATM   13  H11 UNL     1      23.027   6.024  51.634  1.00  0.00     0.101 HD
ENDBRANCH  11  12
ENDBRANCH  10  11
ENDBRANCH   8   9
ENDBRANCH   6   7
ENDBRANCH   3   6
BRANCH   1  14
HETATM   14  C3  UNL     1      23.739   0.081  53.419  1.00  0.00     0.192 A 
HETATM   15  S1  UNL     1      22.392   0.913  52.373  1.00  0.00    -0.058 SA
HETATM   16  C2  UNL     1      21.074  -0.138  53.240  1.00  0.00     0.111 A 
HETATM   17  C1  UNL     1      21.886  -0.899  54.134  1.00  0.00     0.171 A 
HETATM   18  N3  UNL     1      23.176  -0.643  54.068  1.00  0.00    -0.198 NA
BRANCH  17  19
HETATM   19  O1  UNL     1      21.523  -1.883  55.076  1.00  0.00    -0.344 OA
HETATM   20  H1  UNL     1      20.713  -1.833  55.642  1.00  0.00     0.219 HD
ENDBRANCH  17  19
ENDBRANCH   1  14
BRANCH   5  21
HETATM   21  C13 UNL     1      27.223  -0.254  53.432  1.00  0.00    -0.033 A 
HETATM   22  C14 UNL     1      26.781  -1.455  52.917  1.00  0.00     0.009 A 
HETATM   23  C15 UNL     1      27.694  -2.497  52.722  1.00  0.00     0.001 A 
HETATM   24  C16 UNL     1      29.043  -2.346  53.037  1.00  0.00     0.000 A 
HETATM   25  C17 UNL     1      29.507  -1.142  53.557  1.00  0.00     0.001 A 
HETATM   26  C18 UNL     1      28.564  -0.151  53.729  1.00  0.00     0.009 A 
ENDBRANCH   5  21
TORSDOF 8
ENDMDL
MODEL 5
REMARK VINA RESULT:      -7.1      2.119      3.166
REMARK  8 active torsions:
REMARK  status: ('A' for Active; 'I' for Inactive)
REMARK    1  A    between atoms: O1_1  and  C1_2 
REMARK    2  A    between atoms: C3_5  and  N1_6 
REMARK    3  A    between atoms: C4_8  and  C5_9 
REMARK    4  A    between atoms: C5_9  and  C6_10 
REMARK    5  A    between atoms: C7_11  and  C8_12 
REMARK    6  A    between atoms: C9_13  and  C10_14 
REMARK    7  A    between atoms: C10_14  and  S2_15 
REMARK    8  A    between atoms: C12_17  and  C13_18 
ROOT
HETATM    1  N1  UNL     1      25.419   1.829  52.986  1.00  0.00    -0.237 N 
HETATM    2  N2  UNL     1      24.767   3.032  53.252  1.00  0.00    -0.178 NA
HETATM    3  C4  UNL     1      23.758   3.165  52.448  1.00  0.00     0.038 C 
HETATM    4  C11 UNL     1      23.657   1.994  51.541  1.00  0.00     0.089 C 
HETATM    5  C12 UNL     1      24.484   0.964  52.297  1.00  0.00     0.151 C 
ENDROOT
BRANCH   3   6
HETATM    6  C5  UNL     1      22.778   4.304  52.377  1.00  0.00     0.083 C 
BRANCH   6   7
HETATM    7  C6  UNL     1      23.302   5.236  51.355  1.00  0.00    -0.021 C 
HETATM    8  C7  UNL     1      24.119   6.245  51.577  1.00  0.00    -0.004 C 
BRANCH   8   9
HETATM    9  C8  UNL     1      24.645   7.175  50.591  1.00  0.00    -0.004 C 
HETATM   10  C9  UNL     1      23.955   8.006  49.826  1.00  0.00    -0.017 C 
BRANCH  10  11
HETATM   11  C10 UNL     1      22.588   8.430  49.538  1.00  0.00     0.098 C 
BRANCH  11  12
HETATM   12  S2  UNL     1      21.942   7.680  48.034  1.00  0.00    -0.178 SA
HETATM   13  H11 UNL     1      20.989   6.701  48.435  1.00  0.00     0.101 HD
ENDBRANCH  11  12
ENDBRANCH  10  11
ENDBRANCH   8   9
ENDBRANCH   6   7
ENDBRANCH   3   6
BRANCH   1  14
HETATM   14  C3  UNL     1      26.817   1.688  53.425  1.00  0.00     0.192 A 
HETATM   15  S1  UNL     1      27.420   0.007  52.783  1.00  0.00    -0.058 SA
HETATM   16  C2  UNL     1      29.118   0.321  53.566  1.00  0.00     0.111 A 
HETATM   17  C1  UNL     1      28.908   1.607  54.149  1.00  0.00     0.171 A 
HETATM   18  N3  UNL     1      27.705   2.111  53.967  1.00  0.00    -0.198 NA
BRANCH  17  19
HETATM   19  O1  UNL     1      29.788   2.423  54.889  1.00  0.00    -0.344 OA
HETATM   20  H1  UNL     1      29.709   3.407  54.951  1.00  0.00     0.219 HD
ENDBRANCH  17  19
ENDBRANCH   1  14
BRANCH   5  21
HETATM   21  C13 UNL     1      23.676   0.156  53.237  1.00  0.00    -0.033 A 
HETATM   22  C14 UNL     1      24.257  -0.527  54.285  1.00  0.00     0.009 A 
HETATM   23  C15 UNL     1      23.451  -1.279  55.146  1.00  0.00     0.001 A 
HETATM   24  C16 UNL     1      22.071  -1.352  54.967  1.00  0.00     0.000 A 
HETATM   25  C17 UNL     1      21.468  -0.669  53.916  1.00  0.00     0.001 A 
HETATM   26  C18 UNL     1      22.309   0.055  53.099  1.00  0.00     0.009 A 
ENDBRANCH   5  21
TORSDOF 8
ENDMDL
MODEL 6
REMARK VINA RESULT:      -7.1      4.210      6.599
REMARK  8 active torsions:
REMARK  status: ('A' for Active; 'I' for Inactive)
REMARK    1  A    between atoms: O1_1  and  C1_2 
REMARK    2  A    between atoms: C3_5  and  N1_6 
REMARK    3  A    between atoms: C4_8  and  C5_9 
REMARK    4  A    between atoms: C5_9  and  C6_10 
REMARK    5  A    between atoms: C7_11  and  C8_12 
REMARK    6  A    between atoms: C9_13  and  C10_14 
REMARK    7  A    between atoms: C10_14  and  S2_15 
REMARK    8  A    between atoms: C12_17  and  C13_18 
ROOT
HETATM    1  N1  UNL     1      22.210   1.837  52.203  1.00  0.00    -0.237 N 
HETATM    2  N2  UNL     1      22.230   2.433  50.943  1.00  0.00    -0.178 NA
HETATM    3  C4  UNL     1      22.969   3.499  50.980  1.00  0.00     0.038 C 
HETATM    4  C11 UNL     1      23.527   3.698  52.340  1.00  0.00     0.089 C 
HETATM    5  C12 UNL     1      23.372   2.304  52.930  1.00  0.00     0.151 C 
ENDROOT
BRANCH   3   6
HETATM    6  C5  UNL     1      23.272   4.451  49.855  1.00  0.00     0.083 C 
BRANCH   6   7
HETATM    7  C6  UNL     1      24.590   4.051  49.319  1.00  0.00    -0.021 C 
HETATM    8  C7  UNL     1      25.745   4.612  49.612  1.00  0.00    -0.004 C 
BRANCH   8   9
HETATM    9  C8  UNL     1      27.053   4.238  49.097  1.00  0.00    -0.004 C 
HETATM   10  C9  UNL     1      27.949   5.034  48.536  1.00  0.00    -0.017 C 
BRANCH  10  11
HETATM   11  C10 UNL     1      28.170   6.429  48.163  1.00  0.00     0.098 C 
BRANCH  11  12
HETATM   12  S2  UNL     1      29.920   6.831  48.031  1.00  0.00    -0.178 SA
HETATM   13  H11 UNL     1      30.431   6.098  46.922  1.00  0.00     0.101 HD
ENDBRANCH  11  12
ENDBRANCH  10  11
ENDBRANCH   8   9
ENDBRANCH   6   7
ENDBRANCH   3   6
BRANCH   1  14
HETATM   14  C3  UNL     1      21.101   0.922  52.518  1.00  0.00     0.192 A 
HETATM   15  S1  UNL     1      19.757   1.230  51.213  1.00  0.00    -0.058 SA
HETATM   16  C2  UNL     1      18.668  -0.090  52.028  1.00  0.00     0.111 A 
HETATM   17  C1  UNL     1      19.510  -0.502  53.106  1.00  0.00     0.171 A 
HETATM   18  N3  UNL     1      20.669   0.120  53.174  1.00  0.00    -0.198 NA
BRANCH  17  19
HETATM   19  O1  UNL     1      19.293  -1.469  54.108  1.00  0.00    -0.344 OA
HETATM   20  H1  UNL     1      19.005  -1.254  55.029  1.00  0.00     0.219 HD
ENDBRANCH  17  19
ENDBRANCH   1  14
BRANCH   5  21
HETATM   21  C13 UNL     1      24.556   1.447  52.698  1.00  0.00    -0.033 A 
HETATM   22  C14 UNL     1      25.682   1.928  52.063  1.00  0.00     0.009 A 
HETATM   23  C15 UNL     1      26.775   1.079  51.865  1.00  0.00     0.001 A 
HETATM   24  C16 UNL     1      26.751  -0.246  52.298  1.00  0.00     0.000 A 
HETATM   25  C17 UNL     1      25.625  -0.748  52.941  1.00  0.00     0.001 A 
HETATM   26  C18 UNL     1      24.577   0.132  53.108  1.00  0.00     0.009 A 
ENDBRANCH   5  21
TORSDOF 8
ENDMDL
MODEL 7
REMARK VINA RESULT:      -7.0      2.078      3.991
REMARK  8 active torsions:
REMARK  status: ('A' for Active; 'I' for Inactive)
REMARK    1  A    between atoms: O1_1  and  C1_2 
REMARK    2  A    between atoms: C3_5  and  N1_6 
REMARK    3  A    between atoms: C4_8  and  C5_9 
REMARK    4  A    between atoms: C5_9  and  C6_10 
REMARK    5  A    between atoms: C7_11  and  C8_12 
REMARK    6  A    between atoms: C9_13  and  C10_14 
REMARK    7  A    between atoms: C10_14  and  S2_15 
REMARK    8  A    between atoms: C12_17  and  C13_18 
ROOT
HETATM    1  N1  UNL     1      25.275   1.737  53.026  1.00  0.00    -0.237 N 
HETATM    2  N2  UNL     1      24.639   0.589  52.556  1.00  0.00    -0.178 NA
HETATM    3  C4  UNL     1      23.356   0.783  52.535  1.00  0.00     0.038 C 
HETATM    4  C11 UNL     1      23.028   2.150  53.011  1.00  0.00     0.089 C 
HETATM    5  C12 UNL     1      24.368   2.851  52.841  1.00  0.00     0.151 C 
ENDROOT
BRANCH   3   6
HETATM    6  C5  UNL     1      22.285  -0.180  52.102  1.00  0.00     0.083 C 
BRANCH   6   7
HETATM    7  C6  UNL     1      21.366   0.586  51.233  1.00  0.00    -0.021 C 
HETATM    8  C7  UNL     1      21.619   0.981  50.002  1.00  0.00    -0.004 C 
BRANCH   8   9
HETATM    9  C8  UNL     1      20.733   1.735  49.129  1.00  0.00    -0.004 C 
HETATM   10  C9  UNL     1      21.065   2.400  48.033  1.00  0.00    -0.017 C 
BRANCH  10  11
HETATM   11  C10 UNL     1      22.216   2.729  47.197  1.00  0.00     0.098 C 
BRANCH  11  12
HETATM   12  S2  UNL     1      21.771   3.786  45.809  1.00  0.00    -0.178 SA
HETATM   13  H11 UNL     1      21.323   5.023  46.356  1.00  0.00     0.101 HD
ENDBRANCH  11  12
ENDBRANCH  10  11
ENDBRANCH   8   9
ENDBRANCH   6   7
ENDBRANCH   3   6
BRANCH   1  14
HETATM   14  C3  UNL     1      26.635   1.600  53.572  1.00  0.00     0.192 A 
HETATM   15  S1  UNL     1      26.894  -0.247  53.923  1.00  0.00    -0.058 SA
HETATM   16  C2  UNL     1      28.644   0.121  54.553  1.00  0.00     0.111 A 
HETATM   17  C1  UNL     1      28.696   1.538  54.381  1.00  0.00     0.171 A 
HETATM   18  N3  UNL     1      27.603   2.078  53.883  1.00  0.00    -0.198 NA
BRANCH  17  19
HETATM   19  O1  UNL     1      29.735   2.449  54.660  1.00  0.00    -0.344 OA
HETATM   20  H1  UNL     1      29.604   3.307  55.134  1.00  0.00     0.219 HD
ENDBRANCH  17  19
ENDBRANCH   1  14
BRANCH   5  21
HETATM   21  C13 UNL     1      24.523   3.480  51.511  1.00  0.00    -0.033 A 
HETATM   22  C14 UNL     1      25.672   3.320  50.766  1.00  0.00     0.009 A 
HETATM   23  C15 UNL     1      25.771   3.937  49.514  1.00  0.00     0.001 A 
HETATM   24  C16 UNL     1      24.731   4.711  49.003  1.00  0.00     0.000 A 
HETATM   25  C17 UNL     1      23.564   4.883  49.741  1.00  0.00     0.001 A 
HETATM   26  C18 UNL     1      23.521   4.254  50.967  1.00  0.00     0.009 A 
ENDBRANCH   5  21
TORSDOF 8
ENDMDL
MODEL 8
REMARK VINA RESULT:      -6.8      2.547      4.952
REMARK  8 active torsions:
REMARK  status: ('A' for Active; 'I' for Inactive)
REMARK    1  A    between atoms: O1_1  and  C1_2 
REMARK    2  A    between atoms: C3_5  and  N1_6 
REMARK    3  A    between atoms: C4_8  and  C5_9 
REMARK    4  A    between atoms: C5_9  and  C6_10 
REMARK    5  A    between atoms: C7_11  and  C8_12 
REMARK    6  A    between atoms: C9_13  and  C10_14 
REMARK    7  A    between atoms: C10_14  and  S2_15 
REMARK    8  A    between atoms: C12_17  and  C13_18 
ROOT
HETATM    1  N1  UNL     1      25.057   1.545  52.126  1.00  0.00    -0.237 N 
HETATM    2  N2  UNL     1      24.202   1.262  53.190  1.00  0.00    -0.178 NA
HETATM    3  C4  UNL     1      24.280   0.001  53.484  1.00  0.00     0.038 C 
HETATM    4  C11 UNL     1      25.248  -0.684  52.591  1.00  0.00     0.089 C 
HETATM    5  C12 UNL     1      26.056   0.497  52.072  1.00  0.00     0.151 C 
ENDROOT
BRANCH   3   6
HETATM    6  C5  UNL     1      23.536  -0.743  54.560  1.00  0.00     0.083 C 
BRANCH   6   7
HETATM    7  C6  UNL     1      22.216  -1.086  53.988  1.00  0.00    -0.021 C 
HETATM    8  C7  UNL     1      21.122  -0.359  54.083  1.00  0.00    -0.004 C 
BRANCH   8   9
HETATM    9  C8  UNL     1      19.814  -0.676  53.532  1.00  0.00    -0.004 C 
HETATM   10  C9  UNL     1      19.253  -0.154  52.453  1.00  0.00    -0.017 C 
BRANCH  10  11
HETATM   11  C10 UNL     1      19.498   0.815  51.388  1.00  0.00     0.098 C 
BRANCH  11  12
HETATM   12  S2  UNL     1      21.152   0.662  50.694  1.00  0.00    -0.178 SA
HETATM   13  H11 UNL     1      21.050  -0.202  49.566  1.00  0.00     0.101 HD
ENDBRANCH  11  12
ENDBRANCH  10  11
ENDBRANCH   8   9
ENDBRANCH   6   7
ENDBRANCH   3   6
BRANCH   1  14
HETATM   14  C3  UNL     1      24.797   2.758  51.333  1.00  0.00     0.192 A 
HETATM   15  S1  UNL     1      23.325   3.634  52.150  1.00  0.00    -0.058 SA
HETATM   16  C2  UNL     1      23.415   5.000  50.839  1.00  0.00     0.111 A 
HETATM   17  C1  UNL     1      24.516   4.543  50.053  1.00  0.00     0.171 A 
HETATM   18  N3  UNL     1      25.061   3.416  50.462  1.00  0.00    -0.198 NA
BRANCH  17  19
HETATM   19  O1  UNL     1      25.110   5.109  48.907  1.00  0.00    -0.344 OA
HETATM   20  H1  UNL     1      26.044   4.939  48.628  1.00  0.00     0.219 HD
ENDBRANCH  17  19
ENDBRANCH   1  14
BRANCH   5  21
HETATM   21  C13 UNL     1      27.232   0.804  52.915  1.00  0.00    -0.033 A 
HETATM   22  C14 UNL     1      27.864  -0.173  53.655  1.00  0.00     0.009 A 
HETATM   23  C15 UNL     1      28.971   0.166  54.439  1.00  0.00     0.001 A 
HETATM   24  C16 UNL     1      29.451   1.474  54.488  1.00  0.00     0.000 A 
HETATM   25  C17 UNL     1      28.826   2.473  53.747  1.00  0.00     0.001 A 
HETATM   26  C18 UNL     1      27.740   2.083  52.994  1.00  0.00     0.009 A 
ENDBRANCH   5  21
TORSDOF 8
ENDMDL
MODEL 9
REMARK VINA RESULT:      -6.6      4.460      7.935
REMARK  8 active torsions:
REMARK  status: ('A' for Active; 'I' for Inactive)
REMARK    1  A    between atoms: O1_1  and  C1_2 
REMARK    2  A    between atoms: C3_5  and  N1_6 
REMARK    3  A    between atoms: C4_8  and  C5_9 
REMARK    4  A    between atoms: C5_9  and  C6_10 
REMARK    5  A    between atoms: C7_11  and  C8_12 
REMARK    6  A    between atoms: C9_13  and  C10_14 
REMARK    7  A    between atoms: C10_14  and  S2_15 
REMARK    8  A    between atoms: C12_17  and  C13_18 
ROOT
HETATM    1  N1  UNL     1      22.118   4.331  50.224  1.00  0.00    -0.237 N 
HETATM    2  N2  UNL     1      22.267   3.954  51.558  1.00  0.00    -0.178 NA
HETATM    3  C4  UNL     1      22.730   2.743  51.616  1.00  0.00     0.038 C 
HETATM    4  C11 UNL     1      22.938   2.199  50.251  1.00  0.00     0.089 C 
HETATM    5  C12 UNL     1      22.974   3.477  49.426  1.00  0.00     0.151 C 
ENDROOT
BRANCH   3   6
HETATM    6  C5  UNL     1      23.043   1.933  52.845  1.00  0.00     0.083 C 
BRANCH   6   7
HETATM    7  C6  UNL     1      23.957   0.856  52.409  1.00  0.00    -0.021 C 
HETATM    8  C7  UNL     1      25.152   0.609  52.906  1.00  0.00    -0.004 C 
BRANCH   8   9
HETATM    9  C8  UNL     1      26.068  -0.442  52.493  1.00  0.00    -0.004 C 
HETATM   10  C9  UNL     1      27.324  -0.605  52.878  1.00  0.00    -0.017 C 
BRANCH  10  11
HETATM   11  C10 UNL     1      28.346  -0.012  53.735  1.00  0.00     0.098 C 
BRANCH  11  12
HETATM   12  S2  UNL     1      29.910  -0.901  53.648  1.00  0.00    -0.178 SA
HETATM   13  H11 UNL     1      30.898  -0.061  54.238  1.00  0.00     0.101 HD
ENDBRANCH  11  12
ENDBRANCH  10  11
ENDBRANCH   8   9
ENDBRANCH   6   7
ENDBRANCH   3   6
BRANCH   1  14
HETATM   14  C3  UNL     1      21.195   5.435  49.917  1.00  0.00     0.192 A 
HETATM   15  S1  UNL     1      21.927   6.992  50.718  1.00  0.00    -0.058 SA
HETATM   16  C2  UNL     1      20.466   8.010  50.066  1.00  0.00     0.111 A 
HETATM   17  C1  UNL     1      19.722   7.001  49.382  1.00  0.00     0.171 A 
HETATM   18  N3  UNL     1      20.251   5.796  49.427  1.00  0.00    -0.198 NA
BRANCH  17  19
HETATM   19  O1  UNL     1      18.511   7.093  48.668  1.00  0.00    -0.344 OA
HETATM   20  H1  UNL     1      18.281   7.844  48.065  1.00  0.00     0.219 HD
ENDBRANCH  17  19
ENDBRANCH   1  14
BRANCH   5  21
HETATM   21  C13 UNL     1      24.338   4.032  49.285  1.00  0.00    -0.033 A 
HETATM   22  C14 UNL     1      25.457   3.274  49.559  1.00  0.00     0.009 A 
HETATM   23  C15 UNL     1      26.726   3.843  49.412  1.00  0.00     0.001 A 
HETATM   24  C16 UNL     1      26.884   5.163  48.992  1.00  0.00     0.000 A 
HETATM   25  C17 UNL     1      25.766   5.942  48.710  1.00  0.00     0.001 A 
HETATM   26  C18 UNL     1      24.542   5.331  48.873  1.00  0.00     0.009 A 
ENDBRANCH   5  21
TORSDOF 8
ENDMDL
