MODEL 1
REMARK VINA RESULT:      -7.4      0.000      0.000
REMARK  0 active torsions:
REMARK  status: ('A' for Active; 'I' for Inactive)
ROOT
HETATM    1  O1  UNL     1      30.678   5.393  49.258  1.00  0.00    -0.265 OA
HETATM    2  C1  UNL     1      30.268   5.403  48.087  1.00  0.00     0.278 C 
HETATM    3  N1  UNL     1      31.324   4.950  47.302  1.00  0.00    -0.215 N 
HETATM    4  O2  UNL     1      32.341   4.514  46.561  1.00  0.00    -0.171 OA
HETATM    5  S1  UNL     1      33.766   4.357  47.490  1.00  0.00     0.180 S 
HETATM    6  O3  UNL     1      34.691   3.497  46.652  1.00  0.00    -0.226 OA
HETATM    7  C2  UNL     1      34.475   6.039  47.533  1.00  0.00     0.168 C 
HETATM    8  C3  UNL     1      33.491   6.949  48.168  1.00  0.00    -0.012 C 
HETATM    9  C4  UNL     1      32.808   7.783  48.884  1.00  0.00    -0.003 C 
HETATM   10  C5  UNL     1      31.627   8.548  49.206  1.00  0.00    -0.003 C 
HETATM   11  C6  UNL     1      30.442   8.659  48.651  1.00  0.00    -0.005 C 
HETATM   12  C7  UNL     1      29.415   8.354  47.627  1.00  0.00     0.133 C 
HETATM   13 BR1  UNL     1      30.257   7.954  45.923  1.00  0.00    -0.080 Br
HETATM   14  C8  UNL     1      28.586   7.191  48.032  1.00  0.00     0.068 A 
HETATM   15  N2  UNL     1      27.275   7.458  48.232  1.00  0.00    -0.262 NA
HETATM   16  C9  UNL     1      26.368   6.547  48.619  1.00  0.00     0.136 A 
HETATM   17  C10 UNL     1      26.675   5.227  48.860  1.00  0.00     0.029 A 
HETATM   18 BR2  UNL     1      25.449   3.894  49.408  1.00  0.00    -0.050 Br
HETATM   19  C11 UNL     1      28.021   4.956  48.654  1.00  0.00     0.040 A 
HETATM   20  C12 UNL     1      28.932   5.886  48.260  1.00  0.00     0.061 A 
HETATM   21  H1  UNL     1      30.677   5.017  46.500  1.00  0.00     0.199 HD
ENDROOT
TORSDOF 0
ENDMDL
MODEL 2
REMARK VINA RESULT:      -7.2      4.757      7.765
REMARK  0 active torsions:
REMARK  status: ('A' for Active; 'I' for Inactive)
ROOT
HETATM    1  O1  UNL     1      26.048   2.965  49.231  1.00  0.00    -0.265 OA
HETATM    2  C1  UNL     1      26.130   3.859  50.089  1.00  0.00     0.278 C 
HETATM    3  N1  UNL     1      25.868   3.247  51.311  1.00  0.00    -0.215 N 
HETATM    4  O2  UNL     1      25.617   2.652  52.476  1.00  0.00    -0.171 OA
HETATM    5  S1  UNL     1      25.096   1.040  52.251  1.00  0.00     0.180 S 
HETATM    6  O3  UNL     1      25.240   0.385  53.611  1.00  0.00    -0.226 OA
HETATM    7  C2  UNL     1      23.310   1.178  51.900  1.00  0.00     0.168 C 
HETATM    8  C3  UNL     1      23.133   1.998  50.676  1.00  0.00    -0.012 C 
HETATM    9  C4  UNL     1      22.868   2.517  49.521  1.00  0.00    -0.003 C 
HETATM   10  C5  UNL     1      22.884   3.582  48.545  1.00  0.00    -0.003 C 
HETATM   11  C6  UNL     1      23.357   4.807  48.550  1.00  0.00    -0.005 C 
HETATM   12  C7  UNL     1      24.047   5.968  49.162  1.00  0.00     0.133 C 
HETATM   13 BR1  UNL     1      23.754   5.994  51.082  1.00  0.00    -0.080 Br
HETATM   14  C8  UNL     1      25.508   5.917  48.904  1.00  0.00     0.068 A 
HETATM   15  N2  UNL     1      25.998   6.933  48.157  1.00  0.00    -0.262 NA
HETATM   16  C9  UNL     1      27.286   7.056  47.800  1.00  0.00     0.136 A 
HETATM   17  C10 UNL     1      28.261   6.152  48.157  1.00  0.00     0.029 A 
HETATM   18 BR2  UNL     1      30.091   6.264  47.688  1.00  0.00    -0.050 Br
HETATM   19  C11 UNL     1      27.756   5.111  48.923  1.00  0.00     0.040 A 
HETATM   20  C12 UNL     1      26.448   4.996  49.282  1.00  0.00     0.061 A 
HETATM   21  H1  UNL     1      26.067   4.163  51.743  1.00  0.00     0.199 HD
ENDROOT
TORSDOF 0
ENDMDL
MODEL 3
REMARK VINA RESULT:      -7.1      5.825      8.824
REMARK  0 active torsions:
REMARK  status: ('A' for Active; 'I' for Inactive)
ROOT
HETATM    1  O1  UNL     1      25.581   1.748  50.638  1.00  0.00    -0.265 OA
HETATM    2  C1  UNL     1      25.645   2.721  51.407  1.00  0.00     0.278 C 
HETATM    3  N1  UNL     1      25.703   2.194  52.694  1.00  0.00    -0.215 N 
HETATM    4  O2  UNL     1      25.758   1.679  53.921  1.00  0.00    -0.171 OA
HETATM    5  S1  UNL     1      25.502  -0.010  53.900  1.00  0.00     0.180 S 
HETATM    6  O3  UNL     1      25.983  -0.500  55.251  1.00  0.00    -0.226 OA
HETATM    7  C2  UNL     1      23.686  -0.199  53.868  1.00  0.00     0.168 C 
HETATM    8  C3  UNL     1      23.166   0.461  52.645  1.00  0.00    -0.012 C 
HETATM    9  C4  UNL     1      22.625   0.817  51.525  1.00  0.00    -0.003 C 
HETATM   10  C5  UNL     1      22.290   1.772  50.495  1.00  0.00    -0.003 C 
HETATM   11  C6  UNL     1      22.531   3.053  50.335  1.00  0.00    -0.005 C 
HETATM   12  C7  UNL     1      23.096   4.364  50.735  1.00  0.00     0.133 C 
HETATM   13 BR1  UNL     1      23.127   4.524  52.671  1.00  0.00    -0.080 Br
HETATM   14  C8  UNL     1      24.480   4.528  50.223  1.00  0.00     0.068 A 
HETATM   15  N2  UNL     1      24.651   5.534  49.335  1.00  0.00    -0.262 NA
HETATM   16  C9  UNL     1      25.819   5.832  48.744  1.00  0.00     0.136 A 
HETATM   17  C10 UNL     1      26.985   5.137  48.978  1.00  0.00     0.029 A 
HETATM   18 BR2  UNL     1      28.661   5.501  48.181  1.00  0.00    -0.050 Br
HETATM   19  C11 UNL     1      26.806   4.105  49.889  1.00  0.00     0.040 A 
HETATM   20  C12 UNL     1      25.618   3.813  50.484  1.00  0.00     0.061 A 
HETATM   21  H1  UNL     1      25.805   3.167  53.022  1.00  0.00     0.199 HD
ENDROOT
TORSDOF 0
ENDMDL
MODEL 4
REMARK VINA RESULT:      -7.0      8.084     10.230
REMARK  0 active torsions:
REMARK  status: ('A' for Active; 'I' for Inactive)
ROOT
HETATM    1  O1  UNL     1      22.338   1.879  50.450  1.00  0.00    -0.265 OA
HETATM    2  C1  UNL     1      22.663   2.551  51.442  1.00  0.00     0.278 C 
HETATM    3  N1  UNL     1      21.488   3.113  51.932  1.00  0.00    -0.215 N 
HETATM    4  O2  UNL     1      20.358   3.645  52.393  1.00  0.00    -0.171 OA
HETATM    5  S1  UNL     1      19.054   3.359  51.326  1.00  0.00     0.180 S 
HETATM    6  O3  UNL     1      17.808   3.646  52.140  1.00  0.00    -0.226 OA
HETATM    7  C2  UNL     1      19.195   4.671  50.065  1.00  0.00     0.168 C 
HETATM    8  C3  UNL     1      20.510   4.536  49.390  1.00  0.00    -0.012 C 
HETATM    9  C4  UNL     1      21.525   4.392  48.600  1.00  0.00    -0.003 C 
HETATM   10  C5  UNL     1      22.936   4.311  48.308  1.00  0.00    -0.003 C 
HETATM   11  C6  UNL     1      24.019   4.389  49.046  1.00  0.00    -0.005 C 
HETATM   12  C7  UNL     1      24.754   4.557  50.322  1.00  0.00     0.133 C 
HETATM   13 BR1  UNL     1      23.760   5.710  51.529  1.00  0.00    -0.080 Br
HETATM   14  C8  UNL     1      24.974   3.249  50.989  1.00  0.00     0.068 A 
HETATM   15  N2  UNL     1      26.267   2.879  51.123  1.00  0.00    -0.262 NA
HETATM   16  C9  UNL     1      26.671   1.726  51.680  1.00  0.00     0.136 A 
HETATM   17  C10 UNL     1      25.803   0.781  52.180  1.00  0.00     0.029 A 
HETATM   18 BR2  UNL     1      26.303  -0.861  52.975  1.00  0.00    -0.050 Br
HETATM   19  C11 UNL     1      24.476   1.163  52.041  1.00  0.00     0.040 A 
HETATM   20  C12 UNL     1      24.077   2.336  51.476  1.00  0.00     0.061 A 
HETATM   21  H1  UNL     1      22.064   3.498  52.698  1.00  0.00     0.199 HD
ENDROOT
TORSDOF 0
ENDMDL
MODEL 5
REMARK VINA RESULT:      -6.9      2.761      3.517
REMARK  0 active torsions:
REMARK  status: ('A' for Active; 'I' for Inactive)
ROOT
HETATM    1  O1  UNL     1      32.113   6.038  49.255  1.00  0.00    -0.265 OA
HETATM    2  C1  UNL     1      31.700   6.281  48.110  1.00  0.00     0.278 C 
HETATM    3  N1  UNL     1      31.863   5.106  47.382  1.00  0.00    -0.215 N 
HETATM    4  O2  UNL     1      32.022   3.977  46.694  1.00  0.00    -0.171 OA
HETATM    5  S1  UNL     1      32.894   2.817  47.597  1.00  0.00     0.180 S 
HETATM    6  O3  UNL     1      32.651   1.500  46.886  1.00  0.00    -0.226 OA
HETATM    7  C2  UNL     1      34.647   3.258  47.341  1.00  0.00     0.168 C 
HETATM    8  C3  UNL     1      34.864   4.636  47.845  1.00  0.00    -0.012 C 
HETATM    9  C4  UNL     1      35.216   5.735  48.431  1.00  0.00    -0.003 C 
HETATM   10  C5  UNL     1      35.153   7.160  48.656  1.00  0.00    -0.003 C 
HETATM   11  C6  UNL     1      34.446   8.129  48.124  1.00  0.00    -0.005 C 
HETATM   12  C7  UNL     1      33.436   8.688  47.194  1.00  0.00     0.133 C 
HETATM   13 BR1  UNL     1      33.375   7.645  45.556  1.00  0.00    -0.080 Br
HETATM   14  C8  UNL     1      32.085   8.687  47.809  1.00  0.00     0.068 A 
HETATM   15  N2  UNL     1      31.536   9.908  47.998  1.00  0.00    -0.262 NA
HETATM   16  C9  UNL     1      30.333  10.119  48.556  1.00  0.00     0.136 A 
HETATM   17  C10 UNL     1      29.517   9.104  49.003  1.00  0.00     0.029 A 
HETATM   18 BR2  UNL     1      27.815   9.330  49.798  1.00  0.00    -0.050 Br
HETATM   19  C11 UNL     1      30.083   7.852  48.807  1.00  0.00     0.040 A 
HETATM   20  C12 UNL     1      31.302   7.649  48.238  1.00  0.00     0.061 A 
HETATM   21  H1  UNL     1      31.408   5.601  46.599  1.00  0.00     0.199 HD
ENDROOT
TORSDOF 0
ENDMDL
MODEL 6
REMARK VINA RESULT:      -6.8      8.664     10.198
REMARK  0 active torsions:
REMARK  status: ('A' for Active; 'I' for Inactive)
ROOT
HETATM    1  O1  UNL     1      23.626   3.667  52.256  1.00  0.00    -0.265 OA
HETATM    2  C1  UNL     1      23.792   2.769  51.415  1.00  0.00     0.278 C 
HETATM    3  N1  UNL     1      23.789   3.395  50.172  1.00  0.00    -0.215 N 
HETATM    4  O2  UNL     1      23.785   4.006  48.989  1.00  0.00    -0.171 OA
HETATM    5  S1  UNL     1      23.347   5.651  49.138  1.00  0.00     0.180 S 
HETATM    6  O3  UNL     1      23.769   6.291  47.830  1.00  0.00    -0.226 OA
HETATM    7  C2  UNL     1      21.522   5.640  49.174  1.00  0.00     0.168 C 
HETATM    8  C3  UNL     1      21.079   4.836  50.340  1.00  0.00    -0.012 C 
HETATM    9  C4  UNL     1      20.583   4.339  51.427  1.00  0.00    -0.003 C 
HETATM   10  C5  UNL     1      20.356   3.278  52.379  1.00  0.00    -0.003 C 
HETATM   11  C6  UNL     1      20.735   2.023  52.442  1.00  0.00    -0.005 C 
HETATM   12  C7  UNL     1      21.437   0.815  51.947  1.00  0.00     0.133 C 
HETATM   13 BR1  UNL     1      21.479   0.806  50.005  1.00  0.00    -0.080 Br
HETATM   14  C8  UNL     1      22.832   0.761  52.453  1.00  0.00     0.068 A 
HETATM   15  N2  UNL     1      23.113  -0.285  53.262  1.00  0.00    -0.262 NA
HETATM   16  C9  UNL     1      24.308  -0.499  53.835  1.00  0.00     0.136 A 
HETATM   17  C10 UNL     1      25.391   0.333  53.661  1.00  0.00     0.029 A 
HETATM   18 BR2  UNL     1      27.100   0.092  54.436  1.00  0.00    -0.050 Br
HETATM   19  C11 UNL     1      25.100   1.406  52.830  1.00  0.00     0.040 A 
HETATM   20  C12 UNL     1      23.885   1.613  52.252  1.00  0.00     0.061 A 
HETATM   21  H1  UNL     1      23.994   2.467  49.772  1.00  0.00     0.199 HD
ENDROOT
TORSDOF 0
ENDMDL
MODEL 7
REMARK VINA RESULT:      -6.8     10.204     12.170
REMARK  0 active torsions:
REMARK  status: ('A' for Active; 'I' for Inactive)
ROOT
HETATM    1  O1  UNL     1      20.091   0.753  51.455  1.00  0.00    -0.265 OA
HETATM    2  C1  UNL     1      20.606   1.693  52.081  1.00  0.00     0.278 C 
HETATM    3  N1  UNL     1      19.645   2.699  52.128  1.00  0.00    -0.215 N 
HETATM    4  O2  UNL     1      18.717   3.654  52.168  1.00  0.00    -0.171 OA
HETATM    5  S1  UNL     1      17.375   3.260  51.188  1.00  0.00     0.180 S 
HETATM    6  O3  UNL     1      16.270   4.197  51.635  1.00  0.00    -0.226 OA
HETATM    7  C2  UNL     1      17.869   3.765  49.505  1.00  0.00     0.168 C 
HETATM    8  C3  UNL     1      19.083   3.004  49.122  1.00  0.00    -0.012 C 
HETATM    9  C4  UNL     1      20.007   2.258  48.605  1.00  0.00    -0.003 C 
HETATM   10  C5  UNL     1      21.334   1.692  48.551  1.00  0.00    -0.003 C 
HETATM   11  C6  UNL     1      22.402   1.816  49.304  1.00  0.00    -0.005 C 
HETATM   12  C7  UNL     1      23.168   2.352  50.454  1.00  0.00     0.133 C 
HETATM   13 BR1  UNL     1      22.557   4.141  50.900  1.00  0.00    -0.080 Br
HETATM   14  C8  UNL     1      23.014   1.485  51.650  1.00  0.00     0.068 A 
HETATM   15  N2  UNL     1      24.150   0.898  52.088  1.00  0.00    -0.262 NA
HETATM   16  C9  UNL     1      24.215   0.066  53.139  1.00  0.00     0.136 A 
HETATM   17  C10 UNL     1      23.120  -0.287  53.896  1.00  0.00     0.029 A 
HETATM   18 BR2  UNL     1      23.140  -1.452  55.386  1.00  0.00    -0.050 Br
HETATM   19  C11 UNL     1      21.955   0.317  53.443  1.00  0.00     0.040 A 
HETATM   20  C12 UNL     1      21.900   1.161  52.377  1.00  0.00     0.061 A 
HETATM   21  H1  UNL     1      20.314   3.228  52.709  1.00  0.00     0.199 HD
ENDROOT
TORSDOF 0
ENDMDL
MODEL 8
REMARK VINA RESULT:      -6.5      6.592      9.209
REMARK  0 active torsions:
REMARK  status: ('A' for Active; 'I' for Inactive)
ROOT
HETATM    1  O1  UNL     1      24.138   3.359  52.263  1.00  0.00    -0.265 OA
HETATM    2  C1  UNL     1      24.165   2.415  51.458  1.00  0.00     0.278 C 
HETATM    3  N1  UNL     1      24.933   2.846  50.380  1.00  0.00    -0.215 N 
HETATM    4  O2  UNL     1      25.670   3.269  49.354  1.00  0.00    -0.171 OA
HETATM    5  S1  UNL     1      26.045   4.930  49.501  1.00  0.00     0.180 S 
HETATM    6  O3  UNL     1      27.182   5.164  48.526  1.00  0.00    -0.226 OA
HETATM    7  C2  UNL     1      24.577   5.793  48.843  1.00  0.00     0.168 C 
HETATM    8  C3  UNL     1      23.401   5.412  49.663  1.00  0.00    -0.012 C 
HETATM    9  C4  UNL     1      22.358   5.317  50.423  1.00  0.00    -0.003 C 
HETATM   10  C5  UNL     1      21.311   4.588  51.100  1.00  0.00    -0.003 C 
HETATM   11  C6  UNL     1      20.993   3.316  51.168  1.00  0.00    -0.005 C 
HETATM   12  C7  UNL     1      21.166   1.879  50.849  1.00  0.00     0.133 C 
HETATM   13 BR1  UNL     1      21.936   1.667  49.077  1.00  0.00    -0.080 Br
HETATM   14  C8  UNL     1      22.056   1.216  51.835  1.00  0.00     0.068 A 
HETATM   15  N2  UNL     1      21.475   0.244  52.575  1.00  0.00    -0.262 NA
HETATM   16  C9  UNL     1      22.104  -0.459  53.530  1.00  0.00     0.136 A 
HETATM   17  C10 UNL     1      23.424  -0.264  53.868  1.00  0.00     0.029 A 
HETATM   18 BR2  UNL     1      24.371  -1.215  55.202  1.00  0.00    -0.050 Br
HETATM   19  C11 UNL     1      24.018   0.734  53.108  1.00  0.00     0.040 A 
HETATM   20  C12 UNL     1      23.372   1.439  52.140  1.00  0.00     0.061 A 
HETATM   21  H1  UNL     1      24.808   1.899  49.990  1.00  0.00     0.199 HD
ENDROOT
TORSDOF 0
ENDMDL
MODEL 9
REMARK VINA RESULT:      -6.3      8.385     10.176
REMARK  0 active torsions:
REMARK  status: ('A' for Active; 'I' for Inactive)
ROOT
HETATM    1  O1  UNL     1      23.337   3.967  50.058  1.00  0.00    -0.265 OA
HETATM    2  C1  UNL     1      23.319   2.739  49.876  1.00  0.00     0.278 C 
HETATM    3  N1  UNL     1      22.887   2.548  48.566  1.00  0.00    -0.215 N 
HETATM    4  O2  UNL     1      22.474   2.376  47.312  1.00  0.00    -0.171 OA
HETATM    5  S1  UNL     1      21.963   3.852  46.618  1.00  0.00     0.180 S 
HETATM    6  O3  UNL     1      21.914   3.590  45.125  1.00  0.00    -0.226 OA
HETATM    7  C2  UNL     1      20.241   4.056  47.190  1.00  0.00     0.168 C 
HETATM    8  C3  UNL     1      20.241   4.107  48.673  1.00  0.00    -0.012 C 
HETATM    9  C4  UNL     1      20.140   4.369  49.936  1.00  0.00    -0.003 C 
HETATM   10  C5  UNL     1      20.303   4.065  51.338  1.00  0.00    -0.003 C 
HETATM   11  C6  UNL     1      20.789   3.034  51.990  1.00  0.00    -0.005 C 
HETATM   12  C7  UNL     1      21.410   1.692  52.091  1.00  0.00     0.133 C 
HETATM   13 BR1  UNL     1      20.866   0.581  50.594  1.00  0.00    -0.080 Br
HETATM   14  C8  UNL     1      22.892   1.788  52.098  1.00  0.00     0.068 A 
HETATM   15  N2  UNL     1      23.492   1.361  53.232  1.00  0.00    -0.262 NA
HETATM   16  C9  UNL     1      24.819   1.384  53.441  1.00  0.00     0.136 A 
HETATM   17  C10 UNL     1      25.724   1.851  52.514  1.00  0.00     0.029 A 
HETATM   18 BR2  UNL     1      27.600   1.913  52.743  1.00  0.00    -0.050 Br
HETATM   19  C11 UNL     1      25.104   2.288  51.352  1.00  0.00     0.040 A 
HETATM   20  C12 UNL     1      23.759   2.259  51.149  1.00  0.00     0.061 A 
HETATM   21  H1  UNL     1      23.041   1.540  48.727  1.00  0.00     0.199 HD
ENDROOT
TORSDOF 0
ENDMDL
