MODEL 1
REMARK VINA RESULT:      -8.8      0.000      0.000
REMARK  9 active torsions:
REMARK  status: ('A' for Active; 'I' for Inactive)
REMARK    1  A    between atoms: N1_1  and  C1_2 
REMARK    2  A    between atoms: C1_2  and  C2_3 
REMARK    3  A    between atoms: C2_3  and  C3_4 
REMARK    4  A    between atoms: C18_20  and  C19_21 
REMARK    5  A    between atoms: C19_21  and  O1_22 
REMARK    6  A    between atoms: O1_22  and  C20_23 
REMARK    7  A    between atoms: C20_23  and  C21_24 
REMARK    8  A    between atoms: C21_24  and  C22_25 
REMARK    9  A    between atoms: C25_28  and  O2_29 
ROOT
HETATM    1  C3  UNL     1      22.490   0.949  52.163  1.00  0.00    -0.041 C 
HETATM    2  C4  UNL     1      23.105   2.114  52.549  1.00  0.00     0.093 C 
HETATM    3  N2  UNL     1      22.884   3.384  51.860  1.00  0.00    -0.382 N 
HETATM    4  C5  UNL     1      21.953   4.495  52.292  1.00  0.00     0.138 C 
HETATM    5  C6  UNL     1      20.662   4.100  51.588  1.00  0.00     0.018 A 
HETATM    6  C7  UNL     1      20.267   3.052  52.355  1.00  0.00     0.040 A 
HETATM    7  C8  UNL     1      19.307   2.142  52.012  1.00  0.00    -0.028 A 
HETATM    8  C9  UNL     1      19.408   3.023  50.993  1.00  0.00     0.014 A 
HETATM    9  C10 UNL     1      19.512   3.903  49.986  1.00  0.00    -0.012 A 
HETATM   10  C11 UNL     1      20.486   4.767  50.417  1.00  0.00    -0.016 A 
HETATM   11  C12 UNL     1      18.780   2.084  49.999  1.00  0.00    -0.009 C 
HETATM   12  C13 UNL     1      19.840   1.337  49.568  1.00  0.00     0.004 C 
HETATM   13  C14 UNL     1      21.313   1.261  49.885  1.00  0.00    -0.058 C 
HETATM   14  C15 UNL     1      21.812   0.486  50.900  1.00  0.00     0.015 C 
HETATM   15  C16 UNL     1      22.264   2.076  49.031  1.00  0.00     0.041 C 
HETATM   16  C17 UNL     1      23.546   2.432  49.670  1.00  0.00     0.032 C 
HETATM   17  C18 UNL     1      23.581   3.617  50.573  1.00  0.00     0.107 C 
ENDROOT
BRANCH  17  18
HETATM   18  C19 UNL     1      25.057   3.788  50.986  1.00  0.00     0.192 C 
BRANCH  18  19
HETATM   19  O1  UNL     1      25.759   2.631  50.740  1.00  0.00    -0.389 OA
BRANCH  19  20
HETATM   20  C20 UNL     1      26.903   2.437  51.458  1.00  0.00     0.172 C 
BRANCH  20  21
HETATM   21  C21 UNL     1      26.588   1.871  52.814  1.00  0.00     0.064 C 
BRANCH  21  22
HETATM   22  C22 UNL     1      27.025   0.437  52.849  1.00  0.00    -0.056 A 
HETATM   23  C23 UNL     1      26.244  -0.630  52.480  1.00  0.00     0.010 A 
HETATM   24  C24 UNL     1      26.762  -1.891  52.557  1.00  0.00     0.037 A 
HETATM   25  C25 UNL     1      28.046  -2.188  52.990  1.00  0.00     0.065 A 
HETATM   26  C26 UNL     1      28.815  -1.080  53.358  1.00  0.00     0.037 A 
HETATM   27  C27 UNL     1      28.328   0.201  53.293  1.00  0.00     0.010 A 
BRANCH  25  28
HETATM   28  O2  UNL     1      28.534  -3.487  53.053  1.00  0.00    -0.361 OA
HETATM   29  H30 UNL     1      28.251  -4.030  53.846  1.00  0.00     0.217 HD
ENDBRANCH  25  28
ENDBRANCH  21  22
ENDBRANCH  20  21
ENDBRANCH  19  20
ENDBRANCH  18  19
ENDBRANCH  17  18
BRANCH   1  30
HETATM   30  C2  UNL     1      22.487  -0.075  53.199  1.00  0.00     0.069 C 
BRANCH  30  31
HETATM   31  C1  UNL     1      21.434   0.031  54.257  1.00  0.00     0.271 C 
BRANCH  31  32
HETATM   32  N1  UNL     1      20.801  -1.182  54.642  1.00  0.00     0.078 N 
HETATM   33  H1  UNL     1      21.297  -1.612  55.458  1.00  0.00     0.312 HD
HETATM   34  H2  UNL     1      20.669  -1.877  53.872  1.00  0.00     0.312 HD
ENDBRANCH  31  32
ENDBRANCH  30  31
ENDBRANCH   1  30
TORSDOF 9
ENDMDL
MODEL 2
REMARK VINA RESULT:      -8.1      2.649      5.020
REMARK  9 active torsions:
REMARK  status: ('A' for Active; 'I' for Inactive)
REMARK    1  A    between atoms: N1_1  and  C1_2 
REMARK    2  A    between atoms: C1_2  and  C2_3 
REMARK    3  A    between atoms: C2_3  and  C3_4 
REMARK    4  A    between atoms: C18_20  and  C19_21 
REMARK    5  A    between atoms: C19_21  and  O1_22 
REMARK    6  A    between atoms: O1_22  and  C20_23 
REMARK    7  A    between atoms: C20_23  and  C21_24 
REMARK    8  A    between atoms: C21_24  and  C22_25 
REMARK    9  A    between atoms: C25_28  and  O2_29 
ROOT
HETATM    1  C3  UNL     1      24.430   2.872  51.787  1.00  0.00    -0.041 C 
HETATM    2  C4  UNL     1      23.694   2.093  50.929  1.00  0.00     0.093 C 
HETATM    3  N2  UNL     1      22.699   2.652  50.018  1.00  0.00    -0.382 N 
HETATM    4  C5  UNL     1      22.888   2.951  48.547  1.00  0.00     0.138 C 
HETATM    5  C6  UNL     1      23.387   4.389  48.591  1.00  0.00     0.018 A 
HETATM    6  C7  UNL     1      24.657   4.202  49.033  1.00  0.00     0.040 A 
HETATM    7  C8  UNL     1      25.475   5.183  49.518  1.00  0.00    -0.028 A 
HETATM    8  C9  UNL     1      24.303   5.766  49.182  1.00  0.00     0.014 A 
HETATM    9  C10 UNL     1      23.138   6.338  48.846  1.00  0.00    -0.012 A 
HETATM   10  C11 UNL     1      22.392   5.289  48.374  1.00  0.00    -0.016 A 
HETATM   11  C12 UNL     1      24.544   6.964  50.061  1.00  0.00    -0.009 C 
HETATM   12  C13 UNL     1      24.086   6.550  51.279  1.00  0.00     0.004 C 
HETATM   13  C14 UNL     1      23.498   5.280  51.844  1.00  0.00    -0.058 C 
HETATM   14  C15 UNL     1      24.273   4.264  52.340  1.00  0.00     0.015 C 
HETATM   15  C16 UNL     1      21.989   5.144  51.858  1.00  0.00     0.041 C 
HETATM   16  C17 UNL     1      21.475   3.760  51.867  1.00  0.00     0.032 C 
HETATM   17  C18 UNL     1      21.377   3.035  50.568  1.00  0.00     0.107 C 
ENDROOT
BRANCH  17  18
HETATM   18  C19 UNL     1      20.714   1.680  50.892  1.00  0.00     0.192 C 
BRANCH  18  19
HETATM   19  O1  UNL     1      20.290   1.657  52.200  1.00  0.00    -0.389 OA
BRANCH  19  20
HETATM   20  C20 UNL     1      20.312   0.449  52.836  1.00  0.00     0.172 C 
BRANCH  20  21
HETATM   21  C21 UNL     1      21.440  -0.400  52.320  1.00  0.00     0.064 C 
BRANCH  21  22
HETATM   22  C22 UNL     1      22.352  -0.733  53.463  1.00  0.00    -0.056 A 
HETATM   23  C23 UNL     1      21.942  -1.231  54.675  1.00  0.00     0.010 A 
HETATM   24  C24 UNL     1      22.875  -1.494  55.636  1.00  0.00     0.037 A 
HETATM   25  C25 UNL     1      24.239  -1.294  55.482  1.00  0.00     0.065 A 
HETATM   26  C26 UNL     1      24.624  -0.786  54.238  1.00  0.00     0.037 A 
HETATM   27  C27 UNL     1      23.714  -0.510  53.249  1.00  0.00     0.010 A 
BRANCH  25  28
HETATM   28  O2  UNL     1      25.157  -1.575  56.487  1.00  0.00    -0.361 OA
HETATM   29  H30 UNL     1      24.800  -2.051  57.293  1.00  0.00     0.217 HD
ENDBRANCH  25  28
ENDBRANCH  21  22
ENDBRANCH  20  21
ENDBRANCH  19  20
ENDBRANCH  18  19
ENDBRANCH  17  18
BRANCH   1  30
HETATM   30  C2  UNL     1      25.635   2.216  52.276  1.00  0.00     0.069 C 
BRANCH  30  31
HETATM   31  C1  UNL     1      25.984   2.419  53.717  1.00  0.00     0.271 C 
BRANCH  31  32
HETATM   32  N1  UNL     1      27.358   2.635  54.010  1.00  0.00     0.078 N 
HETATM   33  H1  UNL     1      27.541   2.498  55.033  1.00  0.00     0.312 HD
HETATM   34  H2  UNL     1      27.744   3.547  53.677  1.00  0.00     0.312 HD
ENDBRANCH  31  32
ENDBRANCH  30  31
ENDBRANCH   1  30
TORSDOF 9
ENDMDL
MODEL 3
REMARK VINA RESULT:      -8.0      9.205     12.991
REMARK  9 active torsions:
REMARK  status: ('A' for Active; 'I' for Inactive)
REMARK    1  A    between atoms: N1_1  and  C1_2 
REMARK    2  A    between atoms: C1_2  and  C2_3 
REMARK    3  A    between atoms: C2_3  and  C3_4 
REMARK    4  A    between atoms: C18_20  and  C19_21 
REMARK    5  A    between atoms: C19_21  and  O1_22 
REMARK    6  A    between atoms: O1_22  and  C20_23 
REMARK    7  A    between atoms: C20_23  and  C21_24 
REMARK    8  A    between atoms: C21_24  and  C22_25 
REMARK    9  A    between atoms: C25_28  and  O2_29 
ROOT
HETATM    1  C3  UNL     1      31.846   6.436  48.014  1.00  0.00    -0.041 C 
HETATM    2  C4  UNL     1      31.700   6.912  46.734  1.00  0.00     0.093 C 
HETATM    3  N2  UNL     1      32.713   6.712  45.702  1.00  0.00    -0.382 N 
HETATM    4  C5  UNL     1      32.700   5.659  44.615  1.00  0.00     0.138 C 
HETATM    5  C6  UNL     1      33.432   4.511  45.297  1.00  0.00     0.018 A 
HETATM    6  C7  UNL     1      32.476   4.077  46.158  1.00  0.00     0.040 A 
HETATM    7  C8  UNL     1      32.689   3.238  47.214  1.00  0.00    -0.028 A 
HETATM    8  C9  UNL     1      33.880   3.427  46.605  1.00  0.00     0.014 A 
HETATM    9  C10 UNL     1      35.058   3.619  45.995  1.00  0.00    -0.012 A 
HETATM   10  C11 UNL     1      34.747   4.463  44.960  1.00  0.00    -0.016 A 
HETATM   11  C12 UNL     1      34.668   3.011  47.818  1.00  0.00    -0.009 C 
HETATM   12  C13 UNL     1      34.758   4.167  48.539  1.00  0.00     0.004 C 
HETATM   13  C14 UNL     1      34.254   5.582  48.390  1.00  0.00    -0.058 C 
HETATM   14  C15 UNL     1      33.020   5.978  48.838  1.00  0.00     0.015 C 
HETATM   15  C16 UNL     1      35.165   6.591  47.720  1.00  0.00     0.041 C 
HETATM   16  C17 UNL     1      34.487   7.742  47.093  1.00  0.00     0.032 C 
HETATM   17  C18 UNL     1      33.921   7.570  45.725  1.00  0.00     0.107 C 
ENDROOT
BRANCH  17  18
HETATM   18  C19 UNL     1      33.387   8.958  45.313  1.00  0.00     0.192 C 
BRANCH  18  19
HETATM   19  O1  UNL     1      33.786   9.911  46.220  1.00  0.00    -0.389 OA
BRANCH  19  20
HETATM   20  C20 UNL     1      32.924  10.943  46.452  1.00  0.00     0.172 C 
BRANCH  20  21
HETATM   21  C21 UNL     1      31.530  10.575  46.027  1.00  0.00     0.064 C 
BRANCH  21  22
HETATM   22  C22 UNL     1      30.724  10.253  47.250  1.00  0.00    -0.056 A 
HETATM   23  C23 UNL     1      31.189  10.334  48.539  1.00  0.00     0.010 A 
HETATM   24  C24 UNL     1      30.352  10.014  49.569  1.00  0.00     0.037 A 
HETATM   25  C25 UNL     1      29.035   9.604  49.413  1.00  0.00     0.065 A 
HETATM   26  C26 UNL     1      28.594   9.532  48.088  1.00  0.00     0.037 A 
HETATM   27  C27 UNL     1      29.407   9.846  47.029  1.00  0.00     0.010 A 
BRANCH  25  28
HETATM   28  O2  UNL     1      28.216   9.288  50.489  1.00  0.00    -0.361 OA
HETATM   29  H30 UNL     1      28.394   8.411  50.940  1.00  0.00     0.217 HD
ENDBRANCH  25  28
ENDBRANCH  21  22
ENDBRANCH  20  21
ENDBRANCH  19  20
ENDBRANCH  18  19
ENDBRANCH  17  18
BRANCH   1  30
HETATM   30  C2  UNL     1      30.589   6.349  48.746  1.00  0.00     0.069 C 
BRANCH  30  31
HETATM   31  C1  UNL     1      29.456   5.644  48.071  1.00  0.00     0.271 C 
BRANCH  31  32
HETATM   32  N1  UNL     1      28.253   5.519  48.819  1.00  0.00     0.078 N 
HETATM   33  H1  UNL     1      27.581   4.881  48.331  1.00  0.00     0.312 HD
HETATM   34  H2  UNL     1      27.795   6.423  49.076  1.00  0.00     0.312 HD
ENDBRANCH  31  32
ENDBRANCH  30  31
ENDBRANCH   1  30
TORSDOF 9
ENDMDL
MODEL 4
REMARK VINA RESULT:      -7.8      1.574      2.546
REMARK  9 active torsions:
REMARK  status: ('A' for Active; 'I' for Inactive)
REMARK    1  A    between atoms: N1_1  and  C1_2 
REMARK    2  A    between atoms: C1_2  and  C2_3 
REMARK    3  A    between atoms: C2_3  and  C3_4 
REMARK    4  A    between atoms: C18_20  and  C19_21 
REMARK    5  A    between atoms: C19_21  and  O1_22 
REMARK    6  A    between atoms: O1_22  and  C20_23 
REMARK    7  A    between atoms: C20_23  and  C21_24 
REMARK    8  A    between atoms: C21_24  and  C22_25 
REMARK    9  A    between atoms: C25_28  and  O2_29 
ROOT
HETATM    1  C3  UNL     1      20.819   2.603  51.219  1.00  0.00    -0.041 C 
HETATM    2  C4  UNL     1      21.392   3.480  52.105  1.00  0.00     0.093 C 
HETATM    3  N2  UNL     1      22.507   4.350  51.740  1.00  0.00    -0.382 N 
HETATM    4  C5  UNL     1      22.424   5.810  51.351  1.00  0.00     0.138 C 
HETATM    5  C6  UNL     1      22.245   5.713  49.842  1.00  0.00     0.018 A 
HETATM    6  C7  UNL     1      20.953   5.300  49.768  1.00  0.00     0.040 A 
HETATM    7  C8  UNL     1      20.353   4.788  48.653  1.00  0.00    -0.028 A 
HETATM    8  C9  UNL     1      21.631   5.079  48.323  1.00  0.00     0.014 A 
HETATM    9  C10 UNL     1      22.900   5.371  48.004  1.00  0.00    -0.012 A 
HETATM   10  C11 UNL     1      23.415   5.874  49.171  1.00  0.00    -0.016 A 
HETATM   11  C12 UNL     1      21.630   4.154  47.136  1.00  0.00    -0.009 C 
HETATM   12  C13 UNL     1      21.958   2.947  47.685  1.00  0.00     0.004 C 
HETATM   13  C14 UNL     1      22.244   2.427  49.072  1.00  0.00    -0.058 C 
HETATM   14  C15 UNL     1      21.257   1.988  49.916  1.00  0.00     0.015 C 
HETATM   15  C16 UNL     1      23.688   2.393  49.532  1.00  0.00     0.041 C 
HETATM   16  C17 UNL     1      23.893   2.435  50.992  1.00  0.00     0.032 C 
HETATM   17  C18 UNL     1      23.865   3.761  51.672  1.00  0.00     0.107 C 
ENDROOT
BRANCH  17  18
HETATM   18  C19 UNL     1      24.214   3.484  53.149  1.00  0.00     0.192 C 
BRANCH  18  19
HETATM   19  O1  UNL     1      24.805   2.249  53.277  1.00  0.00    -0.389 OA
BRANCH  19  20
HETATM   20  C20 UNL     1      26.077   2.220  53.771  1.00  0.00     0.172 C 
BRANCH  20  21
HETATM   21  C21 UNL     1      27.057   1.867  52.688  1.00  0.00     0.064 C 
BRANCH  21  22
HETATM   22  C22 UNL     1      27.405   0.413  52.811  1.00  0.00    -0.056 A 
HETATM   23  C23 UNL     1      26.616  -0.622  52.375  1.00  0.00     0.010 A 
HETATM   24  C24 UNL     1      27.048  -1.905  52.545  1.00  0.00     0.037 A 
HETATM   25  C25 UNL     1      28.252  -2.257  53.138  1.00  0.00     0.065 A 
HETATM   26  C26 UNL     1      29.032  -1.180  53.571  1.00  0.00     0.037 A 
HETATM   27  C27 UNL     1      28.629   0.122  53.417  1.00  0.00     0.010 A 
BRANCH  25  28
HETATM   28  O2  UNL     1      28.655  -3.577  53.292  1.00  0.00    -0.361 OA
HETATM   29  H30 UNL     1      27.983  -4.203  53.694  1.00  0.00     0.217 HD
ENDBRANCH  25  28
ENDBRANCH  21  22
ENDBRANCH  20  21
ENDBRANCH  19  20
ENDBRANCH  18  19
ENDBRANCH  17  18
BRANCH   1  30
HETATM   30  C2  UNL     1      19.489   2.162  51.618  1.00  0.00     0.069 C 
BRANCH  30  31
HETATM   31  C1  UNL     1      19.175   0.709  51.452  1.00  0.00     0.271 C 
BRANCH  31  32
HETATM   32  N1  UNL     1      19.351  -0.110  52.601  1.00  0.00     0.078 N 
HETATM   33  H1  UNL     1      18.664  -0.901  52.597  1.00  0.00     0.312 HD
HETATM   34  H2  UNL     1      19.336   0.397  53.514  1.00  0.00     0.312 HD
ENDBRANCH  31  32
ENDBRANCH  30  31
ENDBRANCH   1  30
TORSDOF 9
ENDMDL
MODEL 5
REMARK VINA RESULT:      -7.8      2.240      4.512
REMARK  9 active torsions:
REMARK  status: ('A' for Active; 'I' for Inactive)
REMARK    1  A    between atoms: N1_1  and  C1_2 
REMARK    2  A    between atoms: C1_2  and  C2_3 
REMARK    3  A    between atoms: C2_3  and  C3_4 
REMARK    4  A    between atoms: C18_20  and  C19_21 
REMARK    5  A    between atoms: C19_21  and  O1_22 
REMARK    6  A    between atoms: O1_22  and  C20_23 
REMARK    7  A    between atoms: C20_23  and  C21_24 
REMARK    8  A    between atoms: C21_24  and  C22_25 
REMARK    9  A    between atoms: C25_28  and  O2_29 
ROOT
HETATM    1  C3  UNL     1      23.260   6.189  51.038  1.00  0.00    -0.041 C 
HETATM    2  C4  UNL     1      24.170   5.175  51.208  1.00  0.00     0.093 C 
HETATM    3  N2  UNL     1      23.859   3.781  50.903  1.00  0.00    -0.382 N 
HETATM    4  C5  UNL     1      24.231   3.027  49.645  1.00  0.00     0.138 C 
HETATM    5  C6  UNL     1      23.022   3.299  48.760  1.00  0.00     0.018 A 
HETATM    6  C7  UNL     1      23.245   4.594  48.419  1.00  0.00     0.040 A 
HETATM    7  C8  UNL     1      22.324   5.430  47.856  1.00  0.00    -0.028 A 
HETATM    8  C9  UNL     1      21.722   4.235  48.040  1.00  0.00     0.014 A 
HETATM    9  C10 UNL     1      21.131   3.046  48.225  1.00  0.00    -0.012 A 
HETATM   10  C11 UNL     1      22.122   2.281  48.786  1.00  0.00    -0.016 A 
HETATM   11  C12 UNL     1      20.337   4.822  47.985  1.00  0.00    -0.009 C 
HETATM   12  C13 UNL     1      20.121   5.224  49.273  1.00  0.00     0.004 C 
HETATM   13  C14 UNL     1      20.913   5.225  50.557  1.00  0.00    -0.058 C 
HETATM   14  C15 UNL     1      21.762   6.245  50.901  1.00  0.00     0.015 C 
HETATM   15  C16 UNL     1      20.747   4.044  51.492  1.00  0.00     0.041 C 
HETATM   16  C17 UNL     1      21.882   3.786  52.399  1.00  0.00     0.032 C 
HETATM   17  C18 UNL     1      23.044   3.014  51.874  1.00  0.00     0.107 C 
ENDROOT
BRANCH  17  18
HETATM   18  C19 UNL     1      23.996   2.820  53.073  1.00  0.00     0.192 C 
BRANCH  18  19
HETATM   19  O1  UNL     1      24.786   1.711  52.881  1.00  0.00    -0.389 OA
BRANCH  19  20
HETATM   20  C20 UNL     1      24.153   0.504  52.821  1.00  0.00     0.172 C 
BRANCH  20  21
HETATM   21  C21 UNL     1      24.592  -0.380  53.955  1.00  0.00     0.064 C 
BRANCH  21  22
HETATM   22  C22 UNL     1      26.091  -0.442  53.965  1.00  0.00    -0.056 A 
HETATM   23  C23 UNL     1      26.894   0.144  54.911  1.00  0.00     0.010 A 
HETATM   24  C24 UNL     1      28.248   0.014  54.807  1.00  0.00     0.037 A 
HETATM   25  C25 UNL     1      28.895  -0.682  53.796  1.00  0.00     0.065 A 
HETATM   26  C26 UNL     1      28.050  -1.266  52.848  1.00  0.00     0.037 A 
HETATM   27  C27 UNL     1      26.684  -1.155  52.921  1.00  0.00     0.010 A 
BRANCH  25  28
HETATM   28  O2  UNL     1      30.278  -0.791  53.727  1.00  0.00    -0.361 OA
HETATM   29  H30 UNL     1      30.725  -1.265  54.488  1.00  0.00     0.217 HD
ENDBRANCH  25  28
ENDBRANCH  21  22
ENDBRANCH  20  21
ENDBRANCH  19  20
ENDBRANCH  18  19
ENDBRANCH  17  18
BRANCH   1  30
HETATM   30  C2  UNL     1      23.871   7.510  50.973  1.00  0.00     0.069 C 
BRANCH  30  31
HETATM   31  C1  UNL     1      25.094   7.653  50.122  1.00  0.00     0.271 C 
BRANCH  31  32
HETATM   32  N1  UNL     1      26.328   7.805  50.810  1.00  0.00     0.078 N 
HETATM   33  H1  UNL     1      27.116   7.413  50.241  1.00  0.00     0.312 HD
HETATM   34  H2  UNL     1      26.342   7.426  51.785  1.00  0.00     0.312 HD
ENDBRANCH  31  32
ENDBRANCH  30  31
ENDBRANCH   1  30
TORSDOF 9
ENDMDL
MODEL 6
REMARK VINA RESULT:      -7.7      2.411      4.793
REMARK  9 active torsions:
REMARK  status: ('A' for Active; 'I' for Inactive)
REMARK    1  A    between atoms: N1_1  and  C1_2 
REMARK    2  A    between atoms: C1_2  and  C2_3 
REMARK    3  A    between atoms: C2_3  and  C3_4 
REMARK    4  A    between atoms: C18_20  and  C19_21 
REMARK    5  A    between atoms: C19_21  and  O1_22 
REMARK    6  A    between atoms: O1_22  and  C20_23 
REMARK    7  A    between atoms: C20_23  and  C21_24 
REMARK    8  A    between atoms: C21_24  and  C22_25 
REMARK    9  A    between atoms: C25_28  and  O2_29 
ROOT
HETATM    1  C3  UNL     1      25.133   4.362  49.918  1.00  0.00    -0.041 C 
HETATM    2  C4  UNL     1      24.465   3.190  49.665  1.00  0.00     0.093 C 
HETATM    3  N2  UNL     1      23.020   3.057  49.832  1.00  0.00    -0.382 N 
HETATM    4  C5  UNL     1      21.975   3.130  48.740  1.00  0.00     0.138 C 
HETATM    5  C6  UNL     1      21.652   4.618  48.727  1.00  0.00     0.018 A 
HETATM    6  C7  UNL     1      22.763   5.112  48.123  1.00  0.00     0.040 A 
HETATM    7  C8  UNL     1      23.129   6.428  48.102  1.00  0.00    -0.028 A 
HETATM    8  C9  UNL     1      21.973   6.344  48.796  1.00  0.00     0.014 A 
HETATM    9  C10 UNL     1      20.825   6.253  49.482  1.00  0.00    -0.012 A 
HETATM   10  C11 UNL     1      20.538   4.912  49.447  1.00  0.00    -0.016 A 
HETATM   11  C12 UNL     1      22.189   7.661  49.491  1.00  0.00    -0.009 C 
HETATM   12  C13 UNL     1      22.957   7.320  50.568  1.00  0.00     0.004 C 
HETATM   13  C14 UNL     1      23.577   6.051  51.100  1.00  0.00    -0.058 C 
HETATM   14  C15 UNL     1      24.812   5.608  50.701  1.00  0.00     0.015 C 
HETATM   15  C16 UNL     1      22.790   5.252  52.119  1.00  0.00     0.041 C 
HETATM   16  C17 UNL     1      23.116   3.814  52.190  1.00  0.00     0.032 C 
HETATM   17  C18 UNL     1      22.482   2.896  51.203  1.00  0.00     0.107 C 
ENDROOT
BRANCH  17  18
HETATM   18  C19 UNL     1      22.929   1.474  51.602  1.00  0.00     0.192 C 
BRANCH  18  19
HETATM   19  O1  UNL     1      23.475   1.483  52.864  1.00  0.00    -0.389 OA
BRANCH  19  20
HETATM   20  C20 UNL     1      24.539   0.657  53.084  1.00  0.00     0.172 C 
BRANCH  20  21
HETATM   21  C21 UNL     1      25.612   0.891  52.057  1.00  0.00     0.064 C 
BRANCH  21  22
HETATM   22  C22 UNL     1      26.913   0.375  52.595  1.00  0.00    -0.056 A 
HETATM   23  C23 UNL     1      27.925   1.161  53.088  1.00  0.00     0.010 A 
HETATM   24  C24 UNL     1      29.063   0.567  53.551  1.00  0.00     0.037 A 
HETATM   25  C25 UNL     1      29.285  -0.803  53.563  1.00  0.00     0.065 A 
HETATM   26  C26 UNL     1      28.236  -1.575  53.054  1.00  0.00     0.037 A 
HETATM   27  C27 UNL     1      27.078  -1.011  52.581  1.00  0.00     0.010 A 
BRANCH  25  28
HETATM   28  O2  UNL     1      30.459  -1.368  54.044  1.00  0.00    -0.361 OA
HETATM   29  H30 UNL     1      30.884  -2.068  53.467  1.00  0.00     0.217 HD
ENDBRANCH  25  28
ENDBRANCH  21  22
ENDBRANCH  20  21
ENDBRANCH  19  20
ENDBRANCH  18  19
ENDBRANCH  17  18
BRANCH   1  30
HETATM   30  C2  UNL     1      26.448   4.426  49.294  1.00  0.00     0.069 C 
BRANCH  30  31
HETATM   31  C1  UNL     1      26.862   5.742  48.714  1.00  0.00     0.271 C 
BRANCH  31  32
HETATM   32  N1  UNL     1      28.232   6.092  48.858  1.00  0.00     0.078 N 
HETATM   33  H1  UNL     1      28.351   7.132  48.816  1.00  0.00     0.312 HD
HETATM   34  H2  UNL     1      28.885   5.611  48.198  1.00  0.00     0.312 HD
ENDBRANCH  31  32
ENDBRANCH  30  31
ENDBRANCH   1  30
TORSDOF 9
ENDMDL
MODEL 7
REMARK VINA RESULT:      -7.7      2.638      5.457
REMARK  9 active torsions:
REMARK  status: ('A' for Active; 'I' for Inactive)
REMARK    1  A    between atoms: N1_1  and  C1_2 
REMARK    2  A    between atoms: C1_2  and  C2_3 
REMARK    3  A    between atoms: C2_3  and  C3_4 
REMARK    4  A    between atoms: C18_20  and  C19_21 
REMARK    5  A    between atoms: C19_21  and  O1_22 
REMARK    6  A    between atoms: O1_22  and  C20_23 
REMARK    7  A    between atoms: C20_23  and  C21_24 
REMARK    8  A    between atoms: C21_24  and  C22_25 
REMARK    9  A    between atoms: C25_28  and  O2_29 
ROOT
HETATM    1  C3  UNL     1      23.515   6.218  51.008  1.00  0.00    -0.041 C 
HETATM    2  C4  UNL     1      24.556   5.322  51.013  1.00  0.00     0.093 C 
HETATM    3  N2  UNL     1      24.365   3.895  50.766  1.00  0.00    -0.382 N 
HETATM    4  C5  UNL     1      24.597   3.165  49.461  1.00  0.00     0.138 C 
HETATM    5  C6  UNL     1      23.227   3.275  48.805  1.00  0.00     0.018 A 
HETATM    6  C7  UNL     1      23.230   4.580  48.432  1.00  0.00     0.040 A 
HETATM    7  C8  UNL     1      22.130   5.290  48.042  1.00  0.00    -0.028 A 
HETATM    8  C9  UNL     1      21.717   4.036  48.329  1.00  0.00     0.014 A 
HETATM    9  C10 UNL     1      21.316   2.789  48.614  1.00  0.00    -0.012 A 
HETATM   10  C11 UNL     1      22.475   2.158  48.989  1.00  0.00    -0.016 A 
HETATM   11  C12 UNL     1      20.284   4.453  48.521  1.00  0.00    -0.009 C 
HETATM   12  C13 UNL     1      20.252   4.852  49.828  1.00  0.00     0.004 C 
HETATM   13  C14 UNL     1      21.253   4.973  50.951  1.00  0.00    -0.058 C 
HETATM   14  C15 UNL     1      22.020   6.093  51.140  1.00  0.00     0.015 C 
HETATM   15  C16 UNL     1      21.397   3.799  51.899  1.00  0.00     0.041 C 
HETATM   16  C17 UNL     1      22.698   3.696  52.589  1.00  0.00     0.032 C 
HETATM   17  C18 UNL     1      23.833   3.056  51.865  1.00  0.00     0.107 C 
ENDROOT
BRANCH  17  18
HETATM   18  C19 UNL     1      24.998   3.001  52.875  1.00  0.00     0.192 C 
BRANCH  18  19
HETATM   19  O1  UNL     1      25.598   1.764  52.844  1.00  0.00    -0.389 OA
BRANCH  19  20
HETATM   20  C20 UNL     1      25.162   0.841  53.750  1.00  0.00     0.172 C 
BRANCH  20  21
HETATM   21  C21 UNL     1      24.656  -0.389  53.050  1.00  0.00     0.064 C 
BRANCH  21  22
HETATM   22  C22 UNL     1      23.194  -0.544  53.346  1.00  0.00    -0.056 A 
HETATM   23  C23 UNL     1      22.680  -1.152  54.465  1.00  0.00     0.010 A 
HETATM   24  C24 UNL     1      21.326  -1.227  54.617  1.00  0.00     0.037 A 
HETATM   25  C25 UNL     1      20.404  -0.726  53.710  1.00  0.00     0.065 A 
HETATM   26  C26 UNL     1      20.959  -0.114  52.583  1.00  0.00     0.037 A 
HETATM   27  C27 UNL     1      22.315  -0.020  52.396  1.00  0.00     0.010 A 
BRANCH  25  28
HETATM   28  O2  UNL     1      19.031  -0.824  53.904  1.00  0.00    -0.361 OA
HETATM   29  H30 UNL     1      18.505  -1.227  53.153  1.00  0.00     0.217 HD
ENDBRANCH  25  28
ENDBRANCH  21  22
ENDBRANCH  20  21
ENDBRANCH  19  20
ENDBRANCH  18  19
ENDBRANCH  17  18
BRANCH   1  30
HETATM   30  C2  UNL     1      23.942   7.600  50.838  1.00  0.00     0.069 C 
BRANCH  30  31
HETATM   31  C1  UNL     1      25.200   7.833  50.061  1.00  0.00     0.271 C 
BRANCH  31  32
HETATM   32  N1  UNL     1      26.188   8.640  50.687  1.00  0.00     0.078 N 
HETATM   33  H1  UNL     1      27.096   8.578  50.167  1.00  0.00     0.312 HD
HETATM   34  H2  UNL     1      26.326   8.460  51.708  1.00  0.00     0.312 HD
ENDBRANCH  31  32
ENDBRANCH  30  31
ENDBRANCH   1  30
TORSDOF 9
ENDMDL
MODEL 8
REMARK VINA RESULT:      -7.6      2.310      4.633
REMARK  9 active torsions:
REMARK  status: ('A' for Active; 'I' for Inactive)
REMARK    1  A    between atoms: N1_1  and  C1_2 
REMARK    2  A    between atoms: C1_2  and  C2_3 
REMARK    3  A    between atoms: C2_3  and  C3_4 
REMARK    4  A    between atoms: C18_20  and  C19_21 
REMARK    5  A    between atoms: C19_21  and  O1_22 
REMARK    6  A    between atoms: O1_22  and  C20_23 
REMARK    7  A    between atoms: C20_23  and  C21_24 
REMARK    8  A    between atoms: C21_24  and  C22_25 
REMARK    9  A    between atoms: C25_28  and  O2_29 
ROOT
HETATM    1  C3  UNL     1      20.766   3.930  48.732  1.00  0.00    -0.041 C 
HETATM    2  C4  UNL     1      20.437   3.245  49.875  1.00  0.00     0.093 C 
HETATM    3  N2  UNL     1      21.344   3.139  51.015  1.00  0.00    -0.382 N 
HETATM    4  C5  UNL     1      21.305   3.969  52.280  1.00  0.00     0.138 C 
HETATM    5  C6  UNL     1      22.208   5.136  51.904  1.00  0.00     0.018 A 
HETATM    6  C7  UNL     1      21.396   5.823  51.060  1.00  0.00     0.040 A 
HETATM    7  C8  UNL     1      21.799   6.814  50.212  1.00  0.00    -0.028 A 
HETATM    8  C9  UNL     1      22.894   6.387  50.879  1.00  0.00     0.014 A 
HETATM    9  C10 UNL     1      23.975   5.958  51.545  1.00  0.00    -0.012 A 
HETATM   10  C11 UNL     1      23.477   4.977  52.364  1.00  0.00    -0.016 A 
HETATM   11  C12 UNL     1      23.846   6.931  49.848  1.00  0.00    -0.009 C 
HETATM   12  C13 UNL     1      23.911   5.924  48.926  1.00  0.00     0.004 C 
HETATM   13  C14 UNL     1      23.268   4.570  48.751  1.00  0.00    -0.058 C 
HETATM   14  C15 UNL     1      22.060   4.401  48.123  1.00  0.00     0.015 C 
HETATM   15  C16 UNL     1      24.004   3.361  49.292  1.00  0.00     0.041 C 
HETATM   16  C17 UNL     1      23.160   2.195  49.618  1.00  0.00     0.032 C 
HETATM   17  C18 UNL     1      22.465   2.173  50.936  1.00  0.00     0.107 C 
ENDROOT
BRANCH  17  18
HETATM   18  C19 UNL     1      21.766   0.800  51.020  1.00  0.00     0.192 C 
BRANCH  18  19
HETATM   19  O1  UNL     1      22.178   0.122  52.143  1.00  0.00    -0.389 OA
BRANCH  19  20
HETATM   20  C20 UNL     1      23.119   0.731  52.922  1.00  0.00     0.172 C 
BRANCH  20  21
HETATM   21  C21 UNL     1      24.235  -0.223  53.246  1.00  0.00     0.064 C 
BRANCH  21  22
HETATM   22  C22 UNL     1      25.530   0.534  53.242  1.00  0.00    -0.056 A 
HETATM   23  C23 UNL     1      26.566   0.321  54.117  1.00  0.00     0.010 A 
HETATM   24  C24 UNL     1      27.696   1.078  54.007  1.00  0.00     0.037 A 
HETATM   25  C25 UNL     1      27.887   2.072  53.058  1.00  0.00     0.065 A 
HETATM   26  C26 UNL     1      26.814   2.265  52.183  1.00  0.00     0.037 A 
HETATM   27  C27 UNL     1      25.663   1.522  52.264  1.00  0.00     0.010 A 
BRANCH  25  28
HETATM   28  O2  UNL     1      29.054   2.822  52.981  1.00  0.00    -0.361 OA
HETATM   29  H30 UNL     1      29.826   2.393  52.507  1.00  0.00     0.217 HD
ENDBRANCH  25  28
ENDBRANCH  21  22
ENDBRANCH  20  21
ENDBRANCH  19  20
ENDBRANCH  18  19
ENDBRANCH  17  18
BRANCH   1  30
HETATM   30  C2  UNL     1      19.611   4.287  47.918  1.00  0.00     0.069 C 
BRANCH  30  31
HETATM   31  C1  UNL     1      18.305   4.455  48.629  1.00  0.00     0.271 C 
BRANCH  31  32
HETATM   32  N1  UNL     1      17.894   5.791  48.887  1.00  0.00     0.078 N 
HETATM   33  H1  UNL     1      16.848   5.860  48.889  1.00  0.00     0.312 HD
HETATM   34  H2  UNL     1      18.317   6.514  48.262  1.00  0.00     0.312 HD
ENDBRANCH  31  32
ENDBRANCH  30  31
ENDBRANCH   1  30
TORSDOF 9
ENDMDL
MODEL 9
REMARK VINA RESULT:      -7.6      2.581      5.162
REMARK  9 active torsions:
REMARK  status: ('A' for Active; 'I' for Inactive)
REMARK    1  A    between atoms: N1_1  and  C1_2 
REMARK    2  A    between atoms: C1_2  and  C2_3 
REMARK    3  A    between atoms: C2_3  and  C3_4 
REMARK    4  A    between atoms: C18_20  and  C19_21 
REMARK    5  A    between atoms: C19_21  and  O1_22 
REMARK    6  A    between atoms: O1_22  and  C20_23 
REMARK    7  A    between atoms: C20_23  and  C21_24 
REMARK    8  A    between atoms: C21_24  and  C22_25 
REMARK    9  A    between atoms: C25_28  and  O2_29 
ROOT
HETATM    1  C3  UNL     1      24.501   3.746  49.884  1.00  0.00    -0.041 C 
HETATM    2  C4  UNL     1      23.491   3.026  49.295  1.00  0.00     0.093 C 
HETATM    3  N2  UNL     1      22.123   3.528  49.195  1.00  0.00    -0.382 N 
HETATM    4  C5  UNL     1      21.485   4.176  47.986  1.00  0.00     0.138 C 
HETATM    5  C6  UNL     1      21.812   5.645  48.221  1.00  0.00     0.018 A 
HETATM    6  C7  UNL     1      23.135   5.661  47.917  1.00  0.00     0.040 A 
HETATM    7  C8  UNL     1      24.001   6.672  48.221  1.00  0.00    -0.028 A 
HETATM    8  C9  UNL     1      22.785   7.032  48.687  1.00  0.00     0.014 A 
HETATM    9  C10 UNL     1      21.574   7.382  49.145  1.00  0.00    -0.012 A 
HETATM   10  C11 UNL     1      20.781   6.319  48.795  1.00  0.00    -0.016 A 
HETATM   11  C12 UNL     1      23.352   8.031  49.658  1.00  0.00    -0.009 C 
HETATM   12  C13 UNL     1      23.638   7.268  50.754  1.00  0.00     0.004 C 
HETATM   13  C14 UNL     1      23.543   5.805  51.114  1.00  0.00    -0.058 C 
HETATM   14  C15 UNL     1      24.544   4.910  50.839  1.00  0.00     0.015 C 
HETATM   15  C16 UNL     1      22.283   5.328  51.809  1.00  0.00     0.041 C 
HETATM   16  C17 UNL     1      21.967   3.896  51.641  1.00  0.00     0.032 C 
HETATM   17  C18 UNL     1      21.262   3.469  50.400  1.00  0.00     0.107 C 
ENDROOT
BRANCH  17  18
HETATM   18  C19 UNL     1      20.983   1.962  50.572  1.00  0.00     0.192 C 
BRANCH  18  19
HETATM   19  O1  UNL     1      21.364   1.546  51.826  1.00  0.00    -0.389 OA
BRANCH  19  20
HETATM   20  C20 UNL     1      22.188   0.460  51.893  1.00  0.00     0.172 C 
BRANCH  20  21
HETATM   21  C21 UNL     1      22.921   0.432  53.205  1.00  0.00     0.064 C 
BRANCH  21  22
HETATM   22  C22 UNL     1      24.334   0.880  52.975  1.00  0.00    -0.056 A 
HETATM   23  C23 UNL     1      25.277   0.172  52.274  1.00  0.00     0.010 A 
HETATM   24  C24 UNL     1      26.532   0.691  52.135  1.00  0.00     0.037 A 
HETATM   25  C25 UNL     1      26.940   1.909  52.659  1.00  0.00     0.065 A 
HETATM   26  C26 UNL     1      25.957   2.605  53.368  1.00  0.00     0.037 A 
HETATM   27  C27 UNL     1      24.686   2.113  53.527  1.00  0.00     0.010 A 
BRANCH  25  28
HETATM   28  O2  UNL     1      28.229   2.403  52.494  1.00  0.00    -0.361 OA
HETATM   29  H30 UNL     1      28.432   2.825  51.609  1.00  0.00     0.217 HD
ENDBRANCH  25  28
ENDBRANCH  21  22
ENDBRANCH  20  21
ENDBRANCH  19  20
ENDBRANCH  18  19
ENDBRANCH  17  18
BRANCH   1  30
HETATM   30  C2  UNL     1      25.832   3.291  49.507  1.00  0.00     0.069 C 
BRANCH  30  31
HETATM   31  C1  UNL     1      26.960   4.255  49.700  1.00  0.00     0.271 C 
BRANCH  31  32
HETATM   32  N1  UNL     1      27.426   4.925  48.536  1.00  0.00     0.078 N 
HETATM   33  H1  UNL     1      26.897   4.603  47.691  1.00  0.00     0.312 HD
HETATM   34  H2  UNL     1      28.458   4.872  48.377  1.00  0.00     0.312 HD
ENDBRANCH  31  32
ENDBRANCH  30  31
ENDBRANCH   1  30
TORSDOF 9
ENDMDL
