MODEL 1
REMARK VINA RESULT:      -8.4      0.000      0.000
REMARK  3 active torsions:
REMARK  status: ('A' for Active; 'I' for Inactive)
REMARK    1  A    between atoms: N1_2  and  C2_3 
REMARK    2  A    between atoms: C14_20  and  N5_21 
REMARK    3  A    between atoms: N5_21  and  C15_22 
ROOT
HETATM    1  C2  UNL     1      26.490   1.587  53.995  1.00  0.00     0.073 A 
HETATM    2  C3  UNL     1      26.827   0.468  54.712  1.00  0.00     0.147 A 
HETATM    3  N2  UNL     1      26.094  -0.636  54.789  1.00  0.00    -0.270 NA
HETATM    4  C4  UNL     1      24.941  -0.723  54.146  1.00  0.00     0.130 A 
HETATM    5  C5  UNL     1      24.445   0.305  53.379  1.00  0.00     0.013 A 
HETATM    6  C6  UNL     1      25.282   1.428  53.355  1.00  0.00     0.072 A 
HETATM    7  N3  UNL     1      25.058   2.678  52.670  1.00  0.00    -0.355 N 
HETATM    8  C7  UNL     1      24.272   3.027  51.502  1.00  0.00     0.037 C 
HETATM    9  C8  UNL     1      24.402   4.311  51.889  1.00  0.00     0.028 C 
HETATM   10  C9  UNL     1      23.476   5.445  51.674  1.00  0.00     0.009 C 
HETATM   11  C10 UNL     1      22.147   5.545  51.463  1.00  0.00     0.052 C 
HETATM   12  S1  UNL     1      20.799   4.378  51.802  1.00  0.00    -0.076 SA
HETATM   13  C11 UNL     1      20.966   2.959  50.691  1.00  0.00     0.127 A 
HETATM   14  N4  UNL     1      20.192   2.845  49.666  1.00  0.00    -0.247 NA
HETATM   15  C12 UNL     1      20.418   1.711  48.884  1.00  0.00     0.124 A 
HETATM   16  C13 UNL     1      21.359   0.835  49.191  1.00  0.00     0.059 A 
HETATM   17  S2  UNL     1      22.101   1.644  50.822  1.00  0.00    -0.112 SA
HETATM   18  C14 UNL     1      22.195   0.527  52.147  1.00  0.00     0.066 C 
HETATM   19  C16 UNL     1      23.176  -0.072  52.802  1.00  0.00     0.051 C 
HETATM   20  C17 UNL     1      23.659   2.220  50.447  1.00  0.00     0.191 C 
HETATM   21 CL1  UNL     1      23.716   3.053  48.880  1.00  0.00    -0.107 Cl
HETATM   22  H7  UNL     1      25.570   3.453  53.140  1.00  0.00     0.166 HD
ENDROOT
BRANCH  18  23
HETATM   23  N5  UNL     1      20.898   0.211  52.637  1.00  0.00    -0.329 N 
HETATM   24  H13 UNL     1      20.066   0.350  52.020  1.00  0.00     0.168 HD
BRANCH  23  25
HETATM   25  C15 UNL     1      20.494  -0.298  53.894  1.00  0.00     0.353 C 
HETATM   26  O1  UNL     1      20.249  -1.516  53.989  1.00  0.00    -0.283 OA
ENDBRANCH  23  25
ENDBRANCH  18  23
BRANCH   1  27
HETATM   27  N1  UNL     1      27.287   2.751  53.901  1.00  0.00    -0.391 N 
HETATM   28  C1  UNL     1      28.667   2.449  53.594  1.00  0.00     0.146 C 
HETATM   29  H4  UNL     1      27.239   3.770  53.968  1.00  0.00     0.159 HD
ENDBRANCH   1  27
TORSDOF 3
ENDMDL
MODEL 2
REMARK VINA RESULT:      -7.9      3.116      4.886
REMARK  3 active torsions:
REMARK  status: ('A' for Active; 'I' for Inactive)
REMARK    1  A    between atoms: N1_2  and  C2_3 
REMARK    2  A    between atoms: C14_20  and  N5_21 
REMARK    3  A    between atoms: N5_21  and  C15_22 
ROOT
HETATM    1  C2  UNL     1      24.417  -0.299  53.691  1.00  0.00     0.073 A 
HETATM    2  C3  UNL     1      25.605  -0.522  54.337  1.00  0.00     0.147 A 
HETATM    3  N2  UNL     1      26.726   0.157  54.125  1.00  0.00    -0.270 NA
HETATM    4  C4  UNL     1      26.761   1.134  53.234  1.00  0.00     0.130 A 
HETATM    5  C5  UNL     1      25.661   1.495  52.491  1.00  0.00     0.013 A 
HETATM    6  C6  UNL     1      24.526   0.727  52.780  1.00  0.00     0.072 A 
HETATM    7  N3  UNL     1      23.220   0.826  52.176  1.00  0.00    -0.355 N 
HETATM    8  C7  UNL     1      22.525   1.917  51.519  1.00  0.00     0.037 C 
HETATM    9  C8  UNL     1      21.672   0.990  51.042  1.00  0.00     0.028 C 
HETATM   10  C9  UNL     1      20.901   0.999  49.778  1.00  0.00     0.009 C 
HETATM   11  C10 UNL     1      21.066   1.600  48.582  1.00  0.00     0.052 C 
HETATM   12  S1  UNL     1      22.544   2.307  47.802  1.00  0.00    -0.076 SA
HETATM   13  C11 UNL     1      23.035   3.787  48.721  1.00  0.00     0.127 A 
HETATM   14  N4  UNL     1      22.784   4.958  48.243  1.00  0.00    -0.247 NA
HETATM   15  C12 UNL     1      23.208   6.021  49.043  1.00  0.00     0.124 A 
HETATM   16  C13 UNL     1      23.818   5.818  50.198  1.00  0.00     0.059 A 
HETATM   17  S2  UNL     1      23.849   3.852  50.259  1.00  0.00    -0.112 SA
HETATM   18  C14 UNL     1      25.429   3.212  50.587  1.00  0.00     0.066 C 
HETATM   19  C16 UNL     1      25.994   2.586  51.606  1.00  0.00     0.051 C 
HETATM   20  C17 UNL     1      22.767   3.359  51.478  1.00  0.00     0.191 C 
HETATM   21 CL1  UNL     1      21.243   4.270  51.443  1.00  0.00    -0.107 Cl
HETATM   22  H7  UNL     1      22.715  -0.083  52.236  1.00  0.00     0.166 HD
ENDROOT
BRANCH  18  23
HETATM   23  N5  UNL     1      26.294   3.404  49.476  1.00  0.00    -0.329 N 
HETATM   24  H13 UNL     1      26.551   2.590  48.874  1.00  0.00     0.168 HD
BRANCH  23  25
HETATM   25  C15 UNL     1      26.915   4.582  48.994  1.00  0.00     0.353 C 
HETATM   26  O1  UNL     1      28.104   4.515  48.624  1.00  0.00    -0.283 OA
ENDBRANCH  23  25
ENDBRANCH  18  23
BRANCH   1  27
HETATM   27  N1  UNL     1      23.222  -1.013  53.939  1.00  0.00    -0.391 N 
HETATM   28  C1  UNL     1      23.052  -1.332  55.339  1.00  0.00     0.146 C 
HETATM   29  H4  UNL     1      22.398  -1.395  53.470  1.00  0.00     0.159 HD
ENDBRANCH   1  27
TORSDOF 3
ENDMDL
MODEL 3
REMARK VINA RESULT:      -7.6      2.757      5.341
REMARK  3 active torsions:
REMARK  status: ('A' for Active; 'I' for Inactive)
REMARK    1  A    between atoms: N1_2  and  C2_3 
REMARK    2  A    between atoms: C14_20  and  N5_21 
REMARK    3  A    between atoms: N5_21  and  C15_22 
ROOT
HETATM    1  C2  UNL     1      20.265  -0.859  53.559  1.00  0.00     0.073 A 
HETATM    2  C3  UNL     1      20.809  -1.639  54.546  1.00  0.00     0.147 A 
HETATM    3  N2  UNL     1      22.075  -1.592  54.942  1.00  0.00    -0.270 NA
HETATM    4  C4  UNL     1      22.924  -0.748  54.379  1.00  0.00     0.130 A 
HETATM    5  C5  UNL     1      22.551   0.111  53.371  1.00  0.00     0.013 A 
HETATM    6  C6  UNL     1      21.201  -0.007  53.018  1.00  0.00     0.072 A 
HETATM    7  N3  UNL     1      20.491   0.722  51.996  1.00  0.00    -0.355 N 
HETATM    8  C7  UNL     1      20.713   2.020  51.387  1.00  0.00     0.037 C 
HETATM    9  C8  UNL     1      19.858   1.631  50.421  1.00  0.00     0.028 C 
HETATM   10  C9  UNL     1      19.823   2.028  48.995  1.00  0.00     0.009 C 
HETATM   11  C10 UNL     1      20.747   2.483  48.125  1.00  0.00     0.052 C 
HETATM   12  S1  UNL     1      22.559   2.386  48.157  1.00  0.00    -0.076 SA
HETATM   13  C11 UNL     1      23.173   3.430  49.503  1.00  0.00     0.127 A 
HETATM   14  N4  UNL     1      23.697   4.579  49.243  1.00  0.00    -0.247 NA
HETATM   15  C12 UNL     1      24.131   5.292  50.361  1.00  0.00     0.124 A 
HETATM   16  C13 UNL     1      24.005   4.806  51.584  1.00  0.00     0.059 A 
HETATM   17  S2  UNL     1      23.151   3.074  51.207  1.00  0.00    -0.112 SA
HETATM   18  C14 UNL     1      23.963   1.742  51.966  1.00  0.00     0.066 C 
HETATM   19  C16 UNL     1      23.680   0.909  52.954  1.00  0.00     0.051 C 
HETATM   20  C17 UNL     1      21.546   3.160  51.769  1.00  0.00     0.191 C 
HETATM   21 CL1  UNL     1      20.762   4.699  51.354  1.00  0.00    -0.107 Cl
HETATM   22  H7  UNL     1      19.676   0.174  51.650  1.00  0.00     0.166 HD
ENDROOT
BRANCH  18  23
HETATM   23  N5  UNL     1      25.221   1.498  51.350  1.00  0.00    -0.329 N 
HETATM   24  H13 UNL     1      25.269   0.904  50.491  1.00  0.00     0.168 HD
BRANCH  23  25
HETATM   25  C15 UNL     1      26.516   1.947  51.705  1.00  0.00     0.353 C 
HETATM   26  O1  UNL     1      27.031   2.861  51.032  1.00  0.00    -0.283 OA
ENDBRANCH  23  25
ENDBRANCH  18  23
BRANCH   1  27
HETATM   27  N1  UNL     1      18.909  -0.901  53.158  1.00  0.00    -0.391 N 
HETATM   28  C1  UNL     1      18.237  -2.097  53.616  1.00  0.00     0.146 C 
HETATM   29  H4  UNL     1      18.202  -0.369  52.647  1.00  0.00     0.159 HD
ENDBRANCH   1  27
TORSDOF 3
ENDMDL
MODEL 4
REMARK VINA RESULT:      -7.3      2.328      3.287
REMARK  3 active torsions:
REMARK  status: ('A' for Active; 'I' for Inactive)
REMARK    1  A    between atoms: N1_2  and  C2_3 
REMARK    2  A    between atoms: C14_20  and  N5_21 
REMARK    3  A    between atoms: N5_21  and  C15_22 
ROOT
HETATM    1  C2  UNL     1      23.676  -0.095  53.437  1.00  0.00     0.073 A 
HETATM    2  C3  UNL     1      23.069  -0.827  54.424  1.00  0.00     0.147 A 
HETATM    3  N2  UNL     1      21.768  -0.821  54.685  1.00  0.00    -0.270 NA
HETATM    4  C4  UNL     1      20.943  -0.071  53.972  1.00  0.00     0.130 A 
HETATM    5  C5  UNL     1      21.378   0.729  52.941  1.00  0.00     0.013 A 
HETATM    6  C6  UNL     1      22.763   0.660  52.737  1.00  0.00     0.072 A 
HETATM    7  N3  UNL     1      23.545   1.379  51.762  1.00  0.00    -0.355 N 
HETATM    8  C7  UNL     1      23.213   1.958  50.474  1.00  0.00     0.037 C 
HETATM    9  C8  UNL     1      24.373   2.637  50.562  1.00  0.00     0.028 C 
HETATM   10  C9  UNL     1      24.720   3.962  50.000  1.00  0.00     0.009 C 
HETATM   11  C10 UNL     1      24.003   5.047  49.643  1.00  0.00     0.052 C 
HETATM   12  S1  UNL     1      22.331   5.572  50.113  1.00  0.00    -0.076 SA
HETATM   13  C11 UNL     1      21.135   4.425  49.385  1.00  0.00     0.127 A 
HETATM   14  N4  UNL     1      20.456   4.771  48.344  1.00  0.00    -0.247 NA
HETATM   15  C12 UNL     1      19.569   3.802  47.874  1.00  0.00     0.124 A 
HETATM   16  C13 UNL     1      19.450   2.626  48.466  1.00  0.00     0.059 A 
HETATM   17  S2  UNL     1      20.752   2.815  49.928  1.00  0.00    -0.112 SA
HETATM   18  C14 UNL     1      20.088   2.410  51.479  1.00  0.00     0.066 C 
HETATM   19  C16 UNL     1      20.263   1.427  52.348  1.00  0.00     0.051 C 
HETATM   20  C17 UNL     1      22.066   1.788  49.582  1.00  0.00     0.191 C 
HETATM   21 CL1  UNL     1      22.557   1.864  47.877  1.00  0.00    -0.107 Cl
HETATM   22  H7  UNL     1      24.529   1.489  52.086  1.00  0.00     0.166 HD
ENDROOT
BRANCH  18  23
HETATM   23  N5  UNL     1      19.150   3.391  51.901  1.00  0.00    -0.329 N 
HETATM   24  H13 UNL     1      19.419   4.080  52.640  1.00  0.00     0.168 HD
BRANCH  23  25
HETATM   25  C15 UNL     1      17.822   3.631  51.472  1.00  0.00     0.353 C 
HETATM   26  O1  UNL     1      16.997   4.050  52.307  1.00  0.00    -0.283 OA
ENDBRANCH  23  25
ENDBRANCH  18  23
BRANCH   1  27
HETATM   27  N1  UNL     1      25.062  -0.123  53.152  1.00  0.00    -0.391 N 
HETATM   28  C1  UNL     1      25.870  -0.123  54.352  1.00  0.00     0.146 C 
HETATM   29  H4  UNL     1      25.725  -0.152  52.376  1.00  0.00     0.159 HD
ENDBRANCH   1  27
TORSDOF 3
ENDMDL
MODEL 5
REMARK VINA RESULT:      -6.8      8.296     10.737
REMARK  3 active torsions:
REMARK  status: ('A' for Active; 'I' for Inactive)
REMARK    1  A    between atoms: N1_2  and  C2_3 
REMARK    2  A    between atoms: C14_20  and  N5_21 
REMARK    3  A    between atoms: N5_21  and  C15_22 
ROOT
HETATM    1  C2  UNL     1      25.921   6.197  49.785  1.00  0.00     0.073 A 
HETATM    2  C3  UNL     1      24.798   6.621  50.446  1.00  0.00     0.147 A 
HETATM    3  N2  UNL     1      24.468   7.891  50.649  1.00  0.00    -0.270 NA
HETATM    4  C4  UNL     1      25.243   8.866  50.203  1.00  0.00     0.130 A 
HETATM    5  C5  UNL     1      26.411   8.625  49.518  1.00  0.00     0.013 A 
HETATM    6  C6  UNL     1      26.680   7.260  49.349  1.00  0.00     0.072 A 
HETATM    7  N3  UNL     1      27.819   6.661  48.700  1.00  0.00    -0.355 N 
HETATM    8  C7  UNL     1      28.724   7.140  47.672  1.00  0.00     0.037 C 
HETATM    9  C8  UNL     1      29.541   6.128  48.022  1.00  0.00     0.028 C 
HETATM   10  C9  UNL     1      31.018   6.058  47.952  1.00  0.00     0.009 C 
HETATM   11  C10 UNL     1      32.003   6.980  47.957  1.00  0.00     0.052 C 
HETATM   12  S1  UNL     1      32.012   8.705  48.520  1.00  0.00    -0.076 SA
HETATM   13  C11 UNL     1      30.971   9.684  47.408  1.00  0.00     0.127 A 
HETATM   14  N4  UNL     1      31.512  10.450  46.523  1.00  0.00    -0.247 NA
HETATM   15  C12 UNL     1      30.608  11.152  45.724  1.00  0.00     0.124 A 
HETATM   16  C13 UNL     1      29.302  11.025  45.880  1.00  0.00     0.059 A 
HETATM   17  S2  UNL     1      29.231   9.735  47.364  1.00  0.00    -0.112 SA
HETATM   18  C14 UNL     1      28.208  10.259  48.665  1.00  0.00     0.066 C 
HETATM   19  C16 UNL     1      27.043   9.872  49.156  1.00  0.00     0.051 C 
HETATM   20  C17 UNL     1      28.650   8.263  46.737  1.00  0.00     0.191 C 
HETATM   21 CL1  UNL     1      29.388   7.851  45.175  1.00  0.00    -0.107 Cl
HETATM   22  H7  UNL     1      27.999   5.707  49.075  1.00  0.00     0.166 HD
ENDROOT
BRANCH  18  23
HETATM   23  N5  UNL     1      28.793  11.352  49.360  1.00  0.00    -0.329 N 
HETATM   24  H13 UNL     1      29.317  11.179  50.248  1.00  0.00     0.168 HD
BRANCH  23  25
HETATM   25  C15 UNL     1      28.804  12.733  49.049  1.00  0.00     0.353 C 
HETATM   26  O1  UNL     1      27.826  13.425  49.395  1.00  0.00    -0.283 OA
ENDBRANCH  23  25
ENDBRANCH  18  23
BRANCH   1  27
HETATM   27  N1  UNL     1      26.254   4.842  49.553  1.00  0.00    -0.391 N 
HETATM   28  C1  UNL     1      25.415   3.934  50.304  1.00  0.00     0.146 C 
HETATM   29  H4  UNL     1      26.893   4.247  49.023  1.00  0.00     0.159 HD
ENDBRANCH   1  27
TORSDOF 3
ENDMDL
MODEL 6
REMARK VINA RESULT:      -6.8      4.651      6.385
REMARK  3 active torsions:
REMARK  status: ('A' for Active; 'I' for Inactive)
REMARK    1  A    between atoms: N1_2  and  C2_3 
REMARK    2  A    between atoms: C14_20  and  N5_21 
REMARK    3  A    between atoms: N5_21  and  C15_22 
ROOT
HETATM    1  C2  UNL     1      27.227   7.814  47.598  1.00  0.00     0.073 A 
HETATM    2  C3  UNL     1      28.555   7.535  47.404  1.00  0.00     0.147 A 
HETATM    3  N2  UNL     1      29.155   6.405  47.758  1.00  0.00    -0.270 NA
HETATM    4  C4  UNL     1      28.471   5.437  48.345  1.00  0.00     0.130 A 
HETATM    5  C5  UNL     1      27.127   5.544  48.620  1.00  0.00     0.013 A 
HETATM    6  C6  UNL     1      26.578   6.767  48.213  1.00  0.00     0.072 A 
HETATM    7  N3  UNL     1      25.215   7.214  48.365  1.00  0.00    -0.355 N 
HETATM    8  C7  UNL     1      23.960   6.499  48.495  1.00  0.00     0.037 C 
HETATM    9  C8  UNL     1      23.426   7.661  48.919  1.00  0.00     0.028 C 
HETATM   10  C9  UNL     1      22.303   7.880  49.858  1.00  0.00     0.009 C 
HETATM   11  C10 UNL     1      21.761   7.157  50.860  1.00  0.00     0.052 C 
HETATM   12  S1  UNL     1      22.440   5.785  51.834  1.00  0.00    -0.076 SA
HETATM   13  C11 UNL     1      22.617   4.339  50.759  1.00  0.00     0.127 A 
HETATM   14  N4  UNL     1      21.770   3.370  50.833  1.00  0.00    -0.247 NA
HETATM   15  C12 UNL     1      22.010   2.314  49.952  1.00  0.00     0.124 A 
HETATM   16  C13 UNL     1      23.034   2.328  49.116  1.00  0.00     0.059 A 
HETATM   17  S2  UNL     1      23.850   4.062  49.561  1.00  0.00    -0.112 SA
HETATM   18  C14 UNL     1      25.552   3.944  49.879  1.00  0.00     0.066 C 
HETATM   19  C16 UNL     1      26.652   4.341  49.261  1.00  0.00     0.051 C 
HETATM   20  C17 UNL     1      23.586   5.107  48.243  1.00  0.00     0.191 C 
HETATM   21 CL1  UNL     1      21.934   4.989  47.602  1.00  0.00    -0.107 Cl
HETATM   22  H7  UNL     1      25.168   8.254  48.390  1.00  0.00     0.166 HD
ENDROOT
BRANCH  18  23
HETATM   23  N5  UNL     1      25.792   3.273  51.109  1.00  0.00    -0.329 N 
HETATM   24  H13 UNL     1      25.270   3.565  51.967  1.00  0.00     0.168 HD
BRANCH  23  25
HETATM   25  C15 UNL     1      26.667   2.203  51.411  1.00  0.00     0.353 C 
HETATM   26  O1  UNL     1      27.610   2.413  52.199  1.00  0.00    -0.283 OA
ENDBRANCH  23  25
ENDBRANCH  18  23
BRANCH   1  27
HETATM   27  N1  UNL     1      26.591   9.013  47.199  1.00  0.00    -0.391 N 
HETATM   28  C1  UNL     1      27.492  10.144  47.214  1.00  0.00     0.146 C 
HETATM   29  H4  UNL     1      25.692   9.384  46.886  1.00  0.00     0.159 HD
ENDBRANCH   1  27
TORSDOF 3
ENDMDL
MODEL 7
REMARK VINA RESULT:      -6.7      3.039      5.102
REMARK  3 active torsions:
REMARK  status: ('A' for Active; 'I' for Inactive)
REMARK    1  A    between atoms: N1_2  and  C2_3 
REMARK    2  A    between atoms: C14_20  and  N5_21 
REMARK    3  A    between atoms: N5_21  and  C15_22 
ROOT
HETATM    1  C2  UNL     1      22.774  -0.173  53.053  1.00  0.00     0.073 A 
HETATM    2  C3  UNL     1      23.839  -0.669  53.758  1.00  0.00     0.147 A 
HETATM    3  N2  UNL     1      25.081  -0.209  53.685  1.00  0.00    -0.270 NA
HETATM    4  C4  UNL     1      25.376   0.806  52.888  1.00  0.00     0.130 A 
HETATM    5  C5  UNL     1      24.431   1.427  52.106  1.00  0.00     0.013 A 
HETATM    6  C6  UNL     1      23.150   0.877  52.246  1.00  0.00     0.072 A 
HETATM    7  N3  UNL     1      21.943   1.272  51.564  1.00  0.00    -0.355 N 
HETATM    8  C7  UNL     1      21.524   2.523  50.960  1.00  0.00     0.037 C 
HETATM    9  C8  UNL     1      20.556   1.817  50.344  1.00  0.00     0.028 C 
HETATM   10  C9  UNL     1      19.911   2.068  49.036  1.00  0.00     0.009 C 
HETATM   11  C10 UNL     1      20.287   2.712  47.912  1.00  0.00     0.052 C 
HETATM   12  S1  UNL     1      21.933   3.173  47.301  1.00  0.00    -0.076 SA
HETATM   13  C11 UNL     1      22.614   4.457  48.379  1.00  0.00     0.127 A 
HETATM   14  N4  UNL     1      22.630   5.687  47.991  1.00  0.00    -0.247 NA
HETATM   15  C12 UNL     1      23.177   6.585  48.908  1.00  0.00     0.124 A 
HETATM   16  C13 UNL     1      23.638   6.183  50.080  1.00  0.00     0.059 A 
HETATM   17  S2  UNL     1      23.292   4.249  49.970  1.00  0.00    -0.112 SA
HETATM   18  C14 UNL     1      24.689   3.292  50.349  1.00  0.00     0.066 C 
HETATM   19  C16 UNL     1      25.038   2.494  51.346  1.00  0.00     0.051 C 
HETATM   20  C17 UNL     1      22.037   3.889  51.063  1.00  0.00     0.191 C 
HETATM   21 CL1  UNL     1      20.721   5.079  51.002  1.00  0.00    -0.107 Cl
HETATM   22  H7  UNL     1      21.273   0.477  51.508  1.00  0.00     0.166 HD
ENDROOT
BRANCH  18  23
HETATM   23  N5  UNL     1      25.666   3.393  49.322  1.00  0.00    -0.329 N 
HETATM   24  H13 UNL     1      25.770   2.617  48.630  1.00  0.00     0.168 HD
BRANCH  23  25
HETATM   25  C15 UNL     1      26.591   4.427  49.038  1.00  0.00     0.353 C 
HETATM   26  O1  UNL     1      27.750   4.324  49.485  1.00  0.00    -0.283 OA
ENDBRANCH  23  25
ENDBRANCH  18  23
BRANCH   1  27
HETATM   27  N1  UNL     1      21.448  -0.656  53.153  1.00  0.00    -0.391 N 
HETATM   28  C1  UNL     1      21.288  -1.601  54.236  1.00  0.00     0.146 C 
HETATM   29  H4  UNL     1      20.524  -0.572  52.726  1.00  0.00     0.159 HD
ENDBRANCH   1  27
TORSDOF 3
ENDMDL
MODEL 8
REMARK VINA RESULT:      -6.6      3.384      5.471
REMARK  3 active torsions:
REMARK  status: ('A' for Active; 'I' for Inactive)
REMARK    1  A    between atoms: N1_2  and  C2_3 
REMARK    2  A    between atoms: C14_20  and  N5_21 
REMARK    3  A    between atoms: N5_21  and  C15_22 
ROOT
HETATM    1  C2  UNL     1      21.834   0.783  52.823  1.00  0.00     0.073 A 
HETATM    2  C3  UNL     1      22.661  -0.091  53.478  1.00  0.00     0.147 A 
HETATM    3  N2  UNL     1      23.988  -0.058  53.440  1.00  0.00    -0.270 NA
HETATM    4  C4  UNL     1      24.617   0.866  52.732  1.00  0.00     0.130 A 
HETATM    5  C5  UNL     1      23.946   1.825  52.009  1.00  0.00     0.013 A 
HETATM    6  C6  UNL     1      22.553   1.715  52.107  1.00  0.00     0.072 A 
HETATM    7  N3  UNL     1      21.558   2.538  51.466  1.00  0.00    -0.355 N 
HETATM    8  C7  UNL     1      21.586   3.902  50.973  1.00  0.00     0.037 C 
HETATM    9  C8  UNL     1      20.455   3.605  50.302  1.00  0.00     0.028 C 
HETATM   10  C9  UNL     1      19.959   4.161  49.023  1.00  0.00     0.009 C 
HETATM   11  C10 UNL     1      20.553   4.736  47.957  1.00  0.00     0.052 C 
HETATM   12  S1  UNL     1      22.273   4.680  47.382  1.00  0.00    -0.076 SA
HETATM   13  C11 UNL     1      23.310   5.578  48.563  1.00  0.00     0.127 A 
HETATM   14  N4  UNL     1      23.736   6.762  48.281  1.00  0.00    -0.247 NA
HETATM   15  C12 UNL     1      24.523   7.353  49.271  1.00  0.00     0.124 A 
HETATM   16  C13 UNL     1      24.799   6.728  50.402  1.00  0.00     0.059 A 
HETATM   17  S2  UNL     1      23.844   5.030  50.128  1.00  0.00    -0.112 SA
HETATM   18  C14 UNL     1      24.841   3.640  50.418  1.00  0.00     0.066 C 
HETATM   19  C16 UNL     1      24.886   2.693  51.341  1.00  0.00     0.051 C 
HETATM   20  C17 UNL     1      22.514   5.011  51.190  1.00  0.00     0.191 C 
HETATM   21 CL1  UNL     1      21.660   6.568  51.237  1.00  0.00    -0.107 Cl
HETATM   22  H7  UNL     1      20.666   2.013  51.345  1.00  0.00     0.166 HD
ENDROOT
BRANCH  18  23
HETATM   23  N5  UNL     1      25.823   3.499  49.400  1.00  0.00    -0.329 N 
HETATM   24  H13 UNL     1      25.649   2.850  48.600  1.00  0.00     0.168 HD
BRANCH  23  25
HETATM   25  C15 UNL     1      27.085   4.124  49.254  1.00  0.00     0.353 C 
HETATM   26  O1  UNL     1      27.179   5.092  48.473  1.00  0.00    -0.283 OA
ENDBRANCH  23  25
ENDBRANCH  18  23
BRANCH   1  27
HETATM   27  N1  UNL     1      20.422   0.754  52.886  1.00  0.00    -0.391 N 
HETATM   28  C1  UNL     1      19.925  -0.433  53.546  1.00  0.00     0.146 C 
HETATM   29  H4  UNL     1      19.591   1.292  52.630  1.00  0.00     0.159 HD
ENDBRANCH   1  27
TORSDOF 3
ENDMDL
MODEL 9
REMARK VINA RESULT:      -6.3     10.502     12.594
REMARK  3 active torsions:
REMARK  status: ('A' for Active; 'I' for Inactive)
REMARK    1  A    between atoms: N1_2  and  C2_3 
REMARK    2  A    between atoms: C14_20  and  N5_21 
REMARK    3  A    between atoms: N5_21  and  C15_22 
ROOT
HETATM    1  C2  UNL     1      33.428   5.693  48.470  1.00  0.00     0.073 A 
HETATM    2  C3  UNL     1      34.787   5.577  48.603  1.00  0.00     0.147 A 
HETATM    3  N2  UNL     1      35.651   6.580  48.501  1.00  0.00    -0.270 NA
HETATM    4  C4  UNL     1      35.227   7.808  48.253  1.00  0.00     0.130 A 
HETATM    5  C5  UNL     1      33.895   8.111  48.090  1.00  0.00     0.013 A 
HETATM    6  C6  UNL     1      33.058   6.994  48.213  1.00  0.00     0.072 A 
HETATM    7  N3  UNL     1      31.622   6.952  48.081  1.00  0.00    -0.355 N 
HETATM    8  C7  UNL     1      30.592   7.957  48.262  1.00  0.00     0.037 C 
HETATM    9  C8  UNL     1      29.765   7.123  47.602  1.00  0.00     0.028 C 
HETATM   10  C9  UNL     1      28.600   7.451  46.750  1.00  0.00     0.009 C 
HETATM   11  C10 UNL     1      28.240   8.532  46.028  1.00  0.00     0.052 C 
HETATM   12  S1  UNL     1      29.226   9.913  45.384  1.00  0.00    -0.076 SA
HETATM   13  C11 UNL     1      29.799  10.916  46.778  1.00  0.00     0.127 A 
HETATM   14  N4  UNL     1      29.231  12.044  47.040  1.00  0.00    -0.247 NA
HETATM   15  C12 UNL     1      29.759  12.725  48.138  1.00  0.00     0.124 A 
HETATM   16  C13 UNL     1      30.764  12.232  48.841  1.00  0.00     0.059 A 
HETATM   17  S2  UNL     1      31.092  10.544  47.884  1.00  0.00    -0.112 SA
HETATM   18  C14 UNL     1      32.757  10.329  47.447  1.00  0.00     0.066 C 
HETATM   19  C16 UNL     1      33.732   9.522  47.833  1.00  0.00     0.051 C 
HETATM   20  C17 UNL     1      30.598   9.272  48.903  1.00  0.00     0.191 C 
HETATM   21 CL1  UNL     1      29.050   9.607  49.706  1.00  0.00    -0.107 Cl
HETATM   22  H7  UNL     1      31.306   6.003  47.790  1.00  0.00     0.166 HD
ENDROOT
BRANCH  18  23
HETATM   23  N5  UNL     1      33.132  11.234  46.417  1.00  0.00    -0.329 N 
HETATM   24  H13 UNL     1      33.445  12.200  46.667  1.00  0.00     0.168 HD
BRANCH  23  25
HETATM   25  C15 UNL     1      33.167  11.059  45.013  1.00  0.00     0.353 C 
HETATM   26  O1  UNL     1      32.755   9.981  44.541  1.00  0.00    -0.283 OA
ENDBRANCH  23  25
ENDBRANCH  18  23
BRANCH   1  27
HETATM   27  N1  UNL     1      32.513   4.623  48.601  1.00  0.00    -0.391 N 
HETATM   28  C1  UNL     1      32.875   3.486  47.783  1.00  0.00     0.146 C 
HETATM   29  H4  UNL     1      31.659   4.347  49.088  1.00  0.00     0.159 HD
ENDBRANCH   1  27
TORSDOF 3
ENDMDL
