MODEL 1
REMARK VINA RESULT:      -9.0      0.000      0.000
REMARK  1 active torsions:
REMARK  status: ('A' for Active; 'I' for Inactive)
REMARK    1  A    between atoms: C2_2  and  N1_3 
ROOT
HETATM    1  N1  UNL     1      26.691   1.841  52.209  1.00  0.00    -0.411 N 
HETATM    2  C3  UNL     1      26.519   2.362  50.933  1.00  0.00     0.136 C 
HETATM    3  C4  UNL     1      26.186   3.775  50.624  1.00  0.00     0.142 C 
HETATM    4  N2  UNL     1      24.931   4.293  51.034  1.00  0.00    -0.355 N 
HETATM    5  C5  UNL     1      23.705   4.799  51.443  1.00  0.00     0.250 C 
HETATM    6  O1  UNL     1      23.818   4.880  52.654  1.00  0.00    -0.268 OA
HETATM    7  C6  UNL     1      22.394   5.258  51.083  1.00  0.00     0.046 C 
HETATM    8  C7  UNL     1      22.024   6.409  50.603  1.00  0.00     0.013 C 
HETATM    9  C8  UNL     1      23.147   7.339  50.436  1.00  0.00     0.068 C 
HETATM   10  N3  UNL     1      20.605   6.309  50.377  1.00  0.00    -0.392 N 
HETATM   11  C9  UNL     1      20.301   4.861  50.279  1.00  0.00     0.138 C 
HETATM   12  C10 UNL     1      21.261   4.374  51.323  1.00  0.00     0.136 C 
HETATM   13  C11 UNL     1      21.543   2.923  51.300  1.00  0.00     0.232 C 
HETATM   14  O2  UNL     1      21.676   1.818  50.676  1.00  0.00    -0.272 OA
HETATM   15  N4  UNL     1      21.871   2.065  52.356  1.00  0.00    -0.326 N 
HETATM   16  C12 UNL     1      22.203   0.944  53.115  1.00  0.00     0.041 A 
HETATM   17  C13 UNL     1      21.079   0.490  53.850  1.00  0.00     0.033 A 
HETATM   18  C14 UNL     1      21.163  -0.617  54.700  1.00  0.00     0.044 A 
HETATM   19  C15 UNL     1      22.444  -1.196  54.733  1.00  0.00     0.117 A 
HETATM   20  F1  UNL     1      22.493  -2.253  55.543  1.00  0.00    -0.206 F 
HETATM   21  C16 UNL     1      23.530  -0.730  54.000  1.00  0.00     0.051 A 
HETATM   22  C17 UNL     1      23.422   0.355  53.172  1.00  0.00    -0.027 A 
HETATM   23  C18 UNL     1      24.564   0.728  52.320  1.00  0.00     0.060 C 
HETATM   24  C19 UNL     1      25.550   1.611  53.043  1.00  0.00     0.121 C 
HETATM   25  H10 UNL     1      24.449   4.416  50.081  1.00  0.00     0.162 HD
HETATM   26  H14 UNL     1      20.088   7.243  50.334  1.00  0.00     0.159 HD
HETATM   27  H18 UNL     1      21.879   2.762  53.158  1.00  0.00     0.169 HD
ENDROOT
BRANCH   1  28
HETATM   28  C2  UNL     1      27.855   2.365  52.880  1.00  0.00     0.112 C 
HETATM   29  C1  UNL     1      28.636   1.190  53.427  1.00  0.00     0.026 C 
ENDBRANCH   1  28
TORSDOF 1
ENDMDL
MODEL 2
REMARK VINA RESULT:      -8.9      3.205      5.784
REMARK  1 active torsions:
REMARK  status: ('A' for Active; 'I' for Inactive)
REMARK    1  A    between atoms: C2_2  and  N1_3 
ROOT
HETATM    1  N1  UNL     1      27.564   0.291  53.527  1.00  0.00    -0.411 N 
HETATM    2  C3  UNL     1      26.816   0.327  54.697  1.00  0.00     0.136 C 
HETATM    3  C4  UNL     1      25.689  -0.583  55.020  1.00  0.00     0.142 C 
HETATM    4  N2  UNL     1      24.511  -0.526  54.233  1.00  0.00    -0.355 N 
HETATM    5  C5  UNL     1      23.362  -0.474  53.456  1.00  0.00     0.250 C 
HETATM    6  O1  UNL     1      23.711  -0.956  52.393  1.00  0.00    -0.268 OA
HETATM    7  C6  UNL     1      21.978  -0.111  53.350  1.00  0.00     0.046 C 
HETATM    8  C7  UNL     1      20.923  -0.737  53.785  1.00  0.00     0.013 C 
HETATM    9  C8  UNL     1      21.254  -1.994  54.466  1.00  0.00     0.068 C 
HETATM   10  N3  UNL     1      19.798   0.098  53.451  1.00  0.00    -0.392 N 
HETATM   11  C9  UNL     1      20.338   1.466  53.261  1.00  0.00     0.138 C 
HETATM   12  C10 UNL     1      21.632   1.092  52.603  1.00  0.00     0.136 C 
HETATM   13  C11 UNL     1      22.656   2.157  52.564  1.00  0.00     0.232 C 
HETATM   14  O2  UNL     1      23.218   3.189  53.060  1.00  0.00    -0.272 OA
HETATM   15  N4  UNL     1      23.659   2.390  51.615  1.00  0.00    -0.326 N 
HETATM   16  C12 UNL     1      24.736   2.926  50.912  1.00  0.00     0.041 A 
HETATM   17  C13 UNL     1      24.284   3.622  49.763  1.00  0.00     0.033 A 
HETATM   18  C14 UNL     1      25.181   4.239  48.885  1.00  0.00     0.044 A 
HETATM   19  C15 UNL     1      26.526   4.087  49.268  1.00  0.00     0.117 A 
HETATM   20  F1  UNL     1      27.356   4.692  48.418  1.00  0.00    -0.206 F 
HETATM   21  C16 UNL     1      26.942   3.398  50.401  1.00  0.00     0.051 A 
HETATM   22  C17 UNL     1      26.044   2.805  51.248  1.00  0.00    -0.027 A 
HETATM   23  C18 UNL     1      26.526   2.201  52.502  1.00  0.00     0.060 C 
HETATM   24  C19 UNL     1      26.998   0.782  52.306  1.00  0.00     0.121 C 
HETATM   25  H10 UNL     1      23.820  -0.110  54.944  1.00  0.00     0.162 HD
HETATM   26  H14 UNL     1      18.858  -0.409  53.405  1.00  0.00     0.159 HD
HETATM   27  H18 UNL     1      23.480   1.573  50.960  1.00  0.00     0.169 HD
ENDROOT
BRANCH   1  28
HETATM   28  C2  UNL     1      28.363  -0.902  53.405  1.00  0.00     0.112 C 
HETATM   29  C1  UNL     1      29.791  -0.535  53.752  1.00  0.00     0.026 C 
ENDBRANCH   1  28
TORSDOF 1
ENDMDL
MODEL 3
REMARK VINA RESULT:      -8.5      3.088      6.000
REMARK  1 active torsions:
REMARK  status: ('A' for Active; 'I' for Inactive)
REMARK    1  A    between atoms: C2_2  and  N1_3 
ROOT
HETATM    1  N1  UNL     1      21.774   4.168  51.163  1.00  0.00    -0.411 N 
HETATM    2  C3  UNL     1      22.501   4.392  52.326  1.00  0.00     0.136 C 
HETATM    3  C4  UNL     1      23.802   3.759  52.656  1.00  0.00     0.142 C 
HETATM    4  N2  UNL     1      23.853   2.357  52.860  1.00  0.00    -0.355 N 
HETATM    5  C5  UNL     1      23.902   0.983  53.052  1.00  0.00     0.250 C 
HETATM    6  O1  UNL     1      23.737   0.530  51.933  1.00  0.00    -0.268 OA
HETATM    7  C6  UNL     1      24.056  -0.116  53.962  1.00  0.00     0.046 C 
HETATM    8  C7  UNL     1      25.140  -0.618  54.478  1.00  0.00     0.013 C 
HETATM    9  C8  UNL     1      26.353   0.071  54.022  1.00  0.00     0.068 C 
HETATM   10  N3  UNL     1      24.712  -1.671  55.361  1.00  0.00    -0.392 N 
HETATM   11  C9  UNL     1      23.295  -1.383  55.695  1.00  0.00     0.138 C 
HETATM   12  C10 UNL     1      22.867  -0.861  54.356  1.00  0.00     0.136 C 
HETATM   13  C11 UNL     1      21.591  -0.115  54.344  1.00  0.00     0.232 C 
HETATM   14  O2  UNL     1      20.732   0.645  54.905  1.00  0.00    -0.272 OA
HETATM   15  N4  UNL     1      20.640   0.003  53.323  1.00  0.00    -0.326 N 
HETATM   16  C12 UNL     1      19.511   0.341  52.579  1.00  0.00     0.041 A 
HETATM   17  C13 UNL     1      18.616  -0.756  52.505  1.00  0.00     0.033 A 
HETATM   18  C14 UNL     1      17.413  -0.668  51.799  1.00  0.00     0.044 A 
HETATM   19  C15 UNL     1      17.212   0.588  51.198  1.00  0.00     0.117 A 
HETATM   20  F1  UNL     1      16.055   0.646  50.540  1.00  0.00    -0.206 F 
HETATM   21  C16 UNL     1      18.107   1.648  51.288  1.00  0.00     0.051 A 
HETATM   22  C17 UNL     1      19.279   1.538  51.988  1.00  0.00    -0.027 A 
HETATM   23  C18 UNL     1      20.129   2.729  52.162  1.00  0.00     0.060 C 
HETATM   24  C19 UNL     1      21.062   2.937  50.995  1.00  0.00     0.121 C 
HETATM   25  H10 UNL     1      24.051   2.319  53.917  1.00  0.00     0.162 HD
HETATM   26  H14 UNL     1      25.455  -2.407  55.581  1.00  0.00     0.159 HD
HETATM   27  H18 UNL     1      21.115  -0.575  52.568  1.00  0.00     0.169 HD
ENDROOT
BRANCH   1  28
HETATM   28  C2  UNL     1      22.431   4.672  49.983  1.00  0.00     0.112 C 
HETATM   29  C1  UNL     1      22.775   3.485  49.108  1.00  0.00     0.026 C 
ENDBRANCH   1  28
TORSDOF 1
ENDMDL
MODEL 4
REMARK VINA RESULT:      -8.3      2.458      4.334
REMARK  1 active torsions:
REMARK  status: ('A' for Active; 'I' for Inactive)
REMARK    1  A    between atoms: C2_2  and  N1_3 
ROOT
HETATM    1  N1  UNL     1      23.747   4.734  51.103  1.00  0.00    -0.411 N 
HETATM    2  C3  UNL     1      22.904   4.605  50.007  1.00  0.00     0.136 C 
HETATM    3  C4  UNL     1      21.440   4.850  50.021  1.00  0.00     0.142 C 
HETATM    4  N2  UNL     1      20.607   4.004  50.797  1.00  0.00    -0.355 N 
HETATM    5  C5  UNL     1      19.796   3.179  51.563  1.00  0.00     0.250 C 
HETATM    6  O1  UNL     1      20.063   3.496  52.708  1.00  0.00    -0.268 OA
HETATM    7  C6  UNL     1      18.805   2.141  51.605  1.00  0.00     0.046 C 
HETATM    8  C7  UNL     1      17.519   2.217  51.421  1.00  0.00     0.013 C 
HETATM    9  C8  UNL     1      17.069   3.587  51.147  1.00  0.00     0.068 C 
HETATM   10  N3  UNL     1      17.021   0.870  51.526  1.00  0.00    -0.392 N 
HETATM   11  C9  UNL     1      18.177  -0.021  51.267  1.00  0.00     0.138 C 
HETATM   12  C10 UNL     1      19.229   0.793  51.959  1.00  0.00     0.136 C 
HETATM   13  C11 UNL     1      20.626   0.436  51.633  1.00  0.00     0.232 C 
HETATM   14  O2  UNL     1      21.510  -0.001  50.823  1.00  0.00    -0.272 OA
HETATM   15  N4  UNL     1      21.776   0.531  52.426  1.00  0.00    -0.326 N 
HETATM   16  C12 UNL     1      23.088   0.475  52.891  1.00  0.00     0.041 A 
HETATM   17  C13 UNL     1      23.253  -0.611  53.787  1.00  0.00     0.033 A 
HETATM   18  C14 UNL     1      24.483  -0.869  54.400  1.00  0.00     0.044 A 
HETATM   19  C15 UNL     1      25.489   0.042  54.032  1.00  0.00     0.117 A 
HETATM   20  F1  UNL     1      26.651  -0.233  54.624  1.00  0.00    -0.206 F 
HETATM   21  C16 UNL     1      25.300   1.099  53.149  1.00  0.00     0.051 A 
HETATM   22  C17 UNL     1      24.086   1.330  52.559  1.00  0.00    -0.027 A 
HETATM   23  C18 UNL     1      23.972   2.381  51.532  1.00  0.00     0.060 C 
HETATM   24  C19 UNL     1      23.730   3.742  52.135  1.00  0.00     0.121 C 
HETATM   25  H10 UNL     1      20.082   3.479  50.019  1.00  0.00     0.162 HD
HETATM   26  H14 UNL     1      15.981   0.790  51.760  1.00  0.00     0.159 HD
HETATM   27  H18 UNL     1      21.353   0.950  53.306  1.00  0.00     0.169 HD
ENDROOT
BRANCH   1  28
HETATM   28  C2  UNL     1      23.880   6.097  51.554  1.00  0.00     0.112 C 
HETATM   29  C1  UNL     1      24.846   6.797  50.621  1.00  0.00     0.026 C 
ENDBRANCH   1  28
TORSDOF 1
ENDMDL
MODEL 5
REMARK VINA RESULT:      -8.2      2.184      4.993
REMARK  1 active torsions:
REMARK  status: ('A' for Active; 'I' for Inactive)
REMARK    1  A    between atoms: C2_2  and  N1_3 
ROOT
HETATM    1  N1  UNL     1      18.576   2.230  51.512  1.00  0.00    -0.411 N 
HETATM    2  C3  UNL     1      18.702   3.609  51.413  1.00  0.00     0.136 C 
HETATM    3  C4  UNL     1      19.197   4.341  50.220  1.00  0.00     0.142 C 
HETATM    4  N2  UNL     1      20.542   4.161  49.811  1.00  0.00    -0.355 N 
HETATM    5  C5  UNL     1      21.858   3.977  49.409  1.00  0.00     0.250 C 
HETATM    6  O1  UNL     1      21.867   2.841  48.967  1.00  0.00    -0.268 OA
HETATM    7  C6  UNL     1      23.182   4.516  49.286  1.00  0.00     0.046 C 
HETATM    8  C7  UNL     1      23.663   5.334  48.394  1.00  0.00     0.013 C 
HETATM    9  C8  UNL     1      22.667   5.719  47.387  1.00  0.00     0.068 C 
HETATM   10  N3  UNL     1      25.028   5.584  48.778  1.00  0.00    -0.392 N 
HETATM   11  C9  UNL     1      25.120   5.260  50.222  1.00  0.00     0.138 C 
HETATM   12  C10 UNL     1      24.200   4.076  50.230  1.00  0.00     0.136 C 
HETATM   13  C11 UNL     1      23.721   3.653  51.563  1.00  0.00     0.232 C 
HETATM   14  O2  UNL     1      23.382   3.913  52.766  1.00  0.00    -0.272 OA
HETATM   15  N4  UNL     1      23.374   2.375  52.018  1.00  0.00    -0.326 N 
HETATM   16  C12 UNL     1      22.962   1.303  52.807  1.00  0.00     0.041 A 
HETATM   17  C13 UNL     1      24.074   0.518  53.201  1.00  0.00     0.033 A 
HETATM   18  C14 UNL     1      23.915  -0.626  53.989  1.00  0.00     0.044 A 
HETATM   19  C15 UNL     1      22.575  -0.888  54.325  1.00  0.00     0.117 A 
HETATM   20  F1  UNL     1      22.455  -1.978  55.083  1.00  0.00    -0.206 F 
HETATM   21  C16 UNL     1      21.502  -0.100  53.924  1.00  0.00     0.051 A 
HETATM   22  C17 UNL     1      21.683   1.017  53.154  1.00  0.00    -0.027 A 
HETATM   23  C18 UNL     1      20.531   1.889  52.867  1.00  0.00     0.060 C 
HETATM   24  C19 UNL     1      19.745   1.418  51.669  1.00  0.00     0.121 C 
HETATM   25  H10 UNL     1      20.949   5.128  50.045  1.00  0.00     0.162 HD
HETATM   26  H14 UNL     1      25.662   5.927  47.989  1.00  0.00     0.159 HD
HETATM   27  H18 UNL     1      23.535   1.818  51.128  1.00  0.00     0.169 HD
ENDROOT
BRANCH   1  28
HETATM   28  C2  UNL     1      17.560   1.693  50.640  1.00  0.00     0.112 C 
HETATM   29  C1  UNL     1      17.830   0.212  50.480  1.00  0.00     0.026 C 
ENDBRANCH   1  28
TORSDOF 1
ENDMDL
MODEL 6
REMARK VINA RESULT:      -8.2      6.887      9.040
REMARK  1 active torsions:
REMARK  status: ('A' for Active; 'I' for Inactive)
REMARK    1  A    between atoms: C2_2  and  N1_3 
ROOT
HETATM    1  N1  UNL     1      31.902   6.405  47.939  1.00  0.00    -0.411 N 
HETATM    2  C3  UNL     1      32.052   7.458  47.047  1.00  0.00     0.136 C 
HETATM    3  C4  UNL     1      32.267   8.877  47.426  1.00  0.00     0.142 C 
HETATM    4  N2  UNL     1      31.239   9.570  48.114  1.00  0.00    -0.355 N 
HETATM    5  C5  UNL     1      30.234  10.243  48.794  1.00  0.00     0.250 C 
HETATM    6  O1  UNL     1      30.246   9.735  49.902  1.00  0.00    -0.268 OA
HETATM    7  C6  UNL     1      29.209  11.248  48.773  1.00  0.00     0.046 C 
HETATM    8  C7  UNL     1      29.315  12.540  48.886  1.00  0.00     0.013 C 
HETATM    9  C8  UNL     1      30.704  12.978  49.071  1.00  0.00     0.068 C 
HETATM   10  N3  UNL     1      27.982  13.064  48.743  1.00  0.00    -0.392 N 
HETATM   11  C9  UNL     1      27.201  12.023  48.031  1.00  0.00     0.138 C 
HETATM   12  C10 UNL     1      27.820  10.819  48.675  1.00  0.00     0.136 C 
HETATM   13  C11 UNL     1      27.577   9.534  47.985  1.00  0.00     0.232 C 
HETATM   14  O2  UNL     1      27.376   8.852  46.926  1.00  0.00    -0.272 OA
HETATM   15  N4  UNL     1      27.477   8.244  48.520  1.00  0.00    -0.326 N 
HETATM   16  C12 UNL     1      27.317   6.868  48.672  1.00  0.00     0.041 A 
HETATM   17  C13 UNL     1      26.038   6.571  49.207  1.00  0.00     0.033 A 
HETATM   18  C14 UNL     1      25.644   5.255  49.464  1.00  0.00     0.044 A 
HETATM   19  C15 UNL     1      26.631   4.306  49.141  1.00  0.00     0.117 A 
HETATM   20  F1  UNL     1      26.225   3.061  49.389  1.00  0.00    -0.206 F 
HETATM   21  C16 UNL     1      27.879   4.625  48.618  1.00  0.00     0.051 A 
HETATM   22  C17 UNL     1      28.241   5.923  48.371  1.00  0.00    -0.027 A 
HETATM   23  C18 UNL     1      29.520   6.198  47.695  1.00  0.00     0.060 C 
HETATM   24  C19 UNL     1      30.675   6.254  48.663  1.00  0.00     0.121 C 
HETATM   25  H10 UNL     1      30.928  10.264  47.354  1.00  0.00     0.162 HD
HETATM   26  H14 UNL     1      27.832  14.036  49.159  1.00  0.00     0.159 HD
HETATM   27  H18 UNL     1      27.648   8.461  49.546  1.00  0.00     0.169 HD
ENDROOT
BRANCH   1  28
HETATM   28  C2  UNL     1      33.102   6.125  48.687  1.00  0.00     0.112 C 
HETATM   29  C1  UNL     1      34.141   5.615  47.710  1.00  0.00     0.026 C 
ENDBRANCH   1  28
TORSDOF 1
ENDMDL
MODEL 7
REMARK VINA RESULT:      -8.1      2.318      4.921
REMARK  1 active torsions:
REMARK  status: ('A' for Active; 'I' for Inactive)
REMARK    1  A    between atoms: C2_2  and  N1_3 
ROOT
HETATM    1  N1  UNL     1      20.295   1.040  52.096  1.00  0.00    -0.411 N 
HETATM    2  C3  UNL     1      19.899   2.372  52.108  1.00  0.00     0.136 C 
HETATM    3  C4  UNL     1      19.632   3.196  50.903  1.00  0.00     0.142 C 
HETATM    4  N2  UNL     1      20.701   3.493  50.021  1.00  0.00    -0.355 N 
HETATM    5  C5  UNL     1      21.749   3.776  49.155  1.00  0.00     0.250 C 
HETATM    6  O1  UNL     1      21.976   2.705  48.620  1.00  0.00    -0.268 OA
HETATM    7  C6  UNL     1      22.662   4.746  48.623  1.00  0.00     0.046 C 
HETATM    8  C7  UNL     1      22.466   5.655  47.712  1.00  0.00     0.013 C 
HETATM    9  C8  UNL     1      21.100   5.632  47.177  1.00  0.00     0.068 C 
HETATM   10  N3  UNL     1      23.703   6.384  47.603  1.00  0.00    -0.392 N 
HETATM   11  C9  UNL     1      24.433   6.155  48.874  1.00  0.00     0.138 C 
HETATM   12  C10 UNL     1      24.044   4.723  49.085  1.00  0.00     0.136 C 
HETATM   13  C11 UNL     1      24.272   4.197  50.448  1.00  0.00     0.232 C 
HETATM   14  O2  UNL     1      24.341   4.354  51.712  1.00  0.00    -0.272 OA
HETATM   15  N4  UNL     1      24.577   2.893  50.857  1.00  0.00    -0.326 N 
HETATM   16  C12 UNL     1      24.879   1.767  51.621  1.00  0.00     0.041 A 
HETATM   17  C13 UNL     1      26.253   1.439  51.502  1.00  0.00     0.033 A 
HETATM   18  C14 UNL     1      26.799   0.337  52.167  1.00  0.00     0.044 A 
HETATM   19  C15 UNL     1      25.856  -0.373  52.932  1.00  0.00     0.117 A 
HETATM   20  F1  UNL     1      26.406  -1.412  53.560  1.00  0.00    -0.206 F 
HETATM   21  C16 UNL     1      24.513  -0.029  53.030  1.00  0.00     0.051 A 
HETATM   22  C17 UNL     1      24.002   1.057  52.372  1.00  0.00    -0.027 A 
HETATM   23  C18 UNL     1      22.605   1.455  52.613  1.00  0.00     0.060 C 
HETATM   24  C19 UNL     1      21.638   0.701  51.734  1.00  0.00     0.121 C 
HETATM   25  H10 UNL     1      20.812   4.548  50.195  1.00  0.00     0.162 HD
HETATM   26  H14 UNL     1      23.840   6.906  46.681  1.00  0.00     0.159 HD
HETATM   27  H18 UNL     1      24.571   2.403  49.914  1.00  0.00     0.169 HD
ENDROOT
BRANCH   1  28
HETATM   28  C2  UNL     1      19.274   0.154  51.596  1.00  0.00     0.112 C 
HETATM   29  C1  UNL     1      18.696  -0.593  52.779  1.00  0.00     0.026 C 
ENDBRANCH   1  28
TORSDOF 1
ENDMDL
MODEL 8
REMARK VINA RESULT:      -7.9      6.236      8.477
REMARK  1 active torsions:
REMARK  status: ('A' for Active; 'I' for Inactive)
REMARK    1  A    between atoms: C2_2  and  N1_3 
ROOT
HETATM    1  N1  UNL     1      30.745   8.244  47.782  1.00  0.00    -0.411 N 
HETATM    2  C3  UNL     1      30.503   9.171  46.777  1.00  0.00     0.136 C 
HETATM    3  C4  UNL     1      30.091  10.581  46.994  1.00  0.00     0.142 C 
HETATM    4  N2  UNL     1      28.829  10.847  47.583  1.00  0.00    -0.355 N 
HETATM    5  C5  UNL     1      27.596  11.104  48.166  1.00  0.00     0.250 C 
HETATM    6  O1  UNL     1      27.748  10.758  49.324  1.00  0.00    -0.268 OA
HETATM    7  C6  UNL     1      26.252  11.584  48.014  1.00  0.00     0.046 C 
HETATM    8  C7  UNL     1      25.810  12.808  47.981  1.00  0.00     0.013 C 
HETATM    9  C8  UNL     1      26.881  13.799  48.135  1.00  0.00     0.068 C 
HETATM   10  N3  UNL     1      24.391  12.713  47.758  1.00  0.00    -0.392 N 
HETATM   11  C9  UNL     1      24.153  11.378  47.158  1.00  0.00     0.138 C 
HETATM   12  C10 UNL     1      25.172  10.609  47.944  1.00  0.00     0.136 C 
HETATM   13  C11 UNL     1      25.521   9.279  47.403  1.00  0.00     0.232 C 
HETATM   14  O2  UNL     1      25.685   8.475  46.425  1.00  0.00    -0.272 OA
HETATM   15  N4  UNL     1      25.928   8.123  48.080  1.00  0.00    -0.326 N 
HETATM   16  C12 UNL     1      26.340   6.828  48.386  1.00  0.00     0.041 A 
HETATM   17  C13 UNL     1      25.267   6.079  48.932  1.00  0.00     0.033 A 
HETATM   18  C14 UNL     1      25.435   4.750  49.332  1.00  0.00     0.044 A 
HETATM   19  C15 UNL     1      26.742   4.272  49.135  1.00  0.00     0.117 A 
HETATM   20  F1  UNL     1      26.871   3.001  49.517  1.00  0.00    -0.206 F 
HETATM   21  C16 UNL     1      27.777   5.028  48.597  1.00  0.00     0.051 A 
HETATM   22  C17 UNL     1      27.588   6.328  48.210  1.00  0.00    -0.027 A 
HETATM   23  C18 UNL     1      28.679   7.043  47.526  1.00  0.00     0.060 C 
HETATM   24  C19 UNL     1      29.647   7.668  48.499  1.00  0.00     0.121 C 
HETATM   25  H10 UNL     1      28.307  11.271  46.744  1.00  0.00     0.162 HD
HETATM   26  H14 UNL     1      23.828  13.571  48.058  1.00  0.00     0.159 HD
HETATM   27  H18 UNL     1      25.932   8.491  49.077  1.00  0.00     0.169 HD
ENDROOT
BRANCH   1  28
HETATM   28  C2  UNL     1      31.906   8.563  48.575  1.00  0.00     0.112 C 
HETATM   29  C1  UNL     1      31.947   7.594  49.738  1.00  0.00     0.026 C 
ENDBRANCH   1  28
TORSDOF 1
ENDMDL
MODEL 9
REMARK VINA RESULT:      -7.7      7.619     10.937
REMARK  1 active torsions:
REMARK  status: ('A' for Active; 'I' for Inactive)
REMARK    1  A    between atoms: C2_2  and  N1_3 
ROOT
HETATM    1  N1  UNL     1      31.906   9.443  48.143  1.00  0.00    -0.411 N 
HETATM    2  C3  UNL     1      31.764   8.536  49.186  1.00  0.00     0.136 C 
HETATM    3  C4  UNL     1      31.113   7.206  49.080  1.00  0.00     0.142 C 
HETATM    4  N2  UNL     1      29.726   7.139  48.794  1.00  0.00    -0.355 N 
HETATM    5  C5  UNL     1      28.370   7.076  48.507  1.00  0.00     0.250 C 
HETATM    6  O1  UNL     1      28.306   7.423  47.341  1.00  0.00    -0.268 OA
HETATM    7  C6  UNL     1      27.039   6.790  48.963  1.00  0.00     0.046 C 
HETATM    8  C7  UNL     1      26.442   5.643  49.107  1.00  0.00     0.013 C 
HETATM    9  C8  UNL     1      27.295   4.511  48.724  1.00  0.00     0.068 C 
HETATM   10  N3  UNL     1      25.139   5.936  49.644  1.00  0.00    -0.392 N 
HETATM   11  C9  UNL     1      25.239   7.277  50.270  1.00  0.00     0.138 C 
HETATM   12  C10 UNL     1      26.156   7.909  49.266  1.00  0.00     0.136 C 
HETATM   13  C11 UNL     1      26.808   9.162  49.702  1.00  0.00     0.232 C 
HETATM   14  O2  UNL     1      27.302   9.910  50.609  1.00  0.00    -0.272 OA
HETATM   15  N4  UNL     1      27.216  10.262  48.939  1.00  0.00    -0.326 N 
HETATM   16  C12 UNL     1      27.733  11.492  48.535  1.00  0.00     0.041 A 
HETATM   17  C13 UNL     1      26.685  12.400  48.240  1.00  0.00     0.033 A 
HETATM   18  C14 UNL     1      26.950  13.700  47.800  1.00  0.00     0.044 A 
HETATM   19  C15 UNL     1      28.324  13.981  47.692  1.00  0.00     0.117 A 
HETATM   20  F1  UNL     1      28.547  15.228  47.278  1.00  0.00    -0.206 F 
HETATM   21  C16 UNL     1      29.332  13.071  47.988  1.00  0.00     0.051 A 
HETATM   22  C17 UNL     1      29.047  11.803  48.421  1.00  0.00    -0.027 A 
HETATM   23  C18 UNL     1      30.148  10.922  48.847  1.00  0.00     0.060 C 
HETATM   24  C19 UNL     1      30.771  10.187  47.687  1.00  0.00     0.121 C 
HETATM   25  H10 UNL     1      29.350   6.774  49.733  1.00  0.00     0.162 HD
HETATM   26  H14 UNL     1      24.404   5.175  49.487  1.00  0.00     0.159 HD
HETATM   27  H18 UNL     1      26.942   9.922  47.971  1.00  0.00     0.169 HD
ENDROOT
BRANCH   1  28
HETATM   28  C2  UNL     1      32.800   8.979  47.111  1.00  0.00     0.112 C 
HETATM   29  C1  UNL     1      31.997   8.850  45.834  1.00  0.00     0.026 C 
ENDBRANCH   1  28
TORSDOF 1
ENDMDL
