MODEL 1
REMARK VINA RESULT:      -8.1      0.000      0.000
REMARK  5 active torsions:
REMARK  status: ('A' for Active; 'I' for Inactive)
REMARK    1  A    between atoms: C2_3  and  N2_4 
REMARK    2  A    between atoms: C2_3  and  C10_12 
REMARK    3  A    between atoms: N2_4  and  C3_5 
REMARK    4  A    between atoms: C3_5  and  C4_6 
REMARK    5  A    between atoms: C12_16  and  C13_17 
ROOT
HETATM    1  C10 UNL     1      24.862  -0.723  54.354  1.00  0.00     0.005 C 
HETATM    2  C11 UNL     1      24.613  -1.281  55.528  1.00  0.00     0.112 C 
HETATM    3  N3  UNL     1      23.290  -1.609  55.914  1.00  0.00    -0.331 N 
HETATM    4  N4  UNL     1      22.288  -1.646  54.908  1.00  0.00    -0.232 NA
HETATM    5  C12 UNL     1      22.465  -0.385  54.184  1.00  0.00     0.113 C 
HETATM    6  C19 UNL     1      23.760  -0.423  53.405  1.00  0.00     0.070 C 
HETATM    7  H13 UNL     1      23.049  -1.820  56.905  1.00  0.00     0.179 HD
HETATM    8  H14 UNL     1      22.599  -2.388  54.239  1.00  0.00     0.147 HD
ENDROOT
BRANCH   1   9
HETATM    9  C2  UNL     1      26.262  -0.398  53.994  1.00  0.00     0.126 C 
HETATM   10  N1  UNL     1      27.144  -1.008  53.303  1.00  0.00    -0.277 NA
HETATM   11  C1  UNL     1      27.082  -2.249  52.627  1.00  0.00     0.179 C 
BRANCH   9  12
HETATM   12  N2  UNL     1      26.831   0.837  54.467  1.00  0.00    -0.370 N 
HETATM   13  H4  UNL     1      27.090   0.929  55.485  1.00  0.00     0.161 HD
BRANCH  12  14
HETATM   14  C3  UNL     1      27.071   1.984  53.578  1.00  0.00     0.160 C 
BRANCH  14  15
HETATM   15  C4  UNL     1      25.858   2.422  52.876  1.00  0.00    -0.041 A 
HETATM   16  C5  UNL     1      25.868   2.283  51.481  1.00  0.00     0.009 A 
HETATM   17  C6  UNL     1      24.825   2.646  50.690  1.00  0.00     0.001 A 
HETATM   18  C7  UNL     1      23.679   3.182  51.235  1.00  0.00     0.000 A 
HETATM   19  C8  UNL     1      23.637   3.332  52.607  1.00  0.00     0.001 A 
HETATM   20  C9  UNL     1      24.700   2.959  53.381  1.00  0.00     0.009 A 
ENDBRANCH  14  15
ENDBRANCH  12  14
ENDBRANCH   9  12
ENDBRANCH   1   9
BRANCH   5  21
HETATM   21  C13 UNL     1      21.280  -0.253  53.307  1.00  0.00    -0.039 A 
HETATM   22  C14 UNL     1      21.577   0.249  52.046  1.00  0.00     0.009 A 
HETATM   23  C15 UNL     1      20.558   0.429  51.112  1.00  0.00     0.001 A 
HETATM   24  C16 UNL     1      19.240   0.115  51.410  1.00  0.00     0.000 A 
HETATM   25  C17 UNL     1      18.984  -0.381  52.670  1.00  0.00     0.001 A 
HETATM   26  C18 UNL     1      19.967  -0.569  53.613  1.00  0.00     0.009 A 
ENDBRANCH   5  21
TORSDOF 5
ENDMDL
MODEL 2
REMARK VINA RESULT:      -8.0      2.918      6.197
REMARK  5 active torsions:
REMARK  status: ('A' for Active; 'I' for Inactive)
REMARK    1  A    between atoms: C2_3  and  N2_4 
REMARK    2  A    between atoms: C2_3  and  C10_12 
REMARK    3  A    between atoms: N2_4  and  C3_5 
REMARK    4  A    between atoms: C3_5  and  C4_6 
REMARK    5  A    between atoms: C12_16  and  C13_17 
ROOT
HETATM    1  C10 UNL     1      24.403   2.010  51.954  1.00  0.00     0.005 C 
HETATM    2  C11 UNL     1      24.277   2.921  52.906  1.00  0.00     0.112 C 
HETATM    3  N3  UNL     1      25.247   3.043  53.932  1.00  0.00    -0.331 N 
HETATM    4  N4  UNL     1      26.507   2.416  53.740  1.00  0.00    -0.232 NA
HETATM    5  C12 UNL     1      26.167   1.056  53.318  1.00  0.00     0.113 C 
HETATM    6  C19 UNL     1      25.566   1.088  51.933  1.00  0.00     0.070 C 
HETATM    7  H13 UNL     1      25.051   3.576  54.805  1.00  0.00     0.179 HD
HETATM    8  H14 UNL     1      26.911   2.871  52.887  1.00  0.00     0.147 HD
ENDROOT
BRANCH   1   9
HETATM    9  C2  UNL     1      23.363   1.920  50.903  1.00  0.00     0.126 C 
HETATM   10  N1  UNL     1      22.265   1.274  50.821  1.00  0.00    -0.277 NA
HETATM   11  C1  UNL     1      21.653   0.388  51.738  1.00  0.00     0.179 C 
BRANCH   9  12
HETATM   12  N2  UNL     1      23.529   2.685  49.695  1.00  0.00    -0.370 N 
HETATM   13  H4  UNL     1      23.568   2.183  48.768  1.00  0.00     0.161 HD
BRANCH  12  14
HETATM   14  C3  UNL     1      23.642   4.152  49.700  1.00  0.00     0.160 C 
BRANCH  14  15
HETATM   15  C4  UNL     1      24.979   4.619  49.312  1.00  0.00    -0.041 A 
HETATM   16  C5  UNL     1      25.059   5.935  48.836  1.00  0.00     0.009 A 
HETATM   17  C6  UNL     1      26.222   6.511  48.434  1.00  0.00     0.001 A 
HETATM   18  C7  UNL     1      27.408   5.811  48.477  1.00  0.00     0.000 A 
HETATM   19  C8  UNL     1      27.363   4.512  48.943  1.00  0.00     0.001 A 
HETATM   20  C9  UNL     1      26.180   3.955  49.340  1.00  0.00     0.009 A 
ENDBRANCH  14  15
ENDBRANCH  12  14
ENDBRANCH   9  12
ENDBRANCH   1   9
BRANCH   5  21
HETATM   21  C13 UNL     1      27.433   0.290  53.369  1.00  0.00    -0.039 A 
HETATM   22  C14 UNL     1      27.289  -1.043  53.000  1.00  0.00     0.009 A 
HETATM   23  C15 UNL     1      28.399  -1.887  53.002  1.00  0.00     0.001 A 
HETATM   24  C16 UNL     1      29.656  -1.429  53.364  1.00  0.00     0.000 A 
HETATM   25  C17 UNL     1      29.760  -0.102  53.723  1.00  0.00     0.001 A 
HETATM   26  C18 UNL     1      28.685   0.756  53.733  1.00  0.00     0.009 A 
ENDBRANCH   5  21
TORSDOF 5
ENDMDL
MODEL 3
REMARK VINA RESULT:      -8.0      2.408      6.439
REMARK  5 active torsions:
REMARK  status: ('A' for Active; 'I' for Inactive)
REMARK    1  A    between atoms: C2_3  and  N2_4 
REMARK    2  A    between atoms: C2_3  and  C10_12 
REMARK    3  A    between atoms: N2_4  and  C3_5 
REMARK    4  A    between atoms: C3_5  and  C4_6 
REMARK    5  A    between atoms: C12_16  and  C13_17 
ROOT
HETATM    1  C10 UNL     1      24.421   2.401  51.625  1.00  0.00     0.005 C 
HETATM    2  C11 UNL     1      24.205   3.219  52.643  1.00  0.00     0.112 C 
HETATM    3  N3  UNL     1      25.043   3.199  53.785  1.00  0.00    -0.331 N 
HETATM    4  N4  UNL     1      26.299   2.541  53.684  1.00  0.00    -0.232 NA
HETATM    5  C12 UNL     1      25.972   1.244  53.088  1.00  0.00     0.113 C 
HETATM    6  C19 UNL     1      25.549   1.436  51.650  1.00  0.00     0.070 C 
HETATM    7  H13 UNL     1      24.757   3.652  54.678  1.00  0.00     0.179 HD
HETATM    8  H14 UNL     1      26.819   3.058  52.937  1.00  0.00     0.147 HD
ENDROOT
BRANCH   1   9
HETATM    9  C2  UNL     1      23.517   2.458  50.452  1.00  0.00     0.126 C 
HETATM   10  N1  UNL     1      23.395   3.289  49.491  1.00  0.00    -0.277 NA
HETATM   11  C1  UNL     1      24.104   4.481  49.214  1.00  0.00     0.179 C 
BRANCH   9  12
HETATM   12  N2  UNL     1      22.551   1.407  50.268  1.00  0.00    -0.370 N 
HETATM   13  H4  UNL     1      22.722   0.673  49.530  1.00  0.00     0.161 HD
BRANCH  12  14
HETATM   14  C3  UNL     1      21.327   1.312  51.078  1.00  0.00     0.160 C 
BRANCH  14  15
HETATM   15  C4  UNL     1      21.523   0.549  52.316  1.00  0.00    -0.041 A 
HETATM   16  C5  UNL     1      20.740   0.938  53.412  1.00  0.00     0.009 A 
HETATM   17  C6  UNL     1      20.808   0.334  54.627  1.00  0.00     0.001 A 
HETATM   18  C7  UNL     1      21.674  -0.716  54.846  1.00  0.00     0.000 A 
HETATM   19  C8  UNL     1      22.460  -1.123  53.786  1.00  0.00     0.001 A 
HETATM   20  C9  UNL     1      22.372  -0.499  52.573  1.00  0.00     0.009 A 
ENDBRANCH  14  15
ENDBRANCH  12  14
ENDBRANCH   9  12
ENDBRANCH   1   9
BRANCH   5  21
HETATM   21  C13 UNL     1      27.198   0.423  53.212  1.00  0.00    -0.039 A 
HETATM   22  C14 UNL     1      28.311   1.147  53.621  1.00  0.00     0.009 A 
HETATM   23  C15 UNL     1      29.538   0.504  53.780  1.00  0.00     0.001 A 
HETATM   24  C16 UNL     1      29.679  -0.854  53.541  1.00  0.00     0.000 A 
HETATM   25  C17 UNL     1      28.554  -1.540  53.138  1.00  0.00     0.001 A 
HETATM   26  C18 UNL     1      27.330  -0.934  52.971  1.00  0.00     0.009 A 
ENDBRANCH   5  21
TORSDOF 5
ENDMDL
MODEL 4
REMARK VINA RESULT:      -8.0      2.609      6.808
REMARK  5 active torsions:
REMARK  status: ('A' for Active; 'I' for Inactive)
REMARK    1  A    between atoms: C2_3  and  N2_4 
REMARK    2  A    between atoms: C2_3  and  C10_12 
REMARK    3  A    between atoms: N2_4  and  C3_5 
REMARK    4  A    between atoms: C3_5  and  C4_6 
REMARK    5  A    between atoms: C12_16  and  C13_17 
ROOT
HETATM    1  C10 UNL     1      24.227   2.843  50.931  1.00  0.00     0.005 C 
HETATM    2  C11 UNL     1      24.786   3.950  50.469  1.00  0.00     0.112 C 
HETATM    3  N3  UNL     1      26.173   4.187  50.625  1.00  0.00    -0.331 N 
HETATM    4  N4  UNL     1      27.006   3.090  50.976  1.00  0.00    -0.232 NA
HETATM    5  C12 UNL     1      26.315   2.469  52.108  1.00  0.00     0.113 C 
HETATM    6  C19 UNL     1      25.039   1.816  51.630  1.00  0.00     0.070 C 
HETATM    7  H13 UNL     1      26.582   5.135  50.488  1.00  0.00     0.179 HD
HETATM    8  H14 UNL     1      26.903   2.407  50.188  1.00  0.00     0.147 HD
ENDROOT
BRANCH   1   9
HETATM    9  C2  UNL     1      22.771   2.640  50.744  1.00  0.00     0.126 C 
HETATM   10  N1  UNL     1      21.756   3.382  50.963  1.00  0.00    -0.277 NA
HETATM   11  C1  UNL     1      21.676   4.695  51.483  1.00  0.00     0.179 C 
BRANCH   9  12
HETATM   12  N2  UNL     1      22.309   1.388  50.205  1.00  0.00    -0.370 N 
HETATM   13  H4  UNL     1      22.791   0.981  49.359  1.00  0.00     0.161 HD
BRANCH  12  14
HETATM   14  C3  UNL     1      21.185   0.644  50.794  1.00  0.00     0.160 C 
BRANCH  14  15
HETATM   15  C4  UNL     1      21.468   0.170  52.154  1.00  0.00    -0.041 A 
HETATM   16  C5  UNL     1      20.589   0.605  53.155  1.00  0.00     0.009 A 
HETATM   17  C6  UNL     1      20.720   0.258  54.462  1.00  0.00     0.001 A 
HETATM   18  C7  UNL     1      21.749  -0.560  54.876  1.00  0.00     0.000 A 
HETATM   19  C8  UNL     1      22.633  -1.006  53.913  1.00  0.00     0.001 A 
HETATM   20  C9  UNL     1      22.480  -0.642  52.604  1.00  0.00     0.009 A 
ENDBRANCH  14  15
ENDBRANCH  12  14
ENDBRANCH   9  12
ENDBRANCH   1   9
BRANCH   5  21
HETATM   21  C13 UNL     1      27.272   1.493  52.677  1.00  0.00    -0.039 A 
HETATM   22  C14 UNL     1      26.894   0.170  52.485  1.00  0.00     0.009 A 
HETATM   23  C15 UNL     1      27.700  -0.860  52.970  1.00  0.00     0.001 A 
HETATM   24  C16 UNL     1      28.882  -0.597  53.645  1.00  0.00     0.000 A 
HETATM   25  C17 UNL     1      29.224   0.727  53.817  1.00  0.00     0.001 A 
HETATM   26  C18 UNL     1      28.451   1.765  53.351  1.00  0.00     0.009 A 
ENDBRANCH   5  21
TORSDOF 5
ENDMDL
MODEL 5
REMARK VINA RESULT:      -7.7      2.813      5.846
REMARK  5 active torsions:
REMARK  status: ('A' for Active; 'I' for Inactive)
REMARK    1  A    between atoms: C2_3  and  N2_4 
REMARK    2  A    between atoms: C2_3  and  C10_12 
REMARK    3  A    between atoms: N2_4  and  C3_5 
REMARK    4  A    between atoms: C3_5  and  C4_6 
REMARK    5  A    between atoms: C12_16  and  C13_17 
ROOT
HETATM    1  C10 UNL     1      23.890   1.012  52.281  1.00  0.00     0.005 C 
HETATM    2  C11 UNL     1      23.133   0.326  53.122  1.00  0.00     0.112 C 
HETATM    3  N3  UNL     1      23.706  -0.587  54.042  1.00  0.00    -0.331 N 
HETATM    4  N4  UNL     1      25.104  -0.509  54.281  1.00  0.00    -0.232 NA
HETATM    5  C12 UNL     1      25.692  -0.473  52.940  1.00  0.00     0.113 C 
HETATM    6  C19 UNL     1      25.366   0.844  52.276  1.00  0.00     0.070 C 
HETATM    7  H13 UNL     1      23.126  -1.299  54.534  1.00  0.00     0.179 HD
HETATM    8  H14 UNL     1      25.261   0.450  54.671  1.00  0.00     0.147 HD
ENDROOT
BRANCH   1   9
HETATM    9  C2  UNL     1      23.246   1.955  51.338  1.00  0.00     0.126 C 
HETATM   10  N1  UNL     1      22.300   1.825  50.491  1.00  0.00    -0.277 NA
HETATM   11  C1  UNL     1      21.525   0.692  50.152  1.00  0.00     0.179 C 
BRANCH   9  12
HETATM   12  N2  UNL     1      23.704   3.320  51.299  1.00  0.00    -0.370 N 
HETATM   13  H4  UNL     1      24.098   3.756  52.174  1.00  0.00     0.161 HD
BRANCH  12  14
HETATM   14  C3  UNL     1      23.647   4.135  50.076  1.00  0.00     0.160 C 
BRANCH  14  15
HETATM   15  C4  UNL     1      24.977   4.503  49.578  1.00  0.00    -0.041 A 
HETATM   16  C5  UNL     1      25.109   5.805  49.074  1.00  0.00     0.009 A 
HETATM   17  C6  UNL     1      26.273   6.294  48.572  1.00  0.00     0.001 A 
HETATM   18  C7  UNL     1      27.409   5.514  48.535  1.00  0.00     0.000 A 
HETATM   19  C8  UNL     1      27.312   4.227  49.025  1.00  0.00     0.001 A 
HETATM   20  C9  UNL     1      26.129   3.758  49.523  1.00  0.00     0.009 A 
ENDBRANCH  14  15
ENDBRANCH  12  14
ENDBRANCH   9  12
ENDBRANCH   1   9
BRANCH   5  21
HETATM   21  C13 UNL     1      27.147  -0.665  53.133  1.00  0.00    -0.039 A 
HETATM   22  C14 UNL     1      27.817   0.499  53.490  1.00  0.00     0.009 A 
HETATM   23  C15 UNL     1      29.195   0.470  53.704  1.00  0.00     0.001 A 
HETATM   24  C16 UNL     1      29.923  -0.702  53.569  1.00  0.00     0.000 A 
HETATM   25  C17 UNL     1      29.225  -1.837  53.214  1.00  0.00     0.001 A 
HETATM   26  C18 UNL     1      27.867  -1.840  52.996  1.00  0.00     0.009 A 
ENDBRANCH   5  21
TORSDOF 5
ENDMDL
MODEL 6
REMARK VINA RESULT:      -7.6      2.740      4.879
REMARK  5 active torsions:
REMARK  status: ('A' for Active; 'I' for Inactive)
REMARK    1  A    between atoms: C2_3  and  N2_4 
REMARK    2  A    between atoms: C2_3  and  C10_12 
REMARK    3  A    between atoms: N2_4  and  C3_5 
REMARK    4  A    between atoms: C3_5  and  C4_6 
REMARK    5  A    between atoms: C12_16  and  C13_17 
ROOT
HETATM    1  C10 UNL     1      23.642   3.149  50.665  1.00  0.00     0.005 C 
HETATM    2  C11 UNL     1      23.134   2.859  49.478  1.00  0.00     0.112 C 
HETATM    3  N3  UNL     1      22.219   1.790  49.317  1.00  0.00    -0.331 N 
HETATM    4  N4  UNL     1      21.601   1.256  50.481  1.00  0.00    -0.232 NA
HETATM    5  C12 UNL     1      22.716   1.032  51.403  1.00  0.00     0.113 C 
HETATM    6  C19 UNL     1      23.269   2.360  51.866  1.00  0.00     0.070 C 
HETATM    7  H13 UNL     1      21.998   1.399  48.377  1.00  0.00     0.179 HD
HETATM    8  H14 UNL     1      21.063   2.053  50.894  1.00  0.00     0.147 HD
ENDROOT
BRANCH   1   9
HETATM    9  C2  UNL     1      24.595   4.277  50.783  1.00  0.00     0.126 C 
HETATM   10  N1  UNL     1      24.444   5.545  50.790  1.00  0.00    -0.277 NA
HETATM   11  C1  UNL     1      23.271   6.327  50.677  1.00  0.00     0.179 C 
BRANCH   9  12
HETATM   12  N2  UNL     1      25.998   3.988  50.931  1.00  0.00    -0.370 N 
HETATM   13  H4  UNL     1      26.627   4.706  51.380  1.00  0.00     0.161 HD
BRANCH  12  14
HETATM   14  C3  UNL     1      26.592   2.720  50.481  1.00  0.00     0.160 C 
BRANCH  14  15
HETATM   15  C4  UNL     1      26.817   1.777  51.583  1.00  0.00    -0.041 A 
HETATM   16  C5  UNL     1      27.484   2.286  52.706  1.00  0.00     0.009 A 
HETATM   17  C6  UNL     1      27.770   1.539  53.804  1.00  0.00     0.001 A 
HETATM   18  C7  UNL     1      27.408   0.210  53.867  1.00  0.00     0.000 A 
HETATM   19  C8  UNL     1      26.749  -0.322  52.777  1.00  0.00     0.001 A 
HETATM   20  C9  UNL     1      26.473   0.452  51.684  1.00  0.00     0.009 A 
ENDBRANCH  14  15
ENDBRANCH  12  14
ENDBRANCH   9  12
ENDBRANCH   1   9
BRANCH   5  21
HETATM   21  C13 UNL     1      22.162   0.230  52.518  1.00  0.00    -0.039 A 
HETATM   22  C14 UNL     1      23.128  -0.226  53.406  1.00  0.00     0.009 A 
HETATM   23  C15 UNL     1      22.752  -0.996  54.506  1.00  0.00     0.001 A 
HETATM   24  C16 UNL     1      21.426  -1.323  54.741  1.00  0.00     0.000 A 
HETATM   25  C17 UNL     1      20.495  -0.853  53.839  1.00  0.00     0.001 A 
HETATM   26  C18 UNL     1      20.834  -0.092  52.744  1.00  0.00     0.009 A 
ENDBRANCH   5  21
TORSDOF 5
ENDMDL
MODEL 7
REMARK VINA RESULT:      -7.5      2.261      6.905
REMARK  5 active torsions:
REMARK  status: ('A' for Active; 'I' for Inactive)
REMARK    1  A    between atoms: C2_3  and  N2_4 
REMARK    2  A    between atoms: C2_3  and  C10_12 
REMARK    3  A    between atoms: N2_4  and  C3_5 
REMARK    4  A    between atoms: C3_5  and  C4_6 
REMARK    5  A    between atoms: C12_16  and  C13_17 
ROOT
HETATM    1  C10 UNL     1      24.009   1.651  52.149  1.00  0.00     0.005 C 
HETATM    2  C11 UNL     1      23.961   2.776  52.843  1.00  0.00     0.112 C 
HETATM    3  N3  UNL     1      25.066   3.201  53.621  1.00  0.00    -0.331 N 
HETATM    4  N4  UNL     1      26.328   2.590  53.383  1.00  0.00    -0.232 NA
HETATM    5  C12 UNL     1      26.034   1.156  53.389  1.00  0.00     0.113 C 
HETATM    6  C19 UNL     1      25.223   0.797  52.166  1.00  0.00     0.070 C 
HETATM    7  H13 UNL     1      24.968   3.939  54.349  1.00  0.00     0.179 HD
HETATM    8  H14 UNL     1      26.556   2.816  52.387  1.00  0.00     0.147 HD
ENDROOT
BRANCH   1   9
HETATM    9  C2  UNL     1      22.828   1.248  51.350  1.00  0.00     0.126 C 
HETATM   10  N1  UNL     1      22.393   1.603  50.203  1.00  0.00    -0.277 NA
HETATM   11  C1  UNL     1      22.910   2.539  49.278  1.00  0.00     0.179 C 
BRANCH   9  12
HETATM   12  N2  UNL     1      21.932   0.257  51.886  1.00  0.00    -0.370 N 
HETATM   13  H4  UNL     1      22.024  -0.746  51.572  1.00  0.00     0.161 HD
BRANCH  12  14
HETATM   14  C3  UNL     1      20.887   0.588  52.867  1.00  0.00     0.160 C 
BRANCH  14  15
HETATM   15  C4  UNL     1      19.566   0.075  52.483  1.00  0.00    -0.041 A 
HETATM   16  C5  UNL     1      18.992  -0.865  53.351  1.00  0.00     0.009 A 
HETATM   17  C6  UNL     1      17.779  -1.436  53.133  1.00  0.00     0.001 A 
HETATM   18  C7  UNL     1      17.035  -1.108  52.020  1.00  0.00     0.000 A 
HETATM   19  C8  UNL     1      17.572  -0.184  51.145  1.00  0.00     0.001 A 
HETATM   20  C9  UNL     1      18.796   0.375  51.387  1.00  0.00     0.009 A 
ENDBRANCH  14  15
ENDBRANCH  12  14
ENDBRANCH   9  12
ENDBRANCH   1   9
BRANCH   5  21
HETATM   21  C13 UNL     1      27.349   0.476  53.417  1.00  0.00    -0.039 A 
HETATM   22  C14 UNL     1      27.277  -0.880  53.121  1.00  0.00     0.009 A 
HETATM   23  C15 UNL     1      28.439  -1.651  53.111  1.00  0.00     0.001 A 
HETATM   24  C16 UNL     1      29.679  -1.095  53.390  1.00  0.00     0.000 A 
HETATM   25  C17 UNL     1      29.710   0.252  53.679  1.00  0.00     0.001 A 
HETATM   26  C18 UNL     1      28.582   1.039  53.698  1.00  0.00     0.009 A 
ENDBRANCH   5  21
TORSDOF 5
ENDMDL
MODEL 8
REMARK VINA RESULT:      -7.3      1.888      3.963
REMARK  5 active torsions:
REMARK  status: ('A' for Active; 'I' for Inactive)
REMARK    1  A    between atoms: C2_3  and  N2_4 
REMARK    2  A    between atoms: C2_3  and  C10_12 
REMARK    3  A    between atoms: N2_4  and  C3_5 
REMARK    4  A    between atoms: C3_5  and  C4_6 
REMARK    5  A    between atoms: C12_16  and  C13_17 
ROOT
HETATM    1  C10 UNL     1      22.403   0.141  53.460  1.00  0.00     0.005 C 
HETATM    2  C11 UNL     1      22.413  -0.565  54.580  1.00  0.00     0.112 C 
HETATM    3  N3  UNL     1      21.280  -1.313  54.981  1.00  0.00    -0.331 N 
HETATM    4  N4  UNL     1      20.268  -1.567  54.016  1.00  0.00    -0.232 NA
HETATM    5  C12 UNL     1      20.010  -0.255  53.419  1.00  0.00     0.113 C 
HETATM    6  C19 UNL     1      21.200   0.171  52.591  1.00  0.00     0.070 C 
HETATM    7  H13 UNL     1      21.181  -1.672  55.954  1.00  0.00     0.179 HD
HETATM    8  H14 UNL     1      20.742  -2.119  53.262  1.00  0.00     0.147 HD
ENDROOT
BRANCH   1   9
HETATM    9  C2  UNL     1      23.613   0.908  53.083  1.00  0.00     0.126 C 
HETATM   10  N1  UNL     1      23.782   2.033  52.504  1.00  0.00    -0.277 NA
HETATM   11  C1  UNL     1      22.835   2.958  52.007  1.00  0.00     0.179 C 
BRANCH   9  12
HETATM   12  N2  UNL     1      24.908   0.360  53.394  1.00  0.00    -0.370 N 
HETATM   13  H4  UNL     1      25.215   0.304  54.401  1.00  0.00     0.161 HD
BRANCH  12  14
HETATM   14  C3  UNL     1      25.825  -0.132  52.355  1.00  0.00     0.160 C 
BRANCH  14  15
HETATM   15  C4  UNL     1      27.211  -0.241  52.827  1.00  0.00    -0.041 A 
HETATM   16  C5  UNL     1      27.755  -1.533  52.850  1.00  0.00     0.009 A 
HETATM   17  C6  UNL     1      29.021  -1.800  53.265  1.00  0.00     0.001 A 
HETATM   18  C7  UNL     1      29.851  -0.786  53.693  1.00  0.00     0.000 A 
HETATM   19  C8  UNL     1      29.345   0.498  53.682  1.00  0.00     0.001 A 
HETATM   20  C9  UNL     1      28.067   0.740  53.260  1.00  0.00     0.009 A 
ENDBRANCH  14  15
ENDBRANCH  12  14
ENDBRANCH   9  12
ENDBRANCH   1   9
BRANCH   5  21
HETATM   21  C13 UNL     1      18.783  -0.417  52.606  1.00  0.00    -0.039 A 
HETATM   22  C14 UNL     1      18.855   0.204  51.365  1.00  0.00     0.009 A 
HETATM   23  C15 UNL     1      17.771   0.137  50.491  1.00  0.00     0.001 A 
HETATM   24  C16 UNL     1      16.610  -0.542  50.829  1.00  0.00     0.000 A 
HETATM   25  C17 UNL     1      16.575  -1.145  52.068  1.00  0.00     0.001 A 
HETATM   26  C18 UNL     1      17.628  -1.096  52.952  1.00  0.00     0.009 A 
ENDBRANCH   5  21
TORSDOF 5
ENDMDL
MODEL 9
REMARK VINA RESULT:      -7.2      3.756      6.703
REMARK  5 active torsions:
REMARK  status: ('A' for Active; 'I' for Inactive)
REMARK    1  A    between atoms: C2_3  and  N2_4 
REMARK    2  A    between atoms: C2_3  and  C10_12 
REMARK    3  A    between atoms: N2_4  and  C3_5 
REMARK    4  A    between atoms: C3_5  and  C4_6 
REMARK    5  A    between atoms: C12_16  and  C13_17 
ROOT
HETATM    1  C10 UNL     1      24.174   2.827  51.250  1.00  0.00     0.005 C 
HETATM    2  C11 UNL     1      23.219   1.935  51.466  1.00  0.00     0.112 C 
HETATM    3  N3  UNL     1      23.492   0.725  52.149  1.00  0.00    -0.331 N 
HETATM    4  N4  UNL     1      24.703   0.630  52.887  1.00  0.00    -0.232 NA
HETATM    5  C12 UNL     1      25.727   1.099  51.951  1.00  0.00     0.113 C 
HETATM    6  C19 UNL     1      25.562   2.583  51.718  1.00  0.00     0.070 C 
HETATM    7  H13 UNL     1      22.830  -0.079  52.118  1.00  0.00     0.179 HD
HETATM    8  H14 UNL     1      24.638   1.379  53.615  1.00  0.00     0.147 HD
ENDROOT
BRANCH   1   9
HETATM    9  C2  UNL     1      23.840   4.078  50.531  1.00  0.00     0.126 C 
HETATM   10  N1  UNL     1      23.027   5.030  50.777  1.00  0.00    -0.277 NA
HETATM   11  C1  UNL     1      22.133   5.215  51.858  1.00  0.00     0.179 C 
BRANCH   9  12
HETATM   12  N2  UNL     1      24.523   4.373  49.298  1.00  0.00    -0.370 N 
HETATM   13  H4  UNL     1      24.861   3.578  48.693  1.00  0.00     0.161 HD
BRANCH  12  14
HETATM   14  C3  UNL     1      24.765   5.750  48.842  1.00  0.00     0.160 C 
BRANCH  14  15
HETATM   15  C4  UNL     1      26.174   6.000  48.516  1.00  0.00    -0.041 A 
HETATM   16  C5  UNL     1      27.066   4.953  48.787  1.00  0.00     0.009 A 
HETATM   17  C6  UNL     1      28.401   5.030  48.546  1.00  0.00     0.001 A 
HETATM   18  C7  UNL     1      28.955   6.172  48.008  1.00  0.00     0.000 A 
HETATM   19  C8  UNL     1      28.103   7.222  47.729  1.00  0.00     0.001 A 
HETATM   20  C9  UNL     1      26.764   7.119  47.981  1.00  0.00     0.009 A 
ENDBRANCH  14  15
ENDBRANCH  12  14
ENDBRANCH   9  12
ENDBRANCH   1   9
BRANCH   5  21
HETATM   21  C13 UNL     1      27.027   0.764  52.574  1.00  0.00    -0.039 A 
HETATM   22  C14 UNL     1      27.277  -0.601  52.635  1.00  0.00     0.009 A 
HETATM   23  C15 UNL     1      28.465  -1.064  53.199  1.00  0.00     0.001 A 
HETATM   24  C16 UNL     1      29.416  -0.191  53.705  1.00  0.00     0.000 A 
HETATM   25  C17 UNL     1      29.133   1.156  53.627  1.00  0.00     0.001 A 
HETATM   26  C18 UNL     1      27.970   1.645  53.078  1.00  0.00     0.009 A 
ENDBRANCH   5  21
TORSDOF 5
ENDMDL
