MODEL 1
REMARK VINA RESULT:      -8.5      0.000      0.000
REMARK  4 active torsions:
REMARK  status: ('A' for Active; 'I' for Inactive)
REMARK    1  A    between atoms: N1_1  and  C1_2 
REMARK    2  A    between atoms: C1_2  and  O1_3 
REMARK    3  A    between atoms: C2_4  and  S1_5 
REMARK    4  A    between atoms: S1_5  and  N2_6 
ROOT
HETATM    1  N2  UNL     1      25.206   0.496  53.529  1.00  0.00    -0.225 N 
HETATM    2  N3  UNL     1      25.181   1.345  52.443  1.00  0.00    -0.171 NA
HETATM    3  C3  UNL     1      24.054   1.437  51.881  1.00  0.00     0.043 C 
HETATM    4  C4  UNL     1      23.316   1.998  50.682  1.00  0.00     0.087 C 
HETATM    5  C5  UNL     1      22.053   1.184  50.527  1.00  0.00     0.021 C 
HETATM    6  C6  UNL     1      21.089   1.914  50.986  1.00  0.00     0.112 C 
HETATM    7  F1  UNL     1      21.236   3.146  51.467  1.00  0.00    -0.206 F 
HETATM    8  C7  UNL     1      19.742   2.016  51.494  1.00  0.00     0.038 C 
HETATM    9  C8  UNL     1      19.107   0.828  51.588  1.00  0.00    -0.020 C 
HETATM   10  C9  UNL     1      17.890   0.020  51.949  1.00  0.00     0.054 C 
HETATM   11  C10 UNL     1      18.279  -0.984  53.009  1.00  0.00    -0.023 C 
HETATM   12  C11 UNL     1      19.509  -1.098  53.466  1.00  0.00    -0.004 C 
HETATM   13  C12 UNL     1      20.690  -1.512  54.194  1.00  0.00    -0.000 C 
HETATM   14  C13 UNL     1      21.922  -1.586  54.609  1.00  0.00     0.002 C 
HETATM   15  C14 UNL     1      23.141  -0.895  54.288  1.00  0.00     0.028 C 
HETATM   16  C15 UNL     1      23.897  -0.019  53.663  1.00  0.00     0.047 C 
HETATM   17  C16 UNL     1      23.032   0.731  52.746  1.00  0.00     0.116 C 
ENDROOT
BRANCH   1  18
HETATM   18  S1  UNL     1      26.434  -0.018  54.673  1.00  0.00    -0.100 SA
BRANCH  18  19
HETATM   19  C2  UNL     1      28.081   0.457  54.170  1.00  0.00     0.251 C 
HETATM   20  C1  UNL     1      28.715   1.557  53.793  1.00  0.00     0.141 C 
BRANCH  20  21
HETATM   21  N1  UNL     1      27.970   2.767  53.737  1.00  0.00    -0.380 N 
HETATM   22  H1  UNL     1      28.810   3.395  53.898  1.00  0.00     0.158 HD
HETATM   23  H2  UNL     1      27.084   2.223  53.572  1.00  0.00     0.158 HD
ENDBRANCH  20  21
BRANCH  20  24
HETATM   24  O1  UNL     1      29.850   0.734  53.675  1.00  0.00    -0.346 OA
HETATM   25  H3  UNL     1      30.102   0.219  52.867  1.00  0.00     0.219 HD
ENDBRANCH  20  24
ENDBRANCH  18  19
ENDBRANCH   1  18
TORSDOF 4
ENDMDL
MODEL 2
REMARK VINA RESULT:      -7.8      4.064      5.641
REMARK  4 active torsions:
REMARK  status: ('A' for Active; 'I' for Inactive)
REMARK    1  A    between atoms: N1_1  and  C1_2 
REMARK    2  A    between atoms: C1_2  and  O1_3 
REMARK    3  A    between atoms: C2_4  and  S1_5 
REMARK    4  A    between atoms: S1_5  and  N2_6 
ROOT
HETATM    1  N2  UNL     1      25.784   3.858  50.310  1.00  0.00    -0.225 N 
HETATM    2  N3  UNL     1      26.917   3.226  50.779  1.00  0.00    -0.171 NA
HETATM    3  C3  UNL     1      26.693   2.335  51.646  1.00  0.00     0.043 C 
HETATM    4  C4  UNL     1      27.340   1.385  52.634  1.00  0.00     0.087 C 
HETATM    5  C5  UNL     1      26.286   1.034  53.657  1.00  0.00     0.021 C 
HETATM    6  C6  UNL     1      25.872  -0.154  53.363  1.00  0.00     0.112 C 
HETATM    7  F1  UNL     1      26.337  -0.890  52.356  1.00  0.00    -0.206 F 
HETATM    8  C7  UNL     1      24.867  -1.184  53.479  1.00  0.00     0.038 C 
HETATM    9  C8  UNL     1      23.798  -0.817  54.218  1.00  0.00    -0.020 C 
HETATM   10  C9  UNL     1      22.452  -1.127  54.815  1.00  0.00     0.054 C 
HETATM   11  C10 UNL     1      21.452  -0.125  54.286  1.00  0.00    -0.023 C 
HETATM   12  C11 UNL     1      21.786   0.852  53.468  1.00  0.00    -0.004 C 
HETATM   13  C12 UNL     1      21.757   2.008  52.597  1.00  0.00    -0.000 C 
HETATM   14  C13 UNL     1      22.141   2.958  51.792  1.00  0.00     0.002 C 
HETATM   15  C14 UNL     1      23.399   3.350  51.217  1.00  0.00     0.028 C 
HETATM   16  C15 UNL     1      24.692   3.274  50.988  1.00  0.00     0.047 C 
HETATM   17  C16 UNL     1      25.198   2.108  51.720  1.00  0.00     0.116 C 
ENDROOT
BRANCH   1  18
HETATM   18  S1  UNL     1      25.469   5.127  49.139  1.00  0.00    -0.100 SA
BRANCH  18  19
HETATM   19  C2  UNL     1      25.368   6.744  49.892  1.00  0.00     0.251 C 
HETATM   20  C1  UNL     1      26.157   7.790  50.083  1.00  0.00     0.141 C 
BRANCH  20  21
HETATM   21  N1  UNL     1      27.489   7.718  49.587  1.00  0.00    -0.380 N 
HETATM   22  H1  UNL     1      27.934   8.082  50.479  1.00  0.00     0.158 HD
HETATM   23  H2  UNL     1      27.135   7.351  48.667  1.00  0.00     0.158 HD
ENDBRANCH  20  21
BRANCH  20  24
HETATM   24  O1  UNL     1      25.050   8.373  50.726  1.00  0.00    -0.346 OA
HETATM   25  H3  UNL     1      24.146   7.970  50.786  1.00  0.00     0.219 HD
ENDBRANCH  20  24
ENDBRANCH  18  19
ENDBRANCH   1  18
TORSDOF 4
ENDMDL
MODEL 3
REMARK VINA RESULT:      -7.6      3.480      4.574
REMARK  4 active torsions:
REMARK  status: ('A' for Active; 'I' for Inactive)
REMARK    1  A    between atoms: N1_1  and  C1_2 
REMARK    2  A    between atoms: C1_2  and  O1_3 
REMARK    3  A    between atoms: C2_4  and  S1_5 
REMARK    4  A    between atoms: S1_5  and  N2_6 
ROOT
HETATM    1  N2  UNL     1      24.901   3.199  49.869  1.00  0.00    -0.225 N 
HETATM    2  N3  UNL     1      23.719   3.219  49.159  1.00  0.00    -0.171 NA
HETATM    3  C3  UNL     1      22.821   2.462  49.623  1.00  0.00     0.043 C 
HETATM    4  C4  UNL     1      21.443   1.884  49.371  1.00  0.00     0.087 C 
HETATM    5  C5  UNL     1      21.333   0.635  50.212  1.00  0.00     0.021 C 
HETATM    6  C6  UNL     1      20.602   0.944  51.233  1.00  0.00     0.112 C 
HETATM    7  F1  UNL     1      20.058   2.141  51.439  1.00  0.00    -0.206 F 
HETATM    8  C7  UNL     1      20.156   0.655  52.575  1.00  0.00     0.038 C 
HETATM    9  C8  UNL     1      20.740  -0.436  53.116  1.00  0.00    -0.020 C 
HETATM   10  C9  UNL     1      20.918  -1.388  54.268  1.00  0.00     0.054 C 
HETATM   11  C10 UNL     1      22.370  -1.362  54.690  1.00  0.00    -0.023 C 
HETATM   12  C11 UNL     1      23.276  -0.627  54.079  1.00  0.00    -0.004 C 
HETATM   13  C12 UNL     1      24.514   0.014  53.687  1.00  0.00    -0.000 C 
HETATM   14  C13 UNL     1      25.372   0.756  53.046  1.00  0.00     0.002 C 
HETATM   15  C14 UNL     1      25.296   1.647  51.920  1.00  0.00     0.028 C 
HETATM   16  C15 UNL     1      24.710   2.293  50.935  1.00  0.00     0.047 C 
HETATM   17  C16 UNL     1      23.287   1.939  50.965  1.00  0.00     0.116 C 
ENDROOT
BRANCH   1  18
HETATM   18  S1  UNL     1      26.450   4.011  49.719  1.00  0.00    -0.100 SA
BRANCH  18  19
HETATM   19  C2  UNL     1      26.314   5.611  48.937  1.00  0.00     0.251 C 
HETATM   20  C1  UNL     1      26.156   6.873  49.302  1.00  0.00     0.141 C 
BRANCH  20  21
HETATM   21  N1  UNL     1      26.056   7.155  50.693  1.00  0.00    -0.380 N 
HETATM   22  H1  UNL     1      25.003   7.285  50.681  1.00  0.00     0.158 HD
HETATM   23  H2  UNL     1      27.097   7.045  50.798  1.00  0.00     0.158 HD
ENDBRANCH  20  21
BRANCH  20  24
HETATM   24  O1  UNL     1      26.192   7.165  47.926  1.00  0.00    -0.346 OA
HETATM   25  H3  UNL     1      26.775   6.715  47.262  1.00  0.00     0.219 HD
ENDBRANCH  20  24
ENDBRANCH  18  19
ENDBRANCH   1  18
TORSDOF 4
ENDMDL
MODEL 4
REMARK VINA RESULT:      -7.5      4.073      6.122
REMARK  4 active torsions:
REMARK  status: ('A' for Active; 'I' for Inactive)
REMARK    1  A    between atoms: N1_1  and  C1_2 
REMARK    2  A    between atoms: C1_2  and  O1_3 
REMARK    3  A    between atoms: C2_4  and  S1_5 
REMARK    4  A    between atoms: S1_5  and  N2_6 
ROOT
HETATM    1  N2  UNL     1      23.340   4.822  49.210  1.00  0.00    -0.225 N 
HETATM    2  N3  UNL     1      22.070   4.319  49.404  1.00  0.00    -0.171 NA
HETATM    3  C3  UNL     1      22.032   3.250  50.075  1.00  0.00     0.043 C 
HETATM    4  C4  UNL     1      21.135   2.128  50.557  1.00  0.00     0.087 C 
HETATM    5  C5  UNL     1      22.035   0.962  50.890  1.00  0.00     0.021 C 
HETATM    6  C6  UNL     1      22.131   0.930  52.179  1.00  0.00     0.112 C 
HETATM    7  F1  UNL     1      21.514   1.772  53.005  1.00  0.00    -0.206 F 
HETATM    8  C7  UNL     1      22.828   0.486  53.362  1.00  0.00     0.038 C 
HETATM    9  C8  UNL     1      23.937  -0.238  53.098  1.00  0.00    -0.020 C 
HETATM   10  C9  UNL     1      25.140  -1.007  53.572  1.00  0.00     0.054 C 
HETATM   11  C10 UNL     1      26.381  -0.347  53.014  1.00  0.00    -0.023 C 
HETATM   12  C11 UNL     1      26.334   0.704  52.222  1.00  0.00    -0.004 C 
HETATM   13  C12 UNL     1      26.685   1.817  51.365  1.00  0.00    -0.000 C 
HETATM   14  C13 UNL     1      26.583   2.854  50.582  1.00  0.00     0.002 C 
HETATM   15  C14 UNL     1      25.487   3.613  50.048  1.00  0.00     0.028 C 
HETATM   16  C15 UNL     1      24.224   3.932  49.857  1.00  0.00     0.047 C 
HETATM   17  C16 UNL     1      23.413   2.993  50.639  1.00  0.00     0.116 C 
ENDROOT
BRANCH   1  18
HETATM   18  S1  UNL     1      24.005   6.226  48.393  1.00  0.00    -0.100 SA
BRANCH  18  19
HETATM   19  C2  UNL     1      25.330   6.992  49.315  1.00  0.00     0.251 C 
HETATM   20  C1  UNL     1      25.568   7.376  50.559  1.00  0.00     0.141 C 
BRANCH  20  21
HETATM   21  N1  UNL     1      24.546   7.168  51.526  1.00  0.00    -0.380 N 
HETATM   22  H1  UNL     1      24.439   6.133  51.318  1.00  0.00     0.158 HD
HETATM   23  H2  UNL     1      24.585   8.184  51.797  1.00  0.00     0.158 HD
ENDBRANCH  20  21
BRANCH  20  24
HETATM   24  O1  UNL     1      26.823   7.792  50.077  1.00  0.00    -0.346 OA
HETATM   25  H3  UNL     1      27.693   7.605  50.513  1.00  0.00     0.219 HD
ENDBRANCH  20  24
ENDBRANCH  18  19
ENDBRANCH   1  18
TORSDOF 4
ENDMDL
MODEL 5
REMARK VINA RESULT:      -7.3      1.779      2.482
REMARK  4 active torsions:
REMARK  status: ('A' for Active; 'I' for Inactive)
REMARK    1  A    between atoms: N1_1  and  C1_2 
REMARK    2  A    between atoms: C1_2  and  O1_3 
REMARK    3  A    between atoms: C2_4  and  S1_5 
REMARK    4  A    between atoms: S1_5  and  N2_6 
ROOT
HETATM    1  N2  UNL     1      25.822   1.003  52.176  1.00  0.00    -0.225 N 
HETATM    2  N3  UNL     1      26.158   2.034  51.325  1.00  0.00    -0.171 NA
HETATM    3  C3  UNL     1      25.172   2.691  50.889  1.00  0.00     0.043 C 
HETATM    4  C4  UNL     1      24.741   3.771  49.916  1.00  0.00     0.087 C 
HETATM    5  C5  UNL     1      23.264   3.576  49.674  1.00  0.00     0.021 C 
HETATM    6  C6  UNL     1      22.656   4.485  50.364  1.00  0.00     0.112 C 
HETATM    7  F1  UNL     1      23.268   5.404  51.108  1.00  0.00    -0.206 F 
HETATM    8  C7  UNL     1      21.449   4.973  50.985  1.00  0.00     0.038 C 
HETATM    9  C8  UNL     1      20.394   4.141  50.847  1.00  0.00    -0.020 C 
HETATM   10  C9  UNL     1      18.949   3.807  51.103  1.00  0.00     0.054 C 
HETATM   11  C10 UNL     1      18.887   2.503  51.864  1.00  0.00    -0.023 C 
HETATM   12  C11 UNL     1      19.961   1.812  52.185  1.00  0.00    -0.004 C 
HETATM   13  C12 UNL     1      20.867   0.807  52.702  1.00  0.00    -0.000 C 
HETATM   14  C13 UNL     1      21.961   0.162  52.991  1.00  0.00     0.002 C 
HETATM   15  C14 UNL     1      23.359   0.382  52.747  1.00  0.00     0.028 C 
HETATM   16  C15 UNL     1      24.414   1.021  52.287  1.00  0.00     0.047 C 
HETATM   17  C16 UNL     1      23.936   2.248  51.641  1.00  0.00     0.116 C 
ENDROOT
BRANCH   1  18
HETATM   18  S1  UNL     1      26.722  -0.211  53.069  1.00  0.00    -0.100 SA
BRANCH  18  19
HETATM   19  C2  UNL     1      28.395   0.303  53.429  1.00  0.00     0.251 C 
HETATM   20  C1  UNL     1      29.036   1.421  53.731  1.00  0.00     0.141 C 
BRANCH  20  21
HETATM   21  N1  UNL     1      28.275   2.619  53.824  1.00  0.00    -0.380 N 
HETATM   22  H1  UNL     1      27.505   2.284  53.176  1.00  0.00     0.158 HD
HETATM   23  H2  UNL     1      28.991   3.032  54.476  1.00  0.00     0.158 HD
ENDBRANCH  20  21
BRANCH  20  24
HETATM   24  O1  UNL     1      30.193   0.620  53.773  1.00  0.00    -0.346 OA
HETATM   25  H3  UNL     1      30.281  -0.279  53.365  1.00  0.00     0.219 HD
ENDBRANCH  20  24
ENDBRANCH  18  19
ENDBRANCH   1  18
TORSDOF 4
ENDMDL
MODEL 6
REMARK VINA RESULT:      -7.2      4.138      6.472
REMARK  4 active torsions:
REMARK  status: ('A' for Active; 'I' for Inactive)
REMARK    1  A    between atoms: N1_1  and  C1_2 
REMARK    2  A    between atoms: C1_2  and  O1_3 
REMARK    3  A    between atoms: C2_4  and  S1_5 
REMARK    4  A    between atoms: S1_5  and  N2_6 
ROOT
HETATM    1  N2  UNL     1      21.439   4.114  51.199  1.00  0.00    -0.225 N 
HETATM    2  N3  UNL     1      20.557   3.190  51.717  1.00  0.00    -0.171 NA
HETATM    3  C3  UNL     1      21.095   2.106  52.081  1.00  0.00     0.043 C 
HETATM    4  C4  UNL     1      20.824   0.699  52.575  1.00  0.00     0.087 C 
HETATM    5  C5  UNL     1      22.057  -0.116  52.269  1.00  0.00     0.021 C 
HETATM    6  C6  UNL     1      22.693  -0.253  53.386  1.00  0.00     0.112 C 
HETATM    7  F1  UNL     1      22.281   0.234  54.555  1.00  0.00    -0.206 F 
HETATM    8  C7  UNL     1      23.915  -0.555  54.091  1.00  0.00     0.038 C 
HETATM    9  C8  UNL     1      24.959  -0.822  53.276  1.00  0.00    -0.020 C 
HETATM   10  C9  UNL     1      26.407  -1.180  53.080  1.00  0.00     0.054 C 
HETATM   11  C10 UNL     1      27.068  -0.079  52.282  1.00  0.00    -0.023 C 
HETATM   12  C11 UNL     1      26.411   0.972  51.836  1.00  0.00    -0.004 C 
HETATM   13  C12 UNL     1      26.053   2.223  51.201  1.00  0.00    -0.000 C 
HETATM   14  C13 UNL     1      25.356   3.240  50.781  1.00  0.00     0.002 C 
HETATM   15  C14 UNL     1      23.977   3.631  50.881  1.00  0.00     0.028 C 
HETATM   16  C15 UNL     1      22.718   3.516  51.246  1.00  0.00     0.047 C 
HETATM   17  C16 UNL     1      22.598   2.278  52.023  1.00  0.00     0.116 C 
ENDROOT
BRANCH   1  18
HETATM   18  S1  UNL     1      21.292   5.741  50.555  1.00  0.00    -0.100 SA
BRANCH  18  19
HETATM   19  C2  UNL     1      22.692   6.771  50.969  1.00  0.00     0.251 C 
HETATM   20  C1  UNL     1      23.756   7.274  50.362  1.00  0.00     0.141 C 
BRANCH  20  21
HETATM   21  N1  UNL     1      23.939   6.975  48.984  1.00  0.00    -0.380 N 
HETATM   22  H1  UNL     1      22.925   7.147  48.721  1.00  0.00     0.158 HD
HETATM   23  H2  UNL     1      24.960   6.784  49.153  1.00  0.00     0.158 HD
ENDBRANCH  20  21
BRANCH  20  24
HETATM   24  O1  UNL     1      24.062   7.850  51.609  1.00  0.00    -0.346 OA
HETATM   25  H3  UNL     1      23.666   7.579  52.476  1.00  0.00     0.219 HD
ENDBRANCH  20  24
ENDBRANCH  18  19
ENDBRANCH   1  18
TORSDOF 4
ENDMDL
MODEL 7
REMARK VINA RESULT:      -7.0      4.217      6.787
REMARK  4 active torsions:
REMARK  status: ('A' for Active; 'I' for Inactive)
REMARK    1  A    between atoms: N1_1  and  C1_2 
REMARK    2  A    between atoms: C1_2  and  O1_3 
REMARK    3  A    between atoms: C2_4  and  S1_5 
REMARK    4  A    between atoms: S1_5  and  N2_6 
ROOT
HETATM    1  N2  UNL     1      20.203   1.593  51.510  1.00  0.00    -0.225 N 
HETATM    2  N3  UNL     1      20.678   2.782  51.000  1.00  0.00    -0.171 NA
HETATM    3  C3  UNL     1      21.913   2.970  51.183  1.00  0.00     0.043 C 
HETATM    4  C4  UNL     1      23.041   3.975  51.053  1.00  0.00     0.087 C 
HETATM    5  C5  UNL     1      24.128   3.535  52.004  1.00  0.00     0.021 C 
HETATM    6  C6  UNL     1      25.045   2.981  51.281  1.00  0.00     0.112 C 
HETATM    7  F1  UNL     1      24.998   2.867  49.956  1.00  0.00    -0.206 F 
HETATM    8  C7  UNL     1      26.197   2.116  51.184  1.00  0.00     0.038 C 
HETATM    9  C8  UNL     1      26.556   1.556  52.359  1.00  0.00    -0.020 C 
HETATM   10  C9  UNL     1      27.460   0.658  53.158  1.00  0.00     0.054 C 
HETATM   11  C10 UNL     1      26.619  -0.430  53.787  1.00  0.00    -0.023 C 
HETATM   12  C11 UNL     1      25.312  -0.494  53.642  1.00  0.00    -0.004 C 
HETATM   13  C12 UNL     1      23.921  -0.893  53.715  1.00  0.00    -0.000 C 
HETATM   14  C13 UNL     1      22.630  -0.908  53.544  1.00  0.00     0.002 C 
HETATM   15  C14 UNL     1      21.693  -0.072  52.845  1.00  0.00     0.028 C 
HETATM   16  C15 UNL     1      21.309   0.943  52.101  1.00  0.00     0.047 C 
HETATM   17  C16 UNL     1      22.514   1.691  51.726  1.00  0.00     0.116 C 
ENDROOT
BRANCH   1  18
HETATM   18  S1  UNL     1      18.636   0.803  51.559  1.00  0.00    -0.100 SA
BRANCH  18  19
HETATM   19  C2  UNL     1      18.596  -0.571  52.701  1.00  0.00     0.251 C 
HETATM   20  C1  UNL     1      17.687  -1.309  53.320  1.00  0.00     0.141 C 
BRANCH  20  21
HETATM   21  N1  UNL     1      16.317  -1.014  53.079  1.00  0.00    -0.380 N 
HETATM   22  H1  UNL     1      16.029  -2.029  52.960  1.00  0.00     0.158 HD
HETATM   23  H2  UNL     1      16.512   0.015  53.183  1.00  0.00     0.158 HD
ENDBRANCH  20  21
BRANCH  20  24
HETATM   24  O1  UNL     1      18.781  -1.992  53.883  1.00  0.00    -0.346 OA
HETATM   25  H3  UNL     1      18.719  -2.689  54.585  1.00  0.00     0.219 HD
ENDBRANCH  20  24
ENDBRANCH  18  19
ENDBRANCH   1  18
TORSDOF 4
ENDMDL
MODEL 8
REMARK VINA RESULT:      -7.0      4.740      7.612
REMARK  4 active torsions:
REMARK  status: ('A' for Active; 'I' for Inactive)
REMARK    1  A    between atoms: N1_1  and  C1_2 
REMARK    2  A    between atoms: C1_2  and  O1_3 
REMARK    3  A    between atoms: C2_4  and  S1_5 
REMARK    4  A    between atoms: S1_5  and  N2_6 
ROOT
HETATM    1  N2  UNL     1      20.148   2.339  51.834  1.00  0.00    -0.225 N 
HETATM    2  N3  UNL     1      19.703   1.261  52.570  1.00  0.00    -0.171 NA
HETATM    3  C3  UNL     1      20.617   0.474  52.942  1.00  0.00     0.043 C 
HETATM    4  C4  UNL     1      20.903  -0.861  53.602  1.00  0.00     0.087 C 
HETATM    5  C5  UNL     1      22.295  -1.267  53.179  1.00  0.00     0.021 C 
HETATM    6  C6  UNL     1      23.067  -1.031  54.188  1.00  0.00     0.112 C 
HETATM    7  F1  UNL     1      22.657  -0.545  55.358  1.00  0.00    -0.206 F 
HETATM    8  C7  UNL     1      24.395  -0.819  54.713  1.00  0.00     0.038 C 
HETATM    9  C8  UNL     1      25.361  -0.846  53.771  1.00  0.00    -0.020 C 
HETATM   10  C9  UNL     1      26.810  -0.738  53.380  1.00  0.00     0.054 C 
HETATM   11  C10 UNL     1      26.956   0.393  52.387  1.00  0.00    -0.023 C 
HETATM   12  C11 UNL     1      25.931   1.100  51.957  1.00  0.00    -0.004 C 
HETATM   13  C12 UNL     1      25.095   2.065  51.274  1.00  0.00    -0.000 C 
HETATM   14  C13 UNL     1      24.048   2.731  50.878  1.00  0.00     0.002 C 
HETATM   15  C14 UNL     1      22.641   2.664  51.161  1.00  0.00     0.028 C 
HETATM   16  C15 UNL     1      21.549   2.201  51.731  1.00  0.00     0.047 C 
HETATM   17  C16 UNL     1      21.953   1.113  52.629  1.00  0.00     0.116 C 
ENDROOT
BRANCH   1  18
HETATM   18  S1  UNL     1      19.379   3.722  51.073  1.00  0.00    -0.100 SA
BRANCH  18  19
HETATM   19  C2  UNL     1      17.680   3.930  51.585  1.00  0.00     0.251 C 
HETATM   20  C1  UNL     1      16.601   3.178  51.737  1.00  0.00     0.141 C 
BRANCH  20  21
HETATM   21  N1  UNL     1      16.708   1.792  51.438  1.00  0.00    -0.380 N 
HETATM   22  H1  UNL     1      17.642   1.881  50.943  1.00  0.00     0.158 HD
HETATM   23  H2  UNL     1      15.786   1.610  51.911  1.00  0.00     0.158 HD
ENDBRANCH  20  21
BRANCH  20  24
HETATM   24  O1  UNL     1      15.963   4.365  52.145  1.00  0.00    -0.346 OA
HETATM   25  H3  UNL     1      15.153   4.411  52.714  1.00  0.00     0.219 HD
ENDBRANCH  20  24
ENDBRANCH  18  19
ENDBRANCH   1  18
TORSDOF 4
ENDMDL
MODEL 9
REMARK VINA RESULT:      -7.0      5.684      8.223
REMARK  4 active torsions:
REMARK  status: ('A' for Active; 'I' for Inactive)
REMARK    1  A    between atoms: N1_1  and  C1_2 
REMARK    2  A    between atoms: C1_2  and  O1_3 
REMARK    3  A    between atoms: C2_4  and  S1_5 
REMARK    4  A    between atoms: S1_5  and  N2_6 
ROOT
HETATM    1  N2  UNL     1      17.922   2.896  51.625  1.00  0.00    -0.225 N 
HETATM    2  N3  UNL     1      17.792   1.525  51.700  1.00  0.00    -0.171 NA
HETATM    3  C3  UNL     1      18.877   0.911  51.902  1.00  0.00     0.043 C 
HETATM    4  C4  UNL     1      19.526  -0.457  51.972  1.00  0.00     0.087 C 
HETATM    5  C5  UNL     1      21.006  -0.250  51.756  1.00  0.00     0.021 C 
HETATM    6  C6  UNL     1      21.563  -0.343  52.919  1.00  0.00     0.112 C 
HETATM    7  F1  UNL     1      20.911  -0.598  54.051  1.00  0.00    -0.206 F 
HETATM    8  C7  UNL     1      22.692  -0.087  53.780  1.00  0.00     0.038 C 
HETATM    9  C8  UNL     1      23.695   0.584  53.173  1.00  0.00    -0.020 C 
HETATM   10  C9  UNL     1      25.057   1.222  53.218  1.00  0.00     0.054 C 
HETATM   11  C10 UNL     1      24.910   2.686  52.871  1.00  0.00    -0.023 C 
HETATM   12  C11 UNL     1      23.754   3.233  52.558  1.00  0.00    -0.004 C 
HETATM   13  C12 UNL     1      22.712   4.165  52.180  1.00  0.00    -0.000 C 
HETATM   14  C13 UNL     1      21.544   4.655  51.875  1.00  0.00     0.002 C 
HETATM   15  C14 UNL     1      20.218   4.113  51.763  1.00  0.00     0.028 C 
HETATM   16  C15 UNL     1      19.294   3.177  51.805  1.00  0.00     0.047 C 
HETATM   17  C16 UNL     1      19.950   1.932  52.217  1.00  0.00     0.116 C 
ENDROOT
BRANCH   1  18
HETATM   18  S1  UNL     1      16.812   4.233  51.374  1.00  0.00    -0.100 SA
BRANCH  18  19
HETATM   19  C2  UNL     1      15.658   4.429  52.724  1.00  0.00     0.251 C 
HETATM   20  C1  UNL     1      14.796   3.683  53.395  1.00  0.00     0.141 C 
BRANCH  20  21
HETATM   21  N1  UNL     1      14.669   2.316  53.023  1.00  0.00    -0.380 N 
HETATM   22  H1  UNL     1      13.746   2.173  53.528  1.00  0.00     0.158 HD
HETATM   23  H2  UNL     1      15.578   2.367  52.496  1.00  0.00     0.158 HD
ENDBRANCH  20  21
BRANCH  20  24
HETATM   24  O1  UNL     1      14.524   4.850  54.134  1.00  0.00    -0.346 OA
HETATM   25  H3  UNL     1      14.184   4.871  55.064  1.00  0.00     0.219 HD
ENDBRANCH  20  24
ENDBRANCH  18  19
ENDBRANCH   1  18
TORSDOF 4
ENDMDL
