MODEL 1
REMARK VINA RESULT:      -9.5      0.000      0.000
REMARK  5 active torsions:
REMARK  status: ('A' for Active; 'I' for Inactive)
REMARK       I    between atoms: C1_2  and  N1_3 
REMARK    1  A    between atoms: C1_2  and  C17_23 
REMARK    2  A    between atoms: N1_3  and  C2_4 
REMARK    3  A    between atoms: C6_8  and  N2_9 
REMARK    4  A    between atoms: N2_9  and  C7_10 
REMARK    5  A    between atoms: C10_14  and  C11_15 
ROOT
HETATM    1  C2  UNL     1      24.136  -0.442  54.089  1.00  0.00     0.036 A 
HETATM    2  C3  UNL     1      23.342  -1.247  54.908  1.00  0.00     0.029 A 
HETATM    3  C4  UNL     1      21.954  -1.139  54.938  1.00  0.00     0.004 A 
HETATM    4  C5  UNL     1      21.331  -0.191  54.120  1.00  0.00     0.030 A 
HETATM    5  C6  UNL     1      22.149   0.565  53.343  1.00  0.00     0.051 A 
HETATM    6  C16 UNL     1      23.513   0.477  53.298  1.00  0.00     0.059 A 
ENDROOT
BRANCH   5   7
HETATM    7  N2  UNL     1      21.528   1.537  52.505  1.00  0.00    -0.188 N 
HETATM    8  H5  UNL     1      20.751   2.193  52.742  1.00  0.00     0.184 HD
BRANCH   7   9
HETATM    9  C7  UNL     1      21.905   1.765  51.149  1.00  0.00     0.727 A 
HETATM   10  N3  UNL     1      21.255   1.097  50.167  1.00  0.00    -0.075 NA
HETATM   11  C8  UNL     1      21.606   1.309  48.875  1.00  0.00     0.139 A 
HETATM   12  C9  UNL     1      22.606   2.183  48.503  1.00  0.00     0.053 A 
HETATM   13  C10 UNL     1      23.242   2.843  49.530  1.00  0.00     0.089 A 
HETATM   14  N5  UNL     1      22.884   2.624  50.809  1.00  0.00    -0.062 NA
BRANCH  13  15
HETATM   15  C11 UNL     1      24.319   3.800  49.302  1.00  0.00     0.011 A 
HETATM   16  C12 UNL     1      25.625   3.408  49.499  1.00  0.00     0.017 A 
HETATM   17  C13 UNL     1      26.734   4.204  49.322  1.00  0.00     0.020 A 
HETATM   18  C14 UNL     1      26.489   5.516  48.907  1.00  0.00     0.116 A 
HETATM   19  N4  UNL     1      25.208   5.927  48.706  1.00  0.00    -0.272 NA
HETATM   20  C15 UNL     1      24.155   5.106  48.894  1.00  0.00     0.130 A 
ENDBRANCH  13  15
ENDBRANCH   7   9
ENDBRANCH   5   7
BRANCH   1  21
HETATM   21  N1  UNL     1      25.522  -0.697  54.196  1.00  0.00    -0.327 N 
HETATM   22  C1  UNL     1      26.569   0.197  54.452  1.00  0.00     0.226 C 
HETATM   23  O1  UNL     1      26.775   1.415  54.670  1.00  0.00    -0.273 OA
HETATM   24  H1  UNL     1      25.774  -1.688  54.063  1.00  0.00     0.169 HD
BRANCH  22  25
HETATM   25  C17 UNL     1      27.970  -0.272  54.526  1.00  0.00     0.078 C 
HETATM   26  C18 UNL     1      28.258  -1.181  53.335  1.00  0.00     0.014 C 
HETATM   27  C19 UNL     1      29.781  -1.278  53.461  1.00  0.00     0.001 C 
HETATM   28  C20 UNL     1      30.136   0.203  53.562  1.00  0.00     0.001 C 
HETATM   29  C21 UNL     1      28.933   0.874  54.208  1.00  0.00     0.014 C 
ENDBRANCH  22  25
ENDBRANCH   1  21
TORSDOF 5
ENDMDL
MODEL 2
REMARK VINA RESULT:      -9.0      2.290      3.238
REMARK  5 active torsions:
REMARK  status: ('A' for Active; 'I' for Inactive)
REMARK       I    between atoms: C1_2  and  N1_3 
REMARK    1  A    between atoms: C1_2  and  C17_23 
REMARK    2  A    between atoms: N1_3  and  C2_4 
REMARK    3  A    between atoms: C6_8  and  N2_9 
REMARK    4  A    between atoms: N2_9  and  C7_10 
REMARK    5  A    between atoms: C10_14  and  C11_15 
ROOT
HETATM    1  C2  UNL     1      23.993   1.645  52.891  1.00  0.00     0.036 A 
HETATM    2  C3  UNL     1      22.747   1.028  52.769  1.00  0.00     0.029 A 
HETATM    3  C4  UNL     1      21.591   1.739  52.456  1.00  0.00     0.004 A 
HETATM    4  C5  UNL     1      21.680   3.120  52.256  1.00  0.00     0.030 A 
HETATM    5  C6  UNL     1      22.915   3.670  52.386  1.00  0.00     0.051 A 
HETATM    6  C16 UNL     1      24.062   2.991  52.693  1.00  0.00     0.059 A 
ENDROOT
BRANCH   5   7
HETATM    7  N2  UNL     1      23.020   5.077  52.187  1.00  0.00    -0.188 N 
HETATM    8  H5  UNL     1      22.851   5.842  52.877  1.00  0.00     0.184 HD
BRANCH   7   9
HETATM    9  C7  UNL     1      23.396   5.673  50.947  1.00  0.00     0.727 A 
HETATM   10  N3  UNL     1      22.463   6.347  50.235  1.00  0.00    -0.075 NA
HETATM   11  C8  UNL     1      22.812   6.917  49.055  1.00  0.00     0.139 A 
HETATM   12  C9  UNL     1      24.088   6.845  48.535  1.00  0.00     0.053 A 
HETATM   13  C10 UNL     1      25.007   6.152  49.290  1.00  0.00     0.089 A 
HETATM   14  N5  UNL     1      24.648   5.590  50.459  1.00  0.00    -0.062 NA
BRANCH  13  15
HETATM   15  C11 UNL     1      26.396   5.986  48.879  1.00  0.00     0.011 A 
HETATM   16  C12 UNL     1      27.097   7.075  48.408  1.00  0.00     0.017 A 
HETATM   17  C13 UNL     1      28.408   7.061  47.987  1.00  0.00     0.020 A 
HETATM   18  C14 UNL     1      29.062   5.828  48.053  1.00  0.00     0.116 A 
HETATM   19  N4  UNL     1      28.392   4.738  48.515  1.00  0.00    -0.272 NA
HETATM   20  C15 UNL     1      27.106   4.805  48.915  1.00  0.00     0.130 A 
ENDBRANCH  13  15
ENDBRANCH   7   9
ENDBRANCH   5   7
BRANCH   1  21
HETATM   21  N1  UNL     1      25.048   0.761  53.213  1.00  0.00    -0.327 N 
HETATM   22  C1  UNL     1      26.221   1.009  53.937  1.00  0.00     0.226 C 
HETATM   23  O1  UNL     1      26.814   1.937  54.536  1.00  0.00    -0.273 OA
HETATM   24  H1  UNL     1      24.911  -0.198  52.857  1.00  0.00     0.169 HD
BRANCH  22  25
HETATM   25  C17 UNL     1      27.213  -0.063  54.169  1.00  0.00     0.078 C 
HETATM   26  C18 UNL     1      27.524  -0.756  52.846  1.00  0.00     0.014 C 
HETATM   27  C19 UNL     1      28.746  -1.572  53.276  1.00  0.00     0.001 C 
HETATM   28  C20 UNL     1      29.583  -0.477  53.931  1.00  0.00     0.001 C 
HETATM   29  C21 UNL     1      28.588   0.539  54.469  1.00  0.00     0.014 C 
ENDBRANCH  22  25
ENDBRANCH   1  21
TORSDOF 5
ENDMDL
MODEL 3
REMARK VINA RESULT:      -8.8      4.551      7.977
REMARK  5 active torsions:
REMARK  status: ('A' for Active; 'I' for Inactive)
REMARK       I    between atoms: C1_2  and  N1_3 
REMARK    1  A    between atoms: C1_2  and  C17_23 
REMARK    2  A    between atoms: N1_3  and  C2_4 
REMARK    3  A    between atoms: C6_8  and  N2_9 
REMARK    4  A    between atoms: N2_9  and  C7_10 
REMARK    5  A    between atoms: C10_14  and  C11_15 
ROOT
HETATM    1  C2  UNL     1      26.164   4.262  49.740  1.00  0.00     0.036 A 
HETATM    2  C3  UNL     1      25.150   5.126  50.156  1.00  0.00     0.029 A 
HETATM    3  C4  UNL     1      25.107   6.465  49.773  1.00  0.00     0.004 A 
HETATM    4  C5  UNL     1      26.115   6.963  48.942  1.00  0.00     0.030 A 
HETATM    5  C6  UNL     1      27.077   6.081  48.566  1.00  0.00     0.051 A 
HETATM    6  C16 UNL     1      27.138   4.764  48.930  1.00  0.00     0.059 A 
ENDROOT
BRANCH   5   7
HETATM    7  N2  UNL     1      28.112   6.576  47.721  1.00  0.00    -0.188 N 
HETATM    8  H5  UNL     1      28.068   6.785  46.699  1.00  0.00     0.184 HD
BRANCH   7   9
HETATM    9  C7  UNL     1      29.430   6.873  48.178  1.00  0.00     0.727 A 
HETATM   10  N3  UNL     1      29.661   8.065  48.779  1.00  0.00    -0.075 NA
HETATM   11  C8  UNL     1      30.910   8.355  49.217  1.00  0.00     0.139 A 
HETATM   12  C9  UNL     1      31.974   7.487  49.082  1.00  0.00     0.053 A 
HETATM   13  C10 UNL     1      31.698   6.287  48.467  1.00  0.00     0.089 A 
HETATM   14  N5  UNL     1      30.453   6.011  48.036  1.00  0.00    -0.062 NA
BRANCH  13  15
HETATM   15  C11 UNL     1      32.713   5.263  48.250  1.00  0.00     0.011 A 
HETATM   16  C12 UNL     1      34.028   5.539  48.555  1.00  0.00     0.017 A 
HETATM   17  C13 UNL     1      35.084   4.670  48.399  1.00  0.00     0.020 A 
HETATM   18  C14 UNL     1      34.771   3.407  47.888  1.00  0.00     0.116 A 
HETATM   19  N4  UNL     1      33.480   3.111  47.580  1.00  0.00    -0.272 NA
HETATM   20  C15 UNL     1      32.481   4.000  47.750  1.00  0.00     0.130 A 
ENDBRANCH  13  15
ENDBRANCH   7   9
ENDBRANCH   5   7
BRANCH   1  21
HETATM   21  N1  UNL     1      26.038   2.943  50.230  1.00  0.00    -0.327 N 
HETATM   22  C1  UNL     1      26.742   2.312  51.264  1.00  0.00     0.226 C 
HETATM   23  O1  UNL     1      27.647   2.539  52.101  1.00  0.00    -0.273 OA
HETATM   24  H1  UNL     1      25.319   2.385  49.744  1.00  0.00     0.169 HD
BRANCH  22  25
HETATM   25  C17 UNL     1      26.459   0.908  51.630  1.00  0.00     0.078 C 
HETATM   26  C18 UNL     1      27.359   0.500  52.793  1.00  0.00     0.014 C 
HETATM   27  C19 UNL     1      26.688  -0.823  53.173  1.00  0.00     0.001 C 
HETATM   28  C20 UNL     1      25.236  -0.365  53.284  1.00  0.00     0.001 C 
HETATM   29  C21 UNL     1      25.095   0.801  52.317  1.00  0.00     0.014 C 
ENDBRANCH  22  25
ENDBRANCH   1  21
TORSDOF 5
ENDMDL
MODEL 4
REMARK VINA RESULT:      -8.7      4.120      8.187
REMARK  5 active torsions:
REMARK  status: ('A' for Active; 'I' for Inactive)
REMARK       I    between atoms: C1_2  and  N1_3 
REMARK    1  A    between atoms: C1_2  and  C17_23 
REMARK    2  A    between atoms: N1_3  and  C2_4 
REMARK    3  A    between atoms: C6_8  and  N2_9 
REMARK    4  A    between atoms: N2_9  and  C7_10 
REMARK    5  A    between atoms: C10_14  and  C11_15 
ROOT
HETATM    1  C2  UNL     1      28.658   6.244  48.284  1.00  0.00     0.036 A 
HETATM    2  C3  UNL     1      27.856   7.387  48.310  1.00  0.00     0.029 A 
HETATM    3  C4  UNL     1      26.500   7.339  48.626  1.00  0.00     0.004 A 
HETATM    4  C5  UNL     1      25.919   6.103  48.928  1.00  0.00     0.030 A 
HETATM    5  C6  UNL     1      26.743   5.024  48.888  1.00  0.00     0.051 A 
HETATM    6  C16 UNL     1      28.075   5.048  48.581  1.00  0.00     0.059 A 
ENDROOT
BRANCH   5   7
HETATM    7  N2  UNL     1      26.164   3.758  49.192  1.00  0.00    -0.188 N 
HETATM    8  H5  UNL     1      26.006   2.949  48.551  1.00  0.00     0.184 HD
BRANCH   7   9
HETATM    9  C7  UNL     1      25.695   3.395  50.489  1.00  0.00     0.727 A 
HETATM   10  N3  UNL     1      24.462   3.800  50.876  1.00  0.00    -0.075 NA
HETATM   11  C8  UNL     1      24.008   3.459  52.107  1.00  0.00     0.139 A 
HETATM   12  C9  UNL     1      24.747   2.709  52.999  1.00  0.00     0.053 A 
HETATM   13  C10 UNL     1      25.994   2.317  52.567  1.00  0.00     0.089 A 
HETATM   14  N5  UNL     1      26.433   2.662  51.343  1.00  0.00    -0.062 NA
BRANCH  13  15
HETATM   15  C11 UNL     1      26.896   1.521  53.391  1.00  0.00     0.011 A 
HETATM   16  C12 UNL     1      28.245   1.802  53.383  1.00  0.00     0.017 A 
HETATM   17  C13 UNL     1      29.205   1.133  54.108  1.00  0.00     0.020 A 
HETATM   18  C14 UNL     1      28.749   0.086  54.913  1.00  0.00     0.116 A 
HETATM   19  N4  UNL     1      27.422  -0.210  54.938  1.00  0.00    -0.272 NA
HETATM   20  C15 UNL     1      26.521   0.476  54.207  1.00  0.00     0.130 A 
ENDBRANCH  13  15
ENDBRANCH   7   9
ENDBRANCH   5   7
BRANCH   1  21
HETATM   21  N1  UNL     1      30.006   6.491  47.942  1.00  0.00    -0.327 N 
HETATM   22  C1  UNL     1      31.175   6.036  48.567  1.00  0.00     0.226 C 
HETATM   23  O1  UNL     1      31.547   5.334  49.537  1.00  0.00    -0.273 OA
HETATM   24  H1  UNL     1      30.122   7.092  47.112  1.00  0.00     0.169 HD
BRANCH  22  25
HETATM   25  C17 UNL     1      32.509   6.410  48.049  1.00  0.00     0.078 C 
HETATM   26  C18 UNL     1      32.983   7.679  48.752  1.00  0.00     0.014 C 
HETATM   27  C19 UNL     1      34.445   7.683  48.295  1.00  0.00     0.001 C 
HETATM   28  C20 UNL     1      34.843   6.256  48.661  1.00  0.00     0.001 C 
HETATM   29  C21 UNL     1      33.571   5.430  48.555  1.00  0.00     0.014 C 
ENDBRANCH  22  25
ENDBRANCH   1  21
TORSDOF 5
ENDMDL
MODEL 5
REMARK VINA RESULT:      -8.6      4.322      7.873
REMARK  5 active torsions:
REMARK  status: ('A' for Active; 'I' for Inactive)
REMARK       I    between atoms: C1_2  and  N1_3 
REMARK    1  A    between atoms: C1_2  and  C17_23 
REMARK    2  A    between atoms: N1_3  and  C2_4 
REMARK    3  A    between atoms: C6_8  and  N2_9 
REMARK    4  A    between atoms: N2_9  and  C7_10 
REMARK    5  A    between atoms: C10_14  and  C11_15 
ROOT
HETATM    1  C2  UNL     1      26.056   3.995  49.704  1.00  0.00     0.036 A 
HETATM    2  C3  UNL     1      25.053   4.958  49.576  1.00  0.00     0.029 A 
HETATM    3  C4  UNL     1      25.259   6.164  48.911  1.00  0.00     0.004 A 
HETATM    4  C5  UNL     1      26.515   6.423  48.353  1.00  0.00     0.030 A 
HETATM    5  C6  UNL     1      27.454   5.455  48.506  1.00  0.00     0.051 A 
HETATM    6  C16 UNL     1      27.274   4.264  49.154  1.00  0.00     0.059 A 
ENDROOT
BRANCH   5   7
HETATM    7  N2  UNL     1      28.739   5.706  47.944  1.00  0.00    -0.188 N 
HETATM    8  H5  UNL     1      29.183   5.250  47.116  1.00  0.00     0.184 HD
BRANCH   7   9
HETATM    9  C7  UNL     1      29.651   6.672  48.461  1.00  0.00     0.727 A 
HETATM   10  N3  UNL     1      30.866   6.261  48.894  1.00  0.00    -0.075 NA
HETATM   11  C8  UNL     1      31.740   7.173  49.386  1.00  0.00     0.139 A 
HETATM   12  C9  UNL     1      31.451   8.520  49.470  1.00  0.00     0.053 A 
HETATM   13  C10 UNL     1      30.206   8.898  49.019  1.00  0.00     0.089 A 
HETATM   14  N5  UNL     1      29.349   7.982  48.532  1.00  0.00    -0.062 NA
BRANCH  13  15
HETATM   15  C11 UNL     1      29.751  10.282  49.039  1.00  0.00     0.011 A 
HETATM   16  C12 UNL     1      30.678  11.300  49.098  1.00  0.00     0.017 A 
HETATM   17  C13 UNL     1      30.389  12.645  49.124  1.00  0.00     0.020 A 
HETATM   18  C14 UNL     1      29.034  12.984  49.085  1.00  0.00     0.116 A 
HETATM   19  N4  UNL     1      28.099  11.998  49.025  1.00  0.00    -0.272 NA
HETATM   20  C15 UNL     1      28.435  10.692  49.003  1.00  0.00     0.130 A 
ENDBRANCH  13  15
ENDBRANCH   7   9
ENDBRANCH   5   7
BRANCH   1  21
HETATM   21  N1  UNL     1      25.660   2.837  50.410  1.00  0.00    -0.327 N 
HETATM   22  C1  UNL     1      26.368   2.098  51.367  1.00  0.00     0.226 C 
HETATM   23  O1  UNL     1      27.472   2.083  51.960  1.00  0.00    -0.273 OA
HETATM   24  H1  UNL     1      24.712   2.508  50.172  1.00  0.00     0.169 HD
BRANCH  22  25
HETATM   25  C17 UNL     1      25.771   0.901  51.998  1.00  0.00     0.078 C 
HETATM   26  C18 UNL     1      26.869  -0.120  52.277  1.00  0.00     0.014 C 
HETATM   27  C19 UNL     1      26.087  -1.086  53.172  1.00  0.00     0.001 C 
HETATM   28  C20 UNL     1      25.503  -0.102  54.182  1.00  0.00     0.001 C 
HETATM   29  C21 UNL     1      25.345   1.213  53.436  1.00  0.00     0.014 C 
ENDBRANCH  22  25
ENDBRANCH   1  21
TORSDOF 5
ENDMDL
MODEL 6
REMARK VINA RESULT:      -8.4      3.467      7.827
REMARK  5 active torsions:
REMARK  status: ('A' for Active; 'I' for Inactive)
REMARK       I    between atoms: C1_2  and  N1_3 
REMARK    1  A    between atoms: C1_2  and  C17_23 
REMARK    2  A    between atoms: N1_3  and  C2_4 
REMARK    3  A    between atoms: C6_8  and  N2_9 
REMARK    4  A    between atoms: N2_9  and  C7_10 
REMARK    5  A    between atoms: C10_14  and  C11_15 
ROOT
HETATM    1  C2  UNL     1      27.015   5.912  48.757  1.00  0.00     0.036 A 
HETATM    2  C3  UNL     1      25.946   6.762  48.469  1.00  0.00     0.029 A 
HETATM    3  C4  UNL     1      24.619   6.363  48.611  1.00  0.00     0.004 A 
HETATM    4  C5  UNL     1      24.346   5.067  49.058  1.00  0.00     0.030 A 
HETATM    5  C6  UNL     1      25.422   4.282  49.325  1.00  0.00     0.051 A 
HETATM    6  C16 UNL     1      26.732   4.652  49.192  1.00  0.00     0.059 A 
ENDROOT
BRANCH   5   7
HETATM    7  N2  UNL     1      25.159   2.957  49.779  1.00  0.00    -0.188 N 
HETATM    8  H5  UNL     1      24.805   2.143  49.228  1.00  0.00     0.184 HD
BRANCH   7   9
HETATM    9  C7  UNL     1      25.355   2.531  51.125  1.00  0.00     0.727 A 
HETATM   10  N3  UNL     1      24.653   3.136  52.113  1.00  0.00    -0.075 NA
HETATM   11  C8  UNL     1      24.834   2.736  53.395  1.00  0.00     0.139 A 
HETATM   12  C9  UNL     1      25.708   1.730  53.753  1.00  0.00     0.053 A 
HETATM   13  C10 UNL     1      26.402   1.141  52.720  1.00  0.00     0.089 A 
HETATM   14  N5  UNL     1      26.213   1.547  51.451  1.00  0.00    -0.062 NA
BRANCH  13  15
HETATM   15  C11 UNL     1      27.361   0.064  52.933  1.00  0.00     0.011 A 
HETATM   16  C12 UNL     1      27.015  -1.227  52.599  1.00  0.00     0.017 A 
HETATM   17  C13 UNL     1      27.819  -2.335  52.746  1.00  0.00     0.020 A 
HETATM   18  C14 UNL     1      29.090  -2.105  53.281  1.00  0.00     0.116 A 
HETATM   19  N4  UNL     1      29.456  -0.839  53.618  1.00  0.00    -0.272 NA
HETATM   20  C15 UNL     1      28.628   0.213  53.454  1.00  0.00     0.130 A 
ENDBRANCH  13  15
ENDBRANCH   7   9
ENDBRANCH   5   7
BRANCH   1  21
HETATM   21  N1  UNL     1      28.287   6.493  48.553  1.00  0.00    -0.327 N 
HETATM   22  C1  UNL     1      29.493   5.879  48.190  1.00  0.00     0.226 C 
HETATM   23  O1  UNL     1      29.964   4.749  47.921  1.00  0.00    -0.273 OA
HETATM   24  H1  UNL     1      28.306   7.515  48.695  1.00  0.00     0.169 HD
BRANCH  22  25
HETATM   25  C17 UNL     1      30.730   6.671  48.023  1.00  0.00     0.078 C 
HETATM   26  C18 UNL     1      31.442   6.780  49.368  1.00  0.00     0.014 C 
HETATM   27  C19 UNL     1      32.783   7.347  48.893  1.00  0.00     0.001 C 
HETATM   28  C20 UNL     1      33.115   6.353  47.783  1.00  0.00     0.001 C 
HETATM   29  C21 UNL     1      31.777   5.868  47.247  1.00  0.00     0.014 C 
ENDBRANCH  22  25
ENDBRANCH   1  21
TORSDOF 5
ENDMDL
MODEL 7
REMARK VINA RESULT:      -8.3      3.871      7.948
REMARK  5 active torsions:
REMARK  status: ('A' for Active; 'I' for Inactive)
REMARK       I    between atoms: C1_2  and  N1_3 
REMARK    1  A    between atoms: C1_2  and  C17_23 
REMARK    2  A    between atoms: N1_3  and  C2_4 
REMARK    3  A    between atoms: C6_8  and  N2_9 
REMARK    4  A    between atoms: N2_9  and  C7_10 
REMARK    5  A    between atoms: C10_14  and  C11_15 
ROOT
HETATM    1  C2  UNL     1      28.613   5.689  48.324  1.00  0.00     0.036 A 
HETATM    2  C3  UNL     1      28.241   7.023  48.502  1.00  0.00     0.029 A 
HETATM    3  C4  UNL     1      26.979   7.389  48.964  1.00  0.00     0.004 A 
HETATM    4  C5  UNL     1      26.049   6.387  49.260  1.00  0.00     0.030 A 
HETATM    5  C6  UNL     1      26.462   5.107  49.069  1.00  0.00     0.051 A 
HETATM    6  C16 UNL     1      27.695   4.725  48.617  1.00  0.00     0.059 A 
ENDROOT
BRANCH   5   7
HETATM    7  N2  UNL     1      25.524   4.076  49.365  1.00  0.00    -0.188 N 
HETATM    8  H5  UNL     1      24.633   3.851  48.870  1.00  0.00     0.184 HD
BRANCH   7   9
HETATM    9  C7  UNL     1      25.682   3.150  50.438  1.00  0.00     0.727 A 
HETATM   10  N3  UNL     1      26.910   2.984  50.985  1.00  0.00    -0.075 NA
HETATM   11  C8  UNL     1      27.069   2.106  52.005  1.00  0.00     0.139 A 
HETATM   12  C9  UNL     1      26.029   1.363  52.525  1.00  0.00     0.053 A 
HETATM   13  C10 UNL     1      24.797   1.561  51.942  1.00  0.00     0.089 A 
HETATM   14  N5  UNL     1      24.653   2.435  50.929  1.00  0.00    -0.062 NA
BRANCH  13  15
HETATM   15  C11 UNL     1      23.600   0.852  52.377  1.00  0.00     0.011 A 
HETATM   16  C12 UNL     1      23.668   0.014  53.468  1.00  0.00     0.017 A 
HETATM   17  C13 UNL     1      22.620  -0.714  53.984  1.00  0.00     0.020 A 
HETATM   18  C14 UNL     1      21.393  -0.574  53.329  1.00  0.00     0.116 A 
HETATM   19  N4  UNL     1      21.300   0.247  52.249  1.00  0.00    -0.272 NA
HETATM   20  C15 UNL     1      22.359   0.939  51.783  1.00  0.00     0.130 A 
ENDBRANCH  13  15
ENDBRANCH   7   9
ENDBRANCH   5   7
BRANCH   1  21
HETATM   21  N1  UNL     1      29.932   5.515  47.849  1.00  0.00    -0.327 N 
HETATM   22  C1  UNL     1      31.130   5.436  48.571  1.00  0.00     0.226 C 
HETATM   23  O1  UNL     1      31.557   5.474  49.749  1.00  0.00    -0.273 OA
HETATM   24  H1  UNL     1      29.998   5.435  46.822  1.00  0.00     0.169 HD
BRANCH  22  25
HETATM   25  C17 UNL     1      32.424   5.249  47.880  1.00  0.00     0.078 C 
HETATM   26  C18 UNL     1      32.674   3.757  47.678  1.00  0.00     0.014 C 
HETATM   27  C19 UNL     1      33.860   3.835  46.712  1.00  0.00     0.001 C 
HETATM   28  C20 UNL     1      33.295   4.796  45.670  1.00  0.00     0.001 C 
HETATM   29  C21 UNL     1      32.315   5.687  46.417  1.00  0.00     0.014 C 
ENDBRANCH  22  25
ENDBRANCH   1  21
TORSDOF 5
ENDMDL
MODEL 8
REMARK VINA RESULT:      -8.3      2.216      5.524
REMARK  5 active torsions:
REMARK  status: ('A' for Active; 'I' for Inactive)
REMARK       I    between atoms: C1_2  and  N1_3 
REMARK    1  A    between atoms: C1_2  and  C17_23 
REMARK    2  A    between atoms: N1_3  and  C2_4 
REMARK    3  A    between atoms: C6_8  and  N2_9 
REMARK    4  A    between atoms: N2_9  and  C7_10 
REMARK    5  A    between atoms: C10_14  and  C11_15 
ROOT
HETATM    1  C2  UNL     1      25.790   2.384  51.302  1.00  0.00     0.036 A 
HETATM    2  C3  UNL     1      26.561   3.120  50.400  1.00  0.00     0.029 A 
HETATM    3  C4  UNL     1      26.023   4.143  49.623  1.00  0.00     0.004 A 
HETATM    4  C5  UNL     1      24.664   4.445  49.748  1.00  0.00     0.030 A 
HETATM    5  C6  UNL     1      23.960   3.700  50.639  1.00  0.00     0.051 A 
HETATM    6  C16 UNL     1      24.467   2.692  51.412  1.00  0.00     0.059 A 
ENDROOT
BRANCH   5   7
HETATM    7  N2  UNL     1      22.573   3.995  50.776  1.00  0.00    -0.188 N 
HETATM    8  H5  UNL     1      22.130   4.825  51.228  1.00  0.00     0.184 HD
BRANCH   7   9
HETATM    9  C7  UNL     1      21.534   3.151  50.283  1.00  0.00     0.727 A 
HETATM   10  N3  UNL     1      21.156   3.264  48.988  1.00  0.00    -0.075 NA
HETATM   11  C8  UNL     1      20.171   2.466  48.511  1.00  0.00     0.139 A 
HETATM   12  C9  UNL     1      19.523   1.528  49.289  1.00  0.00     0.053 A 
HETATM   13  C10 UNL     1      19.936   1.443  50.599  1.00  0.00     0.089 A 
HETATM   14  N5  UNL     1      20.916   2.242  51.060  1.00  0.00    -0.062 NA
BRANCH  13  15
HETATM   15  C11 UNL     1      19.351   0.503  51.548  1.00  0.00     0.011 A 
HETATM   16  C12 UNL     1      18.091  -0.002  51.312  1.00  0.00     0.017 A 
HETATM   17  C13 UNL     1      17.421  -0.892  52.120  1.00  0.00     0.020 A 
HETATM   18  C14 UNL     1      18.098  -1.305  53.272  1.00  0.00     0.116 A 
HETATM   19  N4  UNL     1      19.343  -0.822  53.527  1.00  0.00    -0.272 NA
HETATM   20  C15 UNL     1      19.956   0.051  52.701  1.00  0.00     0.130 A 
ENDBRANCH  13  15
ENDBRANCH   7   9
ENDBRANCH   5   7
BRANCH   1  21
HETATM   21  N1  UNL     1      26.510   1.389  52.001  1.00  0.00    -0.327 N 
HETATM   22  C1  UNL     1      27.274   1.504  53.169  1.00  0.00     0.226 C 
HETATM   23  O1  UNL     1      27.636   2.360  54.011  1.00  0.00    -0.273 OA
HETATM   24  H1  UNL     1      26.449   0.452  51.572  1.00  0.00     0.169 HD
BRANCH  22  25
HETATM   25  C17 UNL     1      27.958   0.329  53.750  1.00  0.00     0.078 C 
HETATM   26  C18 UNL     1      27.844  -0.847  52.785  1.00  0.00     0.014 C 
HETATM   27  C19 UNL     1      28.849  -1.800  53.438  1.00  0.00     0.001 C 
HETATM   28  C20 UNL     1      30.051  -0.869  53.576  1.00  0.00     0.001 C 
HETATM   29  C21 UNL     1      29.475   0.530  53.726  1.00  0.00     0.014 C 
ENDBRANCH  22  25
ENDBRANCH   1  21
TORSDOF 5
ENDMDL
MODEL 9
REMARK VINA RESULT:      -8.2      2.709      4.538
REMARK  5 active torsions:
REMARK  status: ('A' for Active; 'I' for Inactive)
REMARK       I    between atoms: C1_2  and  N1_3 
REMARK    1  A    between atoms: C1_2  and  C17_23 
REMARK    2  A    between atoms: N1_3  and  C2_4 
REMARK    3  A    between atoms: C6_8  and  N2_9 
REMARK    4  A    between atoms: N2_9  and  C7_10 
REMARK    5  A    between atoms: C10_14  and  C11_15 
ROOT
HETATM    1  C2  UNL     1      24.627   2.616  51.927  1.00  0.00     0.036 A 
HETATM    2  C3  UNL     1      24.111   3.389  52.968  1.00  0.00     0.029 A 
HETATM    3  C4  UNL     1      23.441   4.590  52.744  1.00  0.00     0.004 A 
HETATM    4  C5  UNL     1      23.278   5.038  51.429  1.00  0.00     0.030 A 
HETATM    5  C6  UNL     1      23.798   4.248  50.454  1.00  0.00     0.051 A 
HETATM    6  C16 UNL     1      24.459   3.067  50.652  1.00  0.00     0.059 A 
ENDROOT
BRANCH   5   7
HETATM    7  N2  UNL     1      23.642   4.694  49.110  1.00  0.00    -0.188 N 
HETATM    8  H5  UNL     1      23.021   4.302  48.367  1.00  0.00     0.184 HD
BRANCH   7   9
HETATM    9  C7  UNL     1      24.349   5.802  48.558  1.00  0.00     0.727 A 
HETATM   10  N3  UNL     1      23.653   6.773  47.922  1.00  0.00    -0.075 NA
HETATM   11  C8  UNL     1      24.317   7.831  47.396  1.00  0.00     0.139 A 
HETATM   12  C9  UNL     1      25.688   7.972  47.476  1.00  0.00     0.053 A 
HETATM   13  C10 UNL     1      26.359   6.964  48.131  1.00  0.00     0.089 A 
HETATM   14  N5  UNL     1      25.687   5.920  48.649  1.00  0.00    -0.062 NA
BRANCH  13  15
HETATM   15  C11 UNL     1      27.807   6.966  48.301  1.00  0.00     0.011 A 
HETATM   16  C12 UNL     1      28.505   5.784  48.179  1.00  0.00     0.017 A 
HETATM   17  C13 UNL     1      29.867   5.642  48.314  1.00  0.00     0.020 A 
HETATM   18  C14 UNL     1      30.582   6.809  48.599  1.00  0.00     0.116 A 
HETATM   19  N4  UNL     1      29.916   7.988  48.725  1.00  0.00    -0.272 NA
HETATM   20  C15 UNL     1      28.578   8.074  48.583  1.00  0.00     0.130 A 
ENDBRANCH  13  15
ENDBRANCH   7   9
ENDBRANCH   5   7
BRANCH   1  21
HETATM   21  N1  UNL     1      25.273   1.433  52.350  1.00  0.00    -0.327 N 
HETATM   22  C1  UNL     1      26.277   1.268  53.314  1.00  0.00     0.226 C 
HETATM   23  O1  UNL     1      26.968   1.936  54.119  1.00  0.00    -0.273 OA
HETATM   24  H1  UNL     1      24.943   0.583  51.868  1.00  0.00     0.169 HD
BRANCH  22  25
HETATM   25  C17 UNL     1      26.829  -0.070  53.616  1.00  0.00     0.078 C 
HETATM   26  C18 UNL     1      26.806  -0.921  52.350  1.00  0.00     0.014 C 
HETATM   27  C19 UNL     1      27.674  -2.090  52.822  1.00  0.00     0.001 C 
HETATM   28  C20 UNL     1      28.879  -1.327  53.364  1.00  0.00     0.001 C 
HETATM   29  C21 UNL     1      28.342   0.016  53.835  1.00  0.00     0.014 C 
ENDBRANCH  22  25
ENDBRANCH   1  21
TORSDOF 5
ENDMDL
