MODEL 1
REMARK VINA RESULT:      -7.7      0.000      0.000
REMARK  6 active torsions:
REMARK  status: ('A' for Active; 'I' for Inactive)
REMARK    1  A    between atoms: C3_3  and  C4_4 
REMARK    2  A    between atoms: C4_4  and  N1_6 
REMARK    3  A    between atoms: N1_6  and  C6_7 
REMARK    4  A    between atoms: C9_10  and  N2_11 
REMARK    5  A    between atoms: N2_11  and  C10_12 
REMARK    6  A    between atoms: C13_16  and  C14_17 
ROOT
HETATM    1  N2  UNL     1      22.017   2.648  52.312  1.00  0.00    -0.188 N 
HETATM    2  H14 UNL     1      21.001   2.755  52.559  1.00  0.00     0.184 HD
ENDROOT
BRANCH   1   3
HETATM    3  C9  UNL     1      22.663   3.649  51.512  1.00  0.00     0.059 A 
HETATM    4  C7  UNL     1      23.169   3.908  50.168  1.00  0.00    -0.008 A 
HETATM    5  C6  UNL     1      23.563   5.128  50.505  1.00  0.00     0.038 A 
HETATM    6  C8  UNL     1      23.178   3.036  48.957  1.00  0.00     0.053 C 
HETATM    7  C19 UNL     1      23.059   4.886  51.859  1.00  0.00     0.060 A 
BRANCH   5   8
HETATM    8  N1  UNL     1      24.198   6.032  49.609  1.00  0.00    -0.382 N 
HETATM    9  H10 UNL     1      23.667   6.411  48.768  1.00  0.00     0.160 HD
BRANCH   8  10
HETATM   10  C4  UNL     1      25.563   6.307  50.016  1.00  0.00     0.100 C 
HETATM   11  C5  UNL     1      25.842   7.795  50.084  1.00  0.00     0.036 C 
BRANCH  10  12
HETATM   12  C3  UNL     1      26.459   5.727  48.988  1.00  0.00    -0.007 C 
HETATM   13  C2  UNL     1      26.948   4.509  48.962  1.00  0.00    -0.033 C 
HETATM   14  C1  UNL     1      26.737   3.419  49.936  1.00  0.00     0.036 C 
ENDBRANCH  10  12
ENDBRANCH   8  10
ENDBRANCH   5   8
ENDBRANCH   1   3
BRANCH   1  15
HETATM   15  C10 UNL     1      22.796   1.539  52.739  1.00  0.00     0.727 A 
HETATM   16  N3  UNL     1      22.230   0.348  52.872  1.00  0.00    -0.075 NA
HETATM   17  C11 UNL     1      22.991  -0.697  53.280  1.00  0.00     0.139 A 
HETATM   18  C12 UNL     1      24.339  -0.446  53.538  1.00  0.00     0.053 A 
HETATM   19  C13 UNL     1      24.935   0.793  53.402  1.00  0.00     0.089 A 
HETATM   20  N5  UNL     1      24.081   1.741  52.993  1.00  0.00    -0.062 NA
BRANCH  19  21
HETATM   21  C14 UNL     1      26.350   0.965  53.702  1.00  0.00     0.011 A 
HETATM   22  C15 UNL     1      27.148   2.016  53.320  1.00  0.00     0.017 A 
HETATM   23  C16 UNL     1      28.480   2.047  53.680  1.00  0.00     0.020 A 
HETATM   24  C17 UNL     1      28.985   0.985  54.438  1.00  0.00     0.116 A 
HETATM   25  N4  UNL     1      28.185  -0.045  54.807  1.00  0.00    -0.272 NA
HETATM   26  C18 UNL     1      26.877  -0.059  54.443  1.00  0.00     0.130 A 
ENDBRANCH  19  21
ENDBRANCH   1  15
TORSDOF 6
ENDMDL
MODEL 2
REMARK VINA RESULT:      -7.6      1.917      6.509
REMARK  6 active torsions:
REMARK  status: ('A' for Active; 'I' for Inactive)
REMARK    1  A    between atoms: C3_3  and  C4_4 
REMARK    2  A    between atoms: C4_4  and  N1_6 
REMARK    3  A    between atoms: N1_6  and  C6_7 
REMARK    4  A    between atoms: C9_10  and  N2_11 
REMARK    5  A    between atoms: N2_11  and  C10_12 
REMARK    6  A    between atoms: C13_16  and  C14_17 
ROOT
HETATM    1  N2  UNL     1      24.280   3.439  52.966  1.00  0.00    -0.188 N 
HETATM    2  H14 UNL     1      23.875   4.019  53.744  1.00  0.00     0.184 HD
ENDROOT
BRANCH   1   3
HETATM    3  C9  UNL     1      24.978   2.224  53.273  1.00  0.00     0.059 A 
HETATM    4  C7  UNL     1      24.811   0.776  53.333  1.00  0.00    -0.008 A 
HETATM    5  C6  UNL     1      26.064   0.605  53.731  1.00  0.00     0.038 A 
HETATM    6  C8  UNL     1      23.618  -0.070  53.033  1.00  0.00     0.053 C 
HETATM    7  C19 UNL     1      26.250   2.057  53.676  1.00  0.00     0.060 A 
BRANCH   5   8
HETATM    8  N1  UNL     1      26.642  -0.666  54.006  1.00  0.00    -0.382 N 
HETATM    9  H10 UNL     1      26.469  -1.139  54.944  1.00  0.00     0.160 HD
BRANCH   8  10
HETATM   10  C4  UNL     1      27.429  -1.141  52.884  1.00  0.00     0.100 C 
HETATM   11  C5  UNL     1      26.818  -2.374  52.249  1.00  0.00     0.036 C 
BRANCH  10  12
HETATM   12  C3  UNL     1      28.764  -1.517  53.405  1.00  0.00    -0.007 C 
HETATM   13  C2  UNL     1      29.753  -0.706  53.704  1.00  0.00    -0.033 C 
HETATM   14  C1  UNL     1      29.790   0.766  53.599  1.00  0.00     0.036 C 
ENDBRANCH  10  12
ENDBRANCH   8  10
ENDBRANCH   5   8
ENDBRANCH   1   3
BRANCH   1  15
HETATM   15  C10 UNL     1      24.167   3.809  51.598  1.00  0.00     0.727 A 
HETATM   16  N3  UNL     1      23.037   3.581  50.944  1.00  0.00    -0.075 NA
HETATM   17  C11 UNL     1      22.950   3.941  49.640  1.00  0.00     0.139 A 
HETATM   18  C12 UNL     1      24.073   4.536  49.064  1.00  0.00     0.053 A 
HETATM   19  C13 UNL     1      25.254   4.776  49.739  1.00  0.00     0.089 A 
HETATM   20  N5  UNL     1      25.215   4.377  51.017  1.00  0.00    -0.062 NA
BRANCH  19  21
HETATM   21  C14 UNL     1      26.380   5.395  49.054  1.00  0.00     0.011 A 
HETATM   22  C15 UNL     1      26.422   6.662  48.523  1.00  0.00     0.017 A 
HETATM   23  C16 UNL     1      27.566   7.118  47.900  1.00  0.00     0.020 A 
HETATM   24  C17 UNL     1      28.667   6.260  47.826  1.00  0.00     0.116 A 
HETATM   25  N4  UNL     1      28.610   5.013  48.354  1.00  0.00    -0.272 NA
HETATM   26  C18 UNL     1      27.477   4.580  48.965  1.00  0.00     0.130 A 
ENDBRANCH  19  21
ENDBRANCH   1  15
TORSDOF 6
ENDMDL
MODEL 3
REMARK VINA RESULT:      -7.3      1.514      2.306
REMARK  6 active torsions:
REMARK  status: ('A' for Active; 'I' for Inactive)
REMARK    1  A    between atoms: C3_3  and  C4_4 
REMARK    2  A    between atoms: C4_4  and  N1_6 
REMARK    3  A    between atoms: N1_6  and  C6_7 
REMARK    4  A    between atoms: C9_10  and  N2_11 
REMARK    5  A    between atoms: N2_11  and  C10_12 
REMARK    6  A    between atoms: C13_16  and  C14_17 
ROOT
HETATM    1  N2  UNL     1      22.993   2.079  50.777  1.00  0.00    -0.188 N 
HETATM    2  H14 UNL     1      22.118   2.007  50.198  1.00  0.00     0.184 HD
ENDROOT
BRANCH   1   3
HETATM    3  C9  UNL     1      23.914   3.154  50.541  1.00  0.00     0.059 A 
HETATM    4  C7  UNL     1      24.253   4.505  50.976  1.00  0.00    -0.008 A 
HETATM    5  C6  UNL     1      25.260   4.574  50.117  1.00  0.00     0.038 A 
HETATM    6  C8  UNL     1      23.619   5.371  52.013  1.00  0.00     0.053 C 
HETATM    7  C19 UNL     1      24.934   3.218  49.669  1.00  0.00     0.060 A 
BRANCH   5   8
HETATM    8  N1  UNL     1      26.108   5.708  49.979  1.00  0.00    -0.382 N 
HETATM    9  H10 UNL     1      26.370   6.286  50.834  1.00  0.00     0.160 HD
BRANCH   8  10
HETATM   10  C4  UNL     1      26.504   5.907  48.598  1.00  0.00     0.100 C 
HETATM   11  C5  UNL     1      28.005   5.801  48.421  1.00  0.00     0.036 C 
BRANCH  10  12
HETATM   12  C3  UNL     1      26.099   7.280  48.212  1.00  0.00    -0.007 C 
HETATM   13  C2  UNL     1      24.910   7.672  47.816  1.00  0.00    -0.033 C 
HETATM   14  C1  UNL     1      23.688   6.860  47.654  1.00  0.00     0.036 C 
ENDBRANCH  10  12
ENDBRANCH   8  10
ENDBRANCH   5   8
ENDBRANCH   1   3
BRANCH   1  15
HETATM   15  C10 UNL     1      23.313   1.146  51.800  1.00  0.00     0.727 A 
HETATM   16  N3  UNL     1      22.343   0.482  52.413  1.00  0.00    -0.075 NA
HETATM   17  C11 UNL     1      22.670  -0.404  53.386  1.00  0.00     0.139 A 
HETATM   18  C12 UNL     1      24.024  -0.558  53.683  1.00  0.00     0.053 A 
HETATM   19  C13 UNL     1      25.039   0.131  53.050  1.00  0.00     0.089 A 
HETATM   20  N5  UNL     1      24.590   0.974  52.109  1.00  0.00    -0.062 NA
BRANCH  19  21
HETATM   21  C14 UNL     1      26.427  -0.088  53.432  1.00  0.00     0.011 A 
HETATM   22  C15 UNL     1      27.328  -0.921  52.812  1.00  0.00     0.017 A 
HETATM   23  C16 UNL     1      28.619  -1.027  53.286  1.00  0.00     0.020 A 
HETATM   24  C17 UNL     1      28.977  -0.269  54.406  1.00  0.00     0.116 A 
HETATM   25  N4  UNL     1      28.078   0.548  55.006  1.00  0.00    -0.272 NA
HETATM   26  C18 UNL     1      26.811   0.640  54.526  1.00  0.00     0.130 A 
ENDBRANCH  19  21
ENDBRANCH   1  15
TORSDOF 6
ENDMDL
MODEL 4
REMARK VINA RESULT:      -7.1      1.855      2.377
REMARK  6 active torsions:
REMARK  status: ('A' for Active; 'I' for Inactive)
REMARK    1  A    between atoms: C3_3  and  C4_4 
REMARK    2  A    between atoms: C4_4  and  N1_6 
REMARK    3  A    between atoms: N1_6  and  C6_7 
REMARK    4  A    between atoms: C9_10  and  N2_11 
REMARK    5  A    between atoms: N2_11  and  C10_12 
REMARK    6  A    between atoms: C13_16  and  C14_17 
ROOT
HETATM    1  N2  UNL     1      24.432   3.586  52.802  1.00  0.00    -0.188 N 
HETATM    2  H14 UNL     1      24.557   4.253  53.606  1.00  0.00     0.184 HD
ENDROOT
BRANCH   1   3
HETATM    3  C9  UNL     1      24.239   4.100  51.476  1.00  0.00     0.059 A 
HETATM    4  C7  UNL     1      24.842   4.133  50.148  1.00  0.00    -0.008 A 
HETATM    5  C6  UNL     1      23.852   4.874  49.671  1.00  0.00     0.038 A 
HETATM    6  C8  UNL     1      26.107   3.518  49.648  1.00  0.00     0.053 C 
HETATM    7  C19 UNL     1      23.233   4.851  50.998  1.00  0.00     0.060 A 
BRANCH   5   8
HETATM    8  N1  UNL     1      23.777   5.323  48.323  1.00  0.00    -0.382 N 
HETATM    9  H10 UNL     1      23.646   4.622  47.533  1.00  0.00     0.160 HD
BRANCH   8  10
HETATM   10  C4  UNL     1      23.903   6.766  48.239  1.00  0.00     0.100 C 
HETATM   11  C5  UNL     1      23.039   7.345  47.137  1.00  0.00     0.036 C 
BRANCH  10  12
HETATM   12  C3  UNL     1      25.316   7.071  47.912  1.00  0.00    -0.007 C 
HETATM   13  C2  UNL     1      26.243   7.506  48.734  1.00  0.00    -0.033 C 
HETATM   14  C1  UNL     1      26.119   7.800  50.176  1.00  0.00     0.036 C 
ENDBRANCH  10  12
ENDBRANCH   8  10
ENDBRANCH   5   8
ENDBRANCH   1   3
BRANCH   1  15
HETATM   15  C10 UNL     1      24.445   2.175  52.969  1.00  0.00     0.727 A 
HETATM   16  N3  UNL     1      23.300   1.513  53.071  1.00  0.00    -0.075 NA
HETATM   17  C11 UNL     1      23.335   0.168  53.229  1.00  0.00     0.139 A 
HETATM   18  C12 UNL     1      24.589  -0.441  53.276  1.00  0.00     0.053 A 
HETATM   19  C13 UNL     1      25.785   0.242  53.171  1.00  0.00     0.089 A 
HETATM   20  N5  UNL     1      25.619   1.563  53.017  1.00  0.00    -0.062 NA
BRANCH  19  21
HETATM   21  C14 UNL     1      27.051  -0.475  53.239  1.00  0.00     0.011 A 
HETATM   22  C15 UNL     1      28.269   0.042  53.607  1.00  0.00     0.017 A 
HETATM   23  C16 UNL     1      29.390  -0.762  53.627  1.00  0.00     0.020 A 
HETATM   24  C17 UNL     1      29.248  -2.105  53.264  1.00  0.00     0.116 A 
HETATM   25  N4  UNL     1      28.039  -2.601  52.902  1.00  0.00    -0.272 NA
HETATM   26  C18 UNL     1      26.946  -1.795  52.889  1.00  0.00     0.130 A 
ENDBRANCH  19  21
ENDBRANCH   1  15
TORSDOF 6
ENDMDL
MODEL 5
REMARK VINA RESULT:      -7.1      2.138      4.717
REMARK  6 active torsions:
REMARK  status: ('A' for Active; 'I' for Inactive)
REMARK    1  A    between atoms: C3_3  and  C4_4 
REMARK    2  A    between atoms: C4_4  and  N1_6 
REMARK    3  A    between atoms: N1_6  and  C6_7 
REMARK    4  A    between atoms: C9_10  and  N2_11 
REMARK    5  A    between atoms: N2_11  and  C10_12 
REMARK    6  A    between atoms: C13_16  and  C14_17 
ROOT
HETATM    1  N2  UNL     1      26.081   3.107  51.469  1.00  0.00    -0.188 N 
HETATM    2  H14 UNL     1      26.853   3.790  51.677  1.00  0.00     0.184 HD
ENDROOT
BRANCH   1   3
HETATM    3  C9  UNL     1      25.043   3.467  50.545  1.00  0.00     0.059 A 
HETATM    4  C7  UNL     1      23.645   3.877  50.477  1.00  0.00    -0.008 A 
HETATM    5  C6  UNL     1      23.687   3.951  49.155  1.00  0.00     0.038 A 
HETATM    6  C8  UNL     1      22.649   4.094  51.569  1.00  0.00     0.053 C 
HETATM    7  C19 UNL     1      25.092   3.541  49.204  1.00  0.00     0.060 A 
BRANCH   5   8
HETATM    8  N1  UNL     1      22.577   4.325  48.346  1.00  0.00    -0.382 N 
HETATM    9  H10 UNL     1      22.170   5.306  48.418  1.00  0.00     0.160 HD
BRANCH   8  10
HETATM   10  C4  UNL     1      22.150   3.229  47.497  1.00  0.00     0.100 C 
HETATM   11  C5  UNL     1      21.989   3.664  46.055  1.00  0.00     0.036 C 
BRANCH  10  12
HETATM   12  C3  UNL     1      20.824   2.780  47.984  1.00  0.00    -0.007 C 
HETATM   13  C2  UNL     1      20.581   1.801  48.825  1.00  0.00    -0.033 C 
HETATM   14  C1  UNL     1      21.550   0.909  49.493  1.00  0.00     0.036 C 
ENDBRANCH  10  12
ENDBRANCH   8  10
ENDBRANCH   5   8
ENDBRANCH   1   3
BRANCH   1  15
HETATM   15  C10 UNL     1      26.012   1.821  52.072  1.00  0.00     0.727 A 
HETATM   16  N3  UNL     1      27.116   1.101  52.214  1.00  0.00    -0.075 NA
HETATM   17  C11 UNL     1      27.029  -0.122  52.791  1.00  0.00     0.139 A 
HETATM   18  C12 UNL     1      25.766  -0.549  53.202  1.00  0.00     0.053 A 
HETATM   19  C13 UNL     1      24.612   0.196  53.056  1.00  0.00     0.089 A 
HETATM   20  N5  UNL     1      24.828   1.383  52.474  1.00  0.00    -0.062 NA
BRANCH  19  21
HETATM   21  C14 UNL     1      23.332  -0.334  53.507  1.00  0.00     0.011 A 
HETATM   22  C15 UNL     1      22.111  -0.155  52.903  1.00  0.00     0.017 A 
HETATM   23  C16 UNL     1      20.976  -0.721  53.446  1.00  0.00     0.020 A 
HETATM   24  C17 UNL     1      21.107  -1.475  54.617  1.00  0.00     0.116 A 
HETATM   25  N4  UNL     1      22.319  -1.643  55.200  1.00  0.00    -0.272 NA
HETATM   26  C18 UNL     1      23.426  -1.078  54.652  1.00  0.00     0.130 A 
ENDBRANCH  19  21
ENDBRANCH   1  15
TORSDOF 6
ENDMDL
MODEL 6
REMARK VINA RESULT:      -7.1      1.681      6.302
REMARK  6 active torsions:
REMARK  status: ('A' for Active; 'I' for Inactive)
REMARK    1  A    between atoms: C3_3  and  C4_4 
REMARK    2  A    between atoms: C4_4  and  N1_6 
REMARK    3  A    between atoms: N1_6  and  C6_7 
REMARK    4  A    between atoms: C9_10  and  N2_11 
REMARK    5  A    between atoms: N2_11  and  C10_12 
REMARK    6  A    between atoms: C13_16  and  C14_17 
ROOT
HETATM    1  N2  UNL     1      22.124   0.969  52.061  1.00  0.00    -0.188 N 
HETATM    2  H14 UNL     1      21.211   0.893  52.577  1.00  0.00     0.184 HD
ENDROOT
BRANCH   1   3
HETATM    3  C9  UNL     1      23.339   0.553  52.701  1.00  0.00     0.059 A 
HETATM    4  C7  UNL     1      24.590   1.063  53.254  1.00  0.00    -0.008 A 
HETATM    5  C6  UNL     1      24.989  -0.156  53.587  1.00  0.00     0.038 A 
HETATM    6  C8  UNL     1      25.104   2.461  53.345  1.00  0.00     0.053 C 
HETATM    7  C19 UNL     1      23.738  -0.685  53.038  1.00  0.00     0.060 A 
BRANCH   5   8
HETATM    8  N1  UNL     1      26.229  -0.438  54.224  1.00  0.00    -0.382 N 
HETATM    9  H10 UNL     1      26.286  -0.481  55.286  1.00  0.00     0.160 HD
BRANCH   8  10
HETATM   10  C4  UNL     1      27.289  -0.632  53.253  1.00  0.00     0.100 C 
HETATM   11  C5  UNL     1      27.302  -2.045  52.707  1.00  0.00     0.036 C 
BRANCH  10  12
HETATM   12  C3  UNL     1      28.578  -0.405  53.949  1.00  0.00    -0.007 C 
HETATM   13  C2  UNL     1      29.193   0.743  54.121  1.00  0.00    -0.033 C 
HETATM   14  C1  UNL     1      28.767   2.083  53.670  1.00  0.00     0.036 C 
ENDBRANCH  10  12
ENDBRANCH   8  10
ENDBRANCH   5   8
ENDBRANCH   1   3
BRANCH   1  15
HETATM   15  C10 UNL     1      22.214   1.476  50.737  1.00  0.00     0.727 A 
HETATM   16  N3  UNL     1      21.598   0.846  49.746  1.00  0.00    -0.075 NA
HETATM   17  C11 UNL     1      21.697   1.346  48.490  1.00  0.00     0.139 A 
HETATM   18  C12 UNL     1      22.451   2.507  48.321  1.00  0.00     0.053 A 
HETATM   19  C13 UNL     1      23.096   3.169  49.347  1.00  0.00     0.089 A 
HETATM   20  N5  UNL     1      22.923   2.579  50.538  1.00  0.00    -0.062 NA
BRANCH  19  21
HETATM   21  C14 UNL     1      23.870   4.373  49.076  1.00  0.00     0.011 A 
HETATM   22  C15 UNL     1      23.496   5.426  48.277  1.00  0.00     0.017 A 
HETATM   23  C16 UNL     1      24.336   6.508  48.113  1.00  0.00     0.020 A 
HETATM   24  C17 UNL     1      25.566   6.498  48.778  1.00  0.00     0.116 A 
HETATM   25  N4  UNL     1      25.921   5.451  49.564  1.00  0.00    -0.272 NA
HETATM   26  C18 UNL     1      25.081   4.395  49.714  1.00  0.00     0.130 A 
ENDBRANCH  19  21
ENDBRANCH   1  15
TORSDOF 6
ENDMDL
MODEL 7
REMARK VINA RESULT:      -6.9      2.432      3.588
REMARK  6 active torsions:
REMARK  status: ('A' for Active; 'I' for Inactive)
REMARK    1  A    between atoms: C3_3  and  C4_4 
REMARK    2  A    between atoms: C4_4  and  N1_6 
REMARK    3  A    between atoms: N1_6  and  C6_7 
REMARK    4  A    between atoms: C9_10  and  N2_11 
REMARK    5  A    between atoms: N2_11  and  C10_12 
REMARK    6  A    between atoms: C13_16  and  C14_17 
ROOT
HETATM    1  N2  UNL     1      25.416   3.716  49.552  1.00  0.00    -0.188 N 
HETATM    2  H14 UNL     1      25.048   3.180  48.726  1.00  0.00     0.184 HD
ENDROOT
BRANCH   1   3
HETATM    3  C9  UNL     1      25.969   5.026  49.361  1.00  0.00     0.059 A 
HETATM    4  C7  UNL     1      25.765   6.430  49.703  1.00  0.00    -0.008 A 
HETATM    5  C6  UNL     1      26.839   6.796  49.019  1.00  0.00     0.038 A 
HETATM    6  C8  UNL     1      24.701   7.076  50.527  1.00  0.00     0.053 C 
HETATM    7  C19 UNL     1      27.059   5.392  48.666  1.00  0.00     0.060 A 
BRANCH   5   8
HETATM    8  N1  UNL     1      27.285   8.143  48.906  1.00  0.00    -0.382 N 
HETATM    9  H10 UNL     1      26.578   8.934  48.819  1.00  0.00     0.160 HD
BRANCH   8  10
HETATM   10  C4  UNL     1      28.734   8.222  48.926  1.00  0.00     0.100 C 
HETATM   11  C5  UNL     1      29.218   9.544  49.486  1.00  0.00     0.036 C 
BRANCH  10  12
HETATM   12  C3  UNL     1      29.204   8.126  47.524  1.00  0.00    -0.007 C 
HETATM   13  C2  UNL     1      29.986   7.203  47.014  1.00  0.00    -0.033 C 
HETATM   14  C1  UNL     1      30.590   6.040  47.694  1.00  0.00     0.036 C 
ENDBRANCH  10  12
ENDBRANCH   8  10
ENDBRANCH   5   8
ENDBRANCH   1   3
BRANCH   1  15
HETATM   15  C10 UNL     1      25.394   3.194  50.874  1.00  0.00     0.727 A 
HETATM   16  N3  UNL     1      24.414   3.533  51.700  1.00  0.00    -0.075 NA
HETATM   17  C11 UNL     1      24.412   3.024  52.957  1.00  0.00     0.139 A 
HETATM   18  C12 UNL     1      25.456   2.165  53.302  1.00  0.00     0.053 A 
HETATM   19  C13 UNL     1      26.479   1.808  52.447  1.00  0.00     0.089 A 
HETATM   20  N5  UNL     1      26.370   2.374  51.237  1.00  0.00    -0.062 NA
BRANCH  19  21
HETATM   21  C14 UNL     1      27.534   0.910  52.896  1.00  0.00     0.011 A 
HETATM   22  C15 UNL     1      28.788   1.268  53.331  1.00  0.00     0.017 A 
HETATM   23  C16 UNL     1      29.688   0.303  53.730  1.00  0.00     0.020 A 
HETATM   24  C17 UNL     1      29.290  -1.037  53.680  1.00  0.00     0.116 A 
HETATM   25  N4  UNL     1      28.050  -1.375  53.248  1.00  0.00    -0.272 NA
HETATM   26  C18 UNL     1      27.175  -0.411  52.859  1.00  0.00     0.130 A 
ENDBRANCH  19  21
ENDBRANCH   1  15
TORSDOF 6
ENDMDL
MODEL 8
REMARK VINA RESULT:      -6.9      1.712      2.725
REMARK  6 active torsions:
REMARK  status: ('A' for Active; 'I' for Inactive)
REMARK    1  A    between atoms: C3_3  and  C4_4 
REMARK    2  A    between atoms: C4_4  and  N1_6 
REMARK    3  A    between atoms: N1_6  and  C6_7 
REMARK    4  A    between atoms: C9_10  and  N2_11 
REMARK    5  A    between atoms: N2_11  and  C10_12 
REMARK    6  A    between atoms: C13_16  and  C14_17 
ROOT
HETATM    1  N2  UNL     1      22.119   1.635  51.694  1.00  0.00    -0.188 N 
HETATM    2  H14 UNL     1      21.457   1.310  50.945  1.00  0.00     0.184 HD
ENDROOT
BRANCH   1   3
HETATM    3  C9  UNL     1      22.497   3.018  51.756  1.00  0.00     0.059 A 
HETATM    4  C7  UNL     1      23.583   3.937  51.434  1.00  0.00    -0.008 A 
HETATM    5  C6  UNL     1      22.901   4.974  51.900  1.00  0.00     0.038 A 
HETATM    6  C8  UNL     1      24.916   3.675  50.814  1.00  0.00     0.053 C 
HETATM    7  C19 UNL     1      21.800   4.066  52.229  1.00  0.00     0.060 A 
BRANCH   5   8
HETATM    8  N1  UNL     1      23.394   6.309  51.904  1.00  0.00    -0.382 N 
HETATM    9  H10 UNL     1      23.874   6.698  52.771  1.00  0.00     0.160 HD
BRANCH   8  10
HETATM   10  C4  UNL     1      23.139   6.970  50.638  1.00  0.00     0.100 C 
HETATM   11  C5  UNL     1      24.045   8.167  50.435  1.00  0.00     0.036 C 
BRANCH  10  12
HETATM   12  C3  UNL     1      21.741   7.459  50.664  1.00  0.00    -0.007 C 
HETATM   13  C2  UNL     1      20.735   7.018  49.946  1.00  0.00    -0.033 C 
HETATM   14  C1  UNL     1      20.736   5.937  48.940  1.00  0.00     0.036 C 
ENDBRANCH  10  12
ENDBRANCH   8  10
ENDBRANCH   5   8
ENDBRANCH   1   3
BRANCH   1  15
HETATM   15  C10 UNL     1      22.670   0.755  52.665  1.00  0.00     0.727 A 
HETATM   16  N3  UNL     1      21.865   0.060  53.456  1.00  0.00    -0.075 NA
HETATM   17  C11 UNL     1      22.411  -0.774  54.374  1.00  0.00     0.139 A 
HETATM   18  C12 UNL     1      23.803  -0.846  54.428  1.00  0.00     0.053 A 
HETATM   19  C13 UNL     1      24.647  -0.124  53.607  1.00  0.00     0.089 A 
HETATM   20  N5  UNL     1      23.990   0.662  52.744  1.00  0.00    -0.062 NA
BRANCH  19  21
HETATM   21  C14 UNL     1      26.092  -0.255  53.739  1.00  0.00     0.011 A 
HETATM   22  C15 UNL     1      26.923  -1.014  52.950  1.00  0.00     0.017 A 
HETATM   23  C16 UNL     1      28.281  -1.041  53.193  1.00  0.00     0.020 A 
HETATM   24  C17 UNL     1      28.779  -0.280  54.256  1.00  0.00     0.116 A 
HETATM   25  N4  UNL     1      27.946   0.463  55.026  1.00  0.00    -0.272 NA
HETATM   26  C18 UNL     1      26.612   0.478  54.772  1.00  0.00     0.130 A 
ENDBRANCH  19  21
ENDBRANCH   1  15
TORSDOF 6
ENDMDL
MODEL 9
REMARK VINA RESULT:      -6.8      1.728      2.610
REMARK  6 active torsions:
REMARK  status: ('A' for Active; 'I' for Inactive)
REMARK    1  A    between atoms: C3_3  and  C4_4 
REMARK    2  A    between atoms: C4_4  and  N1_6 
REMARK    3  A    between atoms: N1_6  and  C6_7 
REMARK    4  A    between atoms: C9_10  and  N2_11 
REMARK    5  A    between atoms: N2_11  and  C10_12 
REMARK    6  A    between atoms: C13_16  and  C14_17 
ROOT
HETATM    1  N2  UNL     1      23.675   5.444  52.369  1.00  0.00    -0.188 N 
HETATM    2  H14 UNL     1      23.341   6.042  53.166  1.00  0.00     0.184 HD
ENDROOT
BRANCH   1   3
HETATM    3  C9  UNL     1      24.307   6.057  51.236  1.00  0.00     0.059 A 
HETATM    4  C7  UNL     1      25.113   5.757  50.057  1.00  0.00    -0.008 A 
HETATM    5  C6  UNL     1      25.141   7.033  49.699  1.00  0.00     0.038 A 
HETATM    6  C8  UNL     1      25.643   4.454  49.557  1.00  0.00     0.053 C 
HETATM    7  C19 UNL     1      24.331   7.352  50.877  1.00  0.00     0.060 A 
BRANCH   5   8
HETATM    8  N1  UNL     1      25.810   7.517  48.540  1.00  0.00    -0.382 N 
HETATM    9  H10 UNL     1      25.351   7.431  47.584  1.00  0.00     0.160 HD
BRANCH   8  10
HETATM   10  C4  UNL     1      27.101   8.088  48.876  1.00  0.00     0.100 C 
HETATM   11  C5  UNL     1      27.013   9.582  49.107  1.00  0.00     0.036 C 
BRANCH  10  12
HETATM   12  C3  UNL     1      28.001   7.861  47.720  1.00  0.00    -0.007 C 
HETATM   13  C2  UNL     1      28.757   6.810  47.500  1.00  0.00    -0.033 C 
HETATM   14  C1  UNL     1      28.904   5.601  48.335  1.00  0.00     0.036 C 
ENDBRANCH  10  12
ENDBRANCH   8  10
ENDBRANCH   5   8
ENDBRANCH   1   3
BRANCH   1  15
HETATM   15  C10 UNL     1      23.526   4.030  52.358  1.00  0.00     0.727 A 
HETATM   16  N3  UNL     1      22.363   3.493  52.018  1.00  0.00    -0.075 NA
HETATM   17  C11 UNL     1      22.243   2.142  52.014  1.00  0.00     0.139 A 
HETATM   18  C12 UNL     1      23.366   1.398  52.375  1.00  0.00     0.053 A 
HETATM   19  C13 UNL     1      24.580   1.951  52.731  1.00  0.00     0.089 A 
HETATM   20  N5  UNL     1      24.573   3.291  52.696  1.00  0.00    -0.062 NA
BRANCH  19  21
HETATM   21  C14 UNL     1      25.698   1.095  53.102  1.00  0.00     0.011 A 
HETATM   22  C15 UNL     1      25.992  -0.143  52.584  1.00  0.00     0.017 A 
HETATM   23  C16 UNL     1      27.093  -0.843  53.033  1.00  0.00     0.020 A 
HETATM   24  C17 UNL     1      27.891  -0.259  54.021  1.00  0.00     0.116 A 
HETATM   25  N4  UNL     1      27.589   0.964  54.523  1.00  0.00    -0.272 NA
HETATM   26  C18 UNL     1      26.501   1.639  54.069  1.00  0.00     0.130 A 
ENDBRANCH  19  21
ENDBRANCH   1  15
TORSDOF 6
ENDMDL
