MODEL 1
REMARK VINA RESULT:      -7.7      0.000      0.000
REMARK  4 active torsions:
REMARK  status: ('A' for Active; 'I' for Inactive)
REMARK    1  A    between atoms: O1_2  and  C2_3 
REMARK    2  A    between atoms: C9_12  and  O2_13 
REMARK    3  A    between atoms: O2_13  and  C10_14 
REMARK    4  A    between atoms: C10_14  and  C11_15 
ROOT
HETATM    1  C2  UNL     1      22.665   1.740  51.748  1.00  0.00     0.103 A 
HETATM    2  C3  UNL     1      21.560   0.966  52.041  1.00  0.00     0.072 A 
HETATM    3  C4  UNL     1      21.605   0.030  53.052  1.00  0.00     0.072 A 
HETATM    4  N1  UNL     1      20.475  -0.678  53.263  1.00  0.00    -0.241 NA
HETATM    5  C5  UNL     1      20.460  -1.611  54.241  1.00  0.00     0.233 A 
HETATM    6  N2  UNL     1      21.558  -1.821  54.985  1.00  0.00    -0.253 NA
HETATM    7  C6  UNL     1      22.709  -1.142  54.814  1.00  0.00     0.132 A 
HETATM    8  C7  UNL     1      22.731  -0.190  53.820  1.00  0.00     0.013 A 
HETATM    9  C8  UNL     1      23.833   0.587  53.521  1.00  0.00     0.055 A 
HETATM   10  C9  UNL     1      23.819   1.536  52.512  1.00  0.00     0.103 A 
ENDROOT
BRANCH  10  11
HETATM   11  O2  UNL     1      24.974   2.266  52.289  1.00  0.00    -0.344 OA
BRANCH  11  12
HETATM   12  C10 UNL     1      25.959   1.731  51.459  1.00  0.00     0.214 C 
BRANCH  12  13
HETATM   13  C11 UNL     1      27.039   1.047  52.258  1.00  0.00    -0.032 A 
HETATM   14  C12 UNL     1      27.965   1.732  53.017  1.00  0.00     0.012 A 
HETATM   15  C13 UNL     1      28.940   1.087  53.737  1.00  0.00     0.044 A 
HETATM   16  C14 UNL     1      28.995  -0.281  53.700  1.00  0.00     0.138 A 
HETATM   17  F1  UNL     1      29.973  -0.906  54.423  1.00  0.00    -0.204 F 
HETATM   18  C15 UNL     1      28.101  -1.027  52.962  1.00  0.00     0.073 A 
HETATM   19 CL1  UNL     1      28.199  -2.783  52.936  1.00  0.00    -0.081 Cl
HETATM   20  C16 UNL     1      27.135  -0.349  52.251  1.00  0.00     0.036 A 
ENDBRANCH  12  13
ENDBRANCH  11  12
ENDBRANCH  10  11
BRANCH   1  21
HETATM   21  O1  UNL     1      22.778   2.717  50.770  1.00  0.00    -0.353 OA
HETATM   22  C1  UNL     1      22.802   2.343  49.406  1.00  0.00     0.210 C 
ENDBRANCH   1  21
TORSDOF 4
ENDMDL
MODEL 2
REMARK VINA RESULT:      -7.6      4.154      5.951
REMARK  4 active torsions:
REMARK  status: ('A' for Active; 'I' for Inactive)
REMARK    1  A    between atoms: O1_2  and  C2_3 
REMARK    2  A    between atoms: C9_12  and  O2_13 
REMARK    3  A    between atoms: O2_13  and  C10_14 
REMARK    4  A    between atoms: C10_14  and  C11_15 
ROOT
HETATM    1  C2  UNL     1      24.209   0.055  53.434  1.00  0.00     0.103 A 
HETATM    2  C3  UNL     1      25.292  -0.495  54.089  1.00  0.00     0.072 A 
HETATM    3  C4  UNL     1      26.477   0.201  54.198  1.00  0.00     0.072 A 
HETATM    4  N1  UNL     1      27.478  -0.420  54.857  1.00  0.00    -0.241 NA
HETATM    5  C5  UNL     1      28.664   0.214  54.995  1.00  0.00     0.233 A 
HETATM    6  N2  UNL     1      28.831   1.444  54.481  1.00  0.00    -0.253 NA
HETATM    7  C6  UNL     1      27.864   2.105  53.815  1.00  0.00     0.132 A 
HETATM    8  C7  UNL     1      26.654   1.465  53.672  1.00  0.00     0.013 A 
HETATM    9  C8  UNL     1      25.567   2.010  53.017  1.00  0.00     0.055 A 
HETATM   10  C9  UNL     1      24.364   1.335  52.891  1.00  0.00     0.103 A 
ENDROOT
BRANCH  10  11
HETATM   11  O2  UNL     1      23.332   1.965  52.217  1.00  0.00    -0.344 OA
BRANCH  11  12
HETATM   12  C10 UNL     1      23.464   2.198  50.848  1.00  0.00     0.214 C 
BRANCH  12  13
HETATM   13  C11 UNL     1      24.151   3.511  50.577  1.00  0.00    -0.032 A 
HETATM   14  C12 UNL     1      23.670   4.723  51.031  1.00  0.00     0.012 A 
HETATM   15  C13 UNL     1      24.314   5.907  50.771  1.00  0.00     0.044 A 
HETATM   16  C14 UNL     1      25.471   5.886  50.039  1.00  0.00     0.138 A 
HETATM   17  F1  UNL     1      26.098   7.076  49.790  1.00  0.00    -0.204 F 
HETATM   18  C15 UNL     1      26.006   4.711  49.555  1.00  0.00     0.073 A 
HETATM   19 CL1  UNL     1      27.494   4.718  48.616  1.00  0.00    -0.081 Cl
HETATM   20  C16 UNL     1      25.336   3.540  49.833  1.00  0.00     0.036 A 
ENDBRANCH  12  13
ENDBRANCH  11  12
ENDBRANCH  10  11
BRANCH   1  21
HETATM   21  O1  UNL     1      22.959  -0.513  53.242  1.00  0.00    -0.353 OA
HETATM   22  C1  UNL     1      22.260  -1.059  54.343  1.00  0.00     0.210 C 
ENDBRANCH   1  21
TORSDOF 4
ENDMDL
MODEL 3
REMARK VINA RESULT:      -7.6      4.289      6.622
REMARK  4 active torsions:
REMARK  status: ('A' for Active; 'I' for Inactive)
REMARK    1  A    between atoms: O1_2  and  C2_3 
REMARK    2  A    between atoms: C9_12  and  O2_13 
REMARK    3  A    between atoms: O2_13  and  C10_14 
REMARK    4  A    between atoms: C10_14  and  C11_15 
ROOT
HETATM    1  C2  UNL     1      25.497   2.336  51.267  1.00  0.00     0.103 A 
HETATM    2  C3  UNL     1      26.817   2.472  51.649  1.00  0.00     0.072 A 
HETATM    3  C4  UNL     1      27.296   1.826  52.768  1.00  0.00     0.072 A 
HETATM    4  N1  UNL     1      28.600   2.021  53.060  1.00  0.00    -0.241 NA
HETATM    5  C5  UNL     1      29.125   1.413  54.146  1.00  0.00     0.233 A 
HETATM    6  N2  UNL     1      28.353   0.629  54.916  1.00  0.00    -0.253 NA
HETATM    7  C6  UNL     1      27.048   0.403  54.668  1.00  0.00     0.132 A 
HETATM    8  C7  UNL     1      26.507   1.019  53.563  1.00  0.00     0.013 A 
HETATM    9  C8  UNL     1      25.188   0.887  53.175  1.00  0.00     0.055 A 
HETATM   10  C9  UNL     1      24.677   1.523  52.056  1.00  0.00     0.103 A 
ENDROOT
BRANCH  10  11
HETATM   11  O2  UNL     1      23.341   1.329  51.750  1.00  0.00    -0.344 OA
BRANCH  11  12
HETATM   12  C10 UNL     1      22.372   1.759  52.656  1.00  0.00     0.214 C 
BRANCH  12  13
HETATM   13  C11 UNL     1      21.425   0.645  53.020  1.00  0.00    -0.032 A 
HETATM   14  C12 UNL     1      21.741  -0.350  53.923  1.00  0.00     0.012 A 
HETATM   15  C13 UNL     1      20.861  -1.355  54.239  1.00  0.00     0.044 A 
HETATM   16  C14 UNL     1      19.630  -1.372  53.639  1.00  0.00     0.138 A 
HETATM   17  F1  UNL     1      18.767  -2.381  53.966  1.00  0.00    -0.204 F 
HETATM   18  C15 UNL     1      19.250  -0.408  52.727  1.00  0.00     0.073 A 
HETATM   19 CL1  UNL     1      17.661  -0.459  51.974  1.00  0.00    -0.081 Cl
HETATM   20  C16 UNL     1      20.156   0.586  52.433  1.00  0.00     0.036 A 
ENDBRANCH  12  13
ENDBRANCH  11  12
ENDBRANCH  10  11
BRANCH   1  21
HETATM   21  O1  UNL     1      24.869   2.916  50.176  1.00  0.00    -0.353 OA
HETATM   22  C1  UNL     1      24.524   4.287  50.212  1.00  0.00     0.210 C 
ENDBRANCH   1  21
TORSDOF 4
ENDMDL
MODEL 4
REMARK VINA RESULT:      -7.6      4.028      6.264
REMARK  4 active torsions:
REMARK  status: ('A' for Active; 'I' for Inactive)
REMARK    1  A    between atoms: O1_2  and  C2_3 
REMARK    2  A    between atoms: C9_12  and  O2_13 
REMARK    3  A    between atoms: O2_13  and  C10_14 
REMARK    4  A    between atoms: C10_14  and  C11_15 
ROOT
HETATM    1  C2  UNL     1      24.836  -0.097  53.291  1.00  0.00     0.103 A 
HETATM    2  C3  UNL     1      25.921  -0.950  53.311  1.00  0.00     0.072 A 
HETATM    3  C4  UNL     1      27.203  -0.456  53.429  1.00  0.00     0.072 A 
HETATM    4  N1  UNL     1      28.197  -1.370  53.440  1.00  0.00    -0.241 NA
HETATM    5  C5  UNL     1      29.475  -0.944  53.554  1.00  0.00     0.233 A 
HETATM    6  N2  UNL     1      29.739   0.369  53.655  1.00  0.00    -0.253 NA
HETATM    7  C6  UNL     1      28.783   1.319  53.649  1.00  0.00     0.132 A 
HETATM    8  C7  UNL     1      27.480   0.892  53.534  1.00  0.00     0.013 A 
HETATM    9  C8  UNL     1      26.390   1.740  53.513  1.00  0.00     0.055 A 
HETATM   10  C9  UNL     1      25.091   1.275  53.395  1.00  0.00     0.103 A 
ENDROOT
BRANCH  10  11
HETATM   11  O2  UNL     1      24.065   2.205  53.384  1.00  0.00    -0.344 OA
BRANCH  11  12
HETATM   12  C10 UNL     1      24.204   3.352  52.603  1.00  0.00     0.214 C 
BRANCH  12  13
HETATM   13  C11 UNL     1      23.787   3.101  51.177  1.00  0.00    -0.032 A 
HETATM   14  C12 UNL     1      24.399   3.700  50.095  1.00  0.00     0.012 A 
HETATM   15  C13 UNL     1      24.001   3.455  48.803  1.00  0.00     0.044 A 
HETATM   16  C14 UNL     1      22.964   2.590  48.582  1.00  0.00     0.138 A 
HETATM   17  F1  UNL     1      22.581   2.358  47.290  1.00  0.00    -0.204 F 
HETATM   18  C15 UNL     1      22.307   1.957  49.618  1.00  0.00     0.073 A 
HETATM   19 CL1  UNL     1      20.978   0.850  49.299  1.00  0.00    -0.081 Cl
HETATM   20  C16 UNL     1      22.731   2.225  50.901  1.00  0.00     0.036 A 
ENDBRANCH  12  13
ENDBRANCH  11  12
ENDBRANCH  10  11
BRANCH   1  21
HETATM   21  O1  UNL     1      23.496  -0.435  53.178  1.00  0.00    -0.353 OA
HETATM   22  C1  UNL     1      22.807  -0.949  54.301  1.00  0.00     0.210 C 
ENDBRANCH   1  21
TORSDOF 4
ENDMDL
MODEL 5
REMARK VINA RESULT:      -7.4      4.973      6.459
REMARK  4 active torsions:
REMARK  status: ('A' for Active; 'I' for Inactive)
REMARK    1  A    between atoms: O1_2  and  C2_3 
REMARK    2  A    between atoms: C9_12  and  O2_13 
REMARK    3  A    between atoms: O2_13  and  C10_14 
REMARK    4  A    between atoms: C10_14  and  C11_15 
ROOT
HETATM    1  C2  UNL     1      24.855   1.362  52.129  1.00  0.00     0.103 A 
HETATM    2  C3  UNL     1      25.323   0.606  53.184  1.00  0.00     0.072 A 
HETATM    3  C4  UNL     1      26.632   0.716  53.603  1.00  0.00     0.072 A 
HETATM    4  N1  UNL     1      26.995  -0.065  54.642  1.00  0.00    -0.241 NA
HETATM    5  C5  UNL     1      28.266  -0.001  55.096  1.00  0.00     0.233 A 
HETATM    6  N2  UNL     1      29.146   0.832  54.515  1.00  0.00    -0.253 NA
HETATM    7  C6  UNL     1      28.832   1.630  53.475  1.00  0.00     0.132 A 
HETATM    8  C7  UNL     1      27.539   1.570  53.008  1.00  0.00     0.013 A 
HETATM    9  C8  UNL     1      27.064   2.324  51.953  1.00  0.00     0.055 A 
HETATM   10  C9  UNL     1      25.755   2.236  51.510  1.00  0.00     0.103 A 
ENDROOT
BRANCH  10  11
HETATM   11  O2  UNL     1      25.374   3.033  50.444  1.00  0.00    -0.344 OA
BRANCH  11  12
HETATM   12  C10 UNL     1      26.272   3.231  49.395  1.00  0.00     0.214 C 
BRANCH  12  13
HETATM   13  C11 UNL     1      26.587   4.693  49.209  1.00  0.00    -0.032 A 
HETATM   14  C12 UNL     1      25.783   5.706  49.691  1.00  0.00     0.012 A 
HETATM   15  C13 UNL     1      26.090   7.032  49.509  1.00  0.00     0.044 A 
HETATM   16  C14 UNL     1      27.231   7.359  48.826  1.00  0.00     0.138 A 
HETATM   17  F1  UNL     1      27.521   8.685  48.655  1.00  0.00    -0.204 F 
HETATM   18  C15 UNL     1      28.079   6.397  48.317  1.00  0.00     0.073 A 
HETATM   19 CL1  UNL     1      29.537   6.853  47.445  1.00  0.00    -0.081 Cl
HETATM   20  C16 UNL     1      27.741   5.077  48.517  1.00  0.00     0.036 A 
ENDBRANCH  12  13
ENDBRANCH  11  12
ENDBRANCH  10  11
BRANCH   1  21
HETATM   21  O1  UNL     1      23.575   1.367  51.593  1.00  0.00    -0.353 OA
HETATM   22  C1  UNL     1      22.548   0.631  52.227  1.00  0.00     0.210 C 
ENDBRANCH   1  21
TORSDOF 4
ENDMDL
MODEL 6
REMARK VINA RESULT:      -7.4      4.561      7.114
REMARK  4 active torsions:
REMARK  status: ('A' for Active; 'I' for Inactive)
REMARK    1  A    between atoms: O1_2  and  C2_3 
REMARK    2  A    between atoms: C9_12  and  O2_13 
REMARK    3  A    between atoms: O2_13  and  C10_14 
REMARK    4  A    between atoms: C10_14  and  C11_15 
ROOT
HETATM    1  C2  UNL     1      24.274  -0.091  53.767  1.00  0.00     0.103 A 
HETATM    2  C3  UNL     1      25.452  -0.513  54.351  1.00  0.00     0.072 A 
HETATM    3  C4  UNL     1      26.587   0.266  54.288  1.00  0.00     0.072 A 
HETATM    4  N1  UNL     1      27.689  -0.231  54.889  1.00  0.00    -0.241 NA
HETATM    5  C5  UNL     1      28.832   0.489  54.860  1.00  0.00     0.233 A 
HETATM    6  N2  UNL     1      28.860   1.680  54.240  1.00  0.00    -0.253 NA
HETATM    7  C6  UNL     1      27.788   2.220  53.625  1.00  0.00     0.132 A 
HETATM    8  C7  UNL     1      26.621   1.491  53.652  1.00  0.00     0.013 A 
HETATM    9  C8  UNL     1      25.439   1.907  53.070  1.00  0.00     0.055 A 
HETATM   10  C9  UNL     1      24.283   1.147  53.117  1.00  0.00     0.103 A 
ENDROOT
BRANCH  10  11
HETATM   11  O2  UNL     1      23.148   1.650  52.503  1.00  0.00    -0.344 OA
BRANCH  11  12
HETATM   12  C10 UNL     1      23.005   1.498  51.124  1.00  0.00     0.214 C 
BRANCH  12  13
HETATM   13  C11 UNL     1      21.560   1.313  50.738  1.00  0.00    -0.032 A 
HETATM   14  C12 UNL     1      21.007   1.858  49.597  1.00  0.00     0.012 A 
HETATM   15  C13 UNL     1      19.687   1.675  49.267  1.00  0.00     0.044 A 
HETATM   16  C14 UNL     1      18.893   0.928  50.096  1.00  0.00     0.138 A 
HETATM   17  F1  UNL     1      17.581   0.756  49.750  1.00  0.00    -0.204 F 
HETATM   18  C15 UNL     1      19.382   0.355  51.252  1.00  0.00     0.073 A 
HETATM   19 CL1  UNL     1      18.335  -0.600  52.295  1.00  0.00    -0.081 Cl
HETATM   20  C16 UNL     1      20.709   0.558  51.554  1.00  0.00     0.036 A 
ENDBRANCH  12  13
ENDBRANCH  11  12
ENDBRANCH  10  11
BRANCH   1  21
HETATM   21  O1  UNL     1      23.057  -0.755  53.744  1.00  0.00    -0.353 OA
HETATM   22  C1  UNL     1      22.527  -1.290  54.941  1.00  0.00     0.210 C 
ENDBRANCH   1  21
TORSDOF 4
ENDMDL
MODEL 7
REMARK VINA RESULT:      -7.2      4.474      6.585
REMARK  4 active torsions:
REMARK  status: ('A' for Active; 'I' for Inactive)
REMARK    1  A    between atoms: O1_2  and  C2_3 
REMARK    2  A    between atoms: C9_12  and  O2_13 
REMARK    3  A    between atoms: O2_13  and  C10_14 
REMARK    4  A    between atoms: C10_14  and  C11_15 
ROOT
HETATM    1  C2  UNL     1      24.143  -0.097  53.656  1.00  0.00     0.103 A 
HETATM    2  C3  UNL     1      25.291  -0.559  54.268  1.00  0.00     0.072 A 
HETATM    3  C4  UNL     1      26.450   0.187  54.246  1.00  0.00     0.072 A 
HETATM    4  N1  UNL     1      27.519  -0.349  54.872  1.00  0.00    -0.241 NA
HETATM    5  C5  UNL     1      28.683   0.337  54.883  1.00  0.00     0.233 A 
HETATM    6  N2  UNL     1      28.763   1.534  54.277  1.00  0.00    -0.253 NA
HETATM    7  C6  UNL     1      27.726   2.111  53.640  1.00  0.00     0.132 A 
HETATM    8  C7  UNL     1      26.537   1.417  53.626  1.00  0.00     0.013 A 
HETATM    9  C8  UNL     1      25.385   1.874  53.016  1.00  0.00     0.055 A 
HETATM   10  C9  UNL     1      24.206   1.148  53.020  1.00  0.00     0.103 A 
ENDROOT
BRANCH  10  11
HETATM   11  O2  UNL     1      23.104   1.690  52.381  1.00  0.00    -0.344 OA
BRANCH  11  12
HETATM   12  C10 UNL     1      22.953   1.486  51.010  1.00  0.00     0.214 C 
BRANCH  12  13
HETATM   13  C11 UNL     1      23.198   2.755  50.235  1.00  0.00    -0.032 A 
HETATM   14  C12 UNL     1      24.460   3.215  49.917  1.00  0.00     0.012 A 
HETATM   15  C13 UNL     1      24.658   4.375  49.209  1.00  0.00     0.044 A 
HETATM   16  C14 UNL     1      23.568   5.099  48.806  1.00  0.00     0.138 A 
HETATM   17  F1  UNL     1      23.784   6.251  48.102  1.00  0.00    -0.204 F 
HETATM   18  C15 UNL     1      22.279   4.697  49.089  1.00  0.00     0.073 A 
HETATM   19 CL1  UNL     1      20.901   5.651  48.556  1.00  0.00    -0.081 Cl
HETATM   20  C16 UNL     1      22.115   3.530  49.801  1.00  0.00     0.036 A 
ENDBRANCH  12  13
ENDBRANCH  11  12
ENDBRANCH  10  11
BRANCH   1  21
HETATM   21  O1  UNL     1      22.908  -0.724  53.592  1.00  0.00    -0.353 OA
HETATM   22  C1  UNL     1      22.154  -0.910  54.773  1.00  0.00     0.210 C 
ENDBRANCH   1  21
TORSDOF 4
ENDMDL
MODEL 8
REMARK VINA RESULT:      -7.1      4.864      7.053
REMARK  4 active torsions:
REMARK  status: ('A' for Active; 'I' for Inactive)
REMARK    1  A    between atoms: O1_2  and  C2_3 
REMARK    2  A    between atoms: C9_12  and  O2_13 
REMARK    3  A    between atoms: O2_13  and  C10_14 
REMARK    4  A    between atoms: C10_14  and  C11_15 
ROOT
HETATM    1  C2  UNL     1      24.915  -0.141  53.257  1.00  0.00     0.103 A 
HETATM    2  C3  UNL     1      25.988  -1.009  53.272  1.00  0.00     0.072 A 
HETATM    3  C4  UNL     1      27.271  -0.538  53.458  1.00  0.00     0.072 A 
HETATM    4  N1  UNL     1      28.254  -1.464  53.458  1.00  0.00    -0.241 NA
HETATM    5  C5  UNL     1      29.532  -1.061  53.635  1.00  0.00     0.233 A 
HETATM    6  N2  UNL     1      29.807   0.242  53.807  1.00  0.00    -0.253 NA
HETATM    7  C6  UNL     1      28.863   1.203  53.815  1.00  0.00     0.132 A 
HETATM    8  C7  UNL     1      27.559   0.800  53.636  1.00  0.00     0.013 A 
HETATM    9  C8  UNL     1      26.481   1.662  53.619  1.00  0.00     0.055 A 
HETATM   10  C9  UNL     1      25.182   1.220  53.435  1.00  0.00     0.103 A 
ENDROOT
BRANCH  10  11
HETATM   11  O2  UNL     1      24.167   2.163  53.434  1.00  0.00    -0.344 OA
BRANCH  11  12
HETATM   12  C10 UNL     1      24.488   3.497  53.187  1.00  0.00     0.214 C 
BRANCH  12  13
HETATM   13  C11 UNL     1      23.387   4.198  52.434  1.00  0.00    -0.032 A 
HETATM   14  C12 UNL     1      22.128   3.659  52.263  1.00  0.00     0.012 A 
HETATM   15  C13 UNL     1      21.140   4.317  51.572  1.00  0.00     0.044 A 
HETATM   16  C14 UNL     1      21.413   5.546  51.035  1.00  0.00     0.138 A 
HETATM   17  F1  UNL     1      20.417   6.186  50.350  1.00  0.00    -0.204 F 
HETATM   18  C15 UNL     1      22.650   6.142  51.167  1.00  0.00     0.073 A 
HETATM   19 CL1  UNL     1      22.968   7.723  50.464  1.00  0.00    -0.081 Cl
HETATM   20  C16 UNL     1      23.618   5.456  51.866  1.00  0.00     0.036 A 
ENDBRANCH  12  13
ENDBRANCH  11  12
ENDBRANCH  10  11
BRANCH   1  21
HETATM   21  O1  UNL     1      23.576  -0.456  53.083  1.00  0.00    -0.353 OA
HETATM   22  C1  UNL     1      22.809  -0.892  54.188  1.00  0.00     0.210 C 
ENDBRANCH   1  21
TORSDOF 4
ENDMDL
MODEL 9
REMARK VINA RESULT:      -7.0      5.490      7.374
REMARK  4 active torsions:
REMARK  status: ('A' for Active; 'I' for Inactive)
REMARK    1  A    between atoms: O1_2  and  C2_3 
REMARK    2  A    between atoms: C9_12  and  O2_13 
REMARK    3  A    between atoms: O2_13  and  C10_14 
REMARK    4  A    between atoms: C10_14  and  C11_15 
ROOT
HETATM    1  C2  UNL     1      25.053   5.356  49.283  1.00  0.00     0.103 A 
HETATM    2  C3  UNL     1      25.581   6.471  48.664  1.00  0.00     0.072 A 
HETATM    3  C4  UNL     1      26.908   6.507  48.292  1.00  0.00     0.072 A 
HETATM    4  N1  UNL     1      27.331   7.641  47.693  1.00  0.00    -0.241 NA
HETATM    5  C5  UNL     1      28.623   7.734  47.307  1.00  0.00     0.233 A 
HETATM    6  N2  UNL     1      29.463   6.708  47.520  1.00  0.00    -0.253 NA
HETATM    7  C6  UNL     1      29.090   5.557  48.114  1.00  0.00     0.132 A 
HETATM    8  C7  UNL     1      27.776   5.456  48.509  1.00  0.00     0.013 A 
HETATM    9  C8  UNL     1      27.241   4.343  49.129  1.00  0.00     0.055 A 
HETATM   10  C9  UNL     1      25.912   4.277  49.514  1.00  0.00     0.103 A 
ENDROOT
BRANCH  10  11
HETATM   11  O2  UNL     1      25.470   3.118  50.129  1.00  0.00    -0.344 OA
BRANCH  11  12
HETATM   12  C10 UNL     1      26.386   2.338  50.835  1.00  0.00     0.214 C 
BRANCH  12  13
HETATM   13  C11 UNL     1      25.690   1.390  51.778  1.00  0.00    -0.032 A 
HETATM   14  C12 UNL     1      26.328   0.332  52.391  1.00  0.00     0.012 A 
HETATM   15  C13 UNL     1      25.673  -0.519  53.247  1.00  0.00     0.044 A 
HETATM   16  C14 UNL     1      24.343  -0.310  53.499  1.00  0.00     0.138 A 
HETATM   17  F1  UNL     1      23.707  -1.168  54.354  1.00  0.00    -0.204 F 
HETATM   18  C15 UNL     1      23.644   0.728  52.919  1.00  0.00     0.073 A 
HETATM   19 CL1  UNL     1      21.936   0.968  53.265  1.00  0.00    -0.081 Cl
HETATM   20  C16 UNL     1      24.331   1.563  52.066  1.00  0.00     0.036 A 
ENDBRANCH  12  13
ENDBRANCH  11  12
ENDBRANCH  10  11
BRANCH   1  21
HETATM   21  O1  UNL     1      23.748   5.166  49.714  1.00  0.00    -0.353 OA
HETATM   22  C1  UNL     1      23.297   5.812  50.888  1.00  0.00     0.210 C 
ENDBRANCH   1  21
TORSDOF 4
ENDMDL
