MODEL 1
REMARK VINA RESULT:      -8.5      0.000      0.000
REMARK  10 active torsions:
REMARK  status: ('A' for Active; 'I' for Inactive)
REMARK    1  A    between atoms: C2_2  and  C3_3 
REMARK    2  A    between atoms: C3_3  and  C4_4 
REMARK    3  A    between atoms: C4_4  and  C5_5 
REMARK    4  A    between atoms: C5_5  and  C6_6 
REMARK    5  A    between atoms: C6_6  and  C7_7 
REMARK    6  A    between atoms: C7_7  and  N1_8 
REMARK       I    between atoms: N1_8  and  C8_9 
REMARK    7  A    between atoms: C8_9  and  O2_11 
REMARK    8  A    between atoms: O2_11  and  C9_12 
REMARK    9  A    between atoms: C11_14  and  O3_15 
REMARK   10  A    between atoms: C15_20  and  C16_21 
ROOT
HETATM    1  C9  UNL     1      24.390  -0.806  54.755  1.00  0.00     0.086 A 
HETATM    2  C10 UNL     1      23.207  -1.362  55.198  1.00  0.00     0.075 A 
HETATM    3  C11 UNL     1      22.037  -1.114  54.515  1.00  0.00     0.085 A 
HETATM    4  C12 UNL     1      22.044  -0.323  53.407  1.00  0.00     0.081 A 
HETATM    5  C13 UNL     1      20.873  -0.057  52.699  1.00  0.00     0.190 A 
HETATM    6  O4  UNL     1      19.814  -0.594  53.149  1.00  0.00    -0.287 OA
HETATM    7  C14 UNL     1      20.909   0.745  51.586  1.00  0.00     0.094 A 
HETATM    8  C15 UNL     1      22.106   1.273  51.189  1.00  0.00     0.090 A 
HETATM    9  O5  UNL     1      23.206   1.019  51.857  1.00  0.00    -0.309 OA
HETATM   10  C22 UNL     1      23.217   0.251  52.937  1.00  0.00     0.095 A 
HETATM   11  C23 UNL     1      24.392   0.001  53.624  1.00  0.00     0.076 A 
ENDROOT
BRANCH   1  12
HETATM   12  O2  UNL     1      25.647  -0.957  55.327  1.00  0.00    -0.261 OA
BRANCH  12  13
HETATM   13  C8  UNL     1      26.756  -0.560  54.627  1.00  0.00     0.365 C 
HETATM   14  N1  UNL     1      27.487   0.580  54.997  1.00  0.00    -0.337 N 
HETATM   15  H16 UNL     1      27.129   1.108  55.845  1.00  0.00     0.164 HD
HETATM   16  O1  UNL     1      27.087  -1.257  53.645  1.00  0.00    -0.238 OA
BRANCH  14  17
HETATM   17  C7  UNL     1      28.636   1.026  54.305  1.00  0.00     0.125 C 
BRANCH  17  18
HETATM   18  C6  UNL     1      28.507   2.220  53.456  1.00  0.00     0.020 C 
BRANCH  18  19
HETATM   19  C5  UNL     1      27.052   2.383  53.041  1.00  0.00     0.002 C 
BRANCH  19  20
HETATM   20  C4  UNL     1      26.846   2.016  51.593  1.00  0.00     0.000 C 
BRANCH  20  21
HETATM   21  C3  UNL     1      25.939   2.999  50.884  1.00  0.00    -0.000 C 
BRANCH  21  22
HETATM   22  C2  UNL     1      26.357   3.217  49.444  1.00  0.00    -0.005 C 
HETATM   23  C1  UNL     1      26.514   4.714  49.159  1.00  0.00     0.005 C 
ENDBRANCH  21  22
ENDBRANCH  20  21
ENDBRANCH  19  20
ENDBRANCH  18  19
ENDBRANCH  17  18
ENDBRANCH  14  17
ENDBRANCH  12  13
ENDBRANCH   1  12
BRANCH   3  24
HETATM   24  O3  UNL     1      20.860  -1.694  54.992  1.00  0.00    -0.360 OA
HETATM   25  H18 UNL     1      20.700  -1.886  55.956  1.00  0.00     0.217 HD
ENDBRANCH   3  24
BRANCH   8  26
HETATM   26  C16 UNL     1      22.241   2.131  50.023  1.00  0.00    -0.002 A 
HETATM   27  C17 UNL     1      22.084   1.595  48.761  1.00  0.00     0.014 A 
HETATM   28  C18 UNL     1      22.206   2.381  47.630  1.00  0.00     0.001 A 
HETATM   29  C19 UNL     1      22.483   3.709  47.692  1.00  0.00     0.000 A 
HETATM   30  C20 UNL     1      22.643   4.262  48.940  1.00  0.00     0.001 A 
HETATM   31  C21 UNL     1      22.522   3.480  50.064  1.00  0.00     0.014 A 
ENDBRANCH   8  26
TORSDOF 10
ENDMDL
MODEL 2
REMARK VINA RESULT:      -8.2      2.356      5.846
REMARK  10 active torsions:
REMARK  status: ('A' for Active; 'I' for Inactive)
REMARK    1  A    between atoms: C2_2  and  C3_3 
REMARK    2  A    between atoms: C3_3  and  C4_4 
REMARK    3  A    between atoms: C4_4  and  C5_5 
REMARK    4  A    between atoms: C5_5  and  C6_6 
REMARK    5  A    between atoms: C6_6  and  C7_7 
REMARK    6  A    between atoms: C7_7  and  N1_8 
REMARK       I    between atoms: N1_8  and  C8_9 
REMARK    7  A    between atoms: C8_9  and  O2_11 
REMARK    8  A    between atoms: O2_11  and  C9_12 
REMARK    9  A    between atoms: C11_14  and  O3_15 
REMARK   10  A    between atoms: C15_20  and  C16_21 
ROOT
HETATM    1  C9  UNL     1      21.259   1.080  52.203  1.00  0.00     0.086 A 
HETATM    2  C10 UNL     1      20.606   0.256  53.097  1.00  0.00     0.075 A 
HETATM    3  C11 UNL     1      21.334  -0.495  53.992  1.00  0.00     0.085 A 
HETATM    4  C12 UNL     1      22.694  -0.428  53.997  1.00  0.00     0.081 A 
HETATM    5  C13 UNL     1      23.454  -1.178  54.893  1.00  0.00     0.190 A 
HETATM    6  O4  UNL     1      22.804  -1.919  55.694  1.00  0.00    -0.287 OA
HETATM    7  C14 UNL     1      24.824  -1.091  54.876  1.00  0.00     0.094 A 
HETATM    8  C15 UNL     1      25.423  -0.260  53.969  1.00  0.00     0.090 A 
HETATM    9  O5  UNL     1      24.704   0.444  53.128  1.00  0.00    -0.309 OA
HETATM   10  C22 UNL     1      23.380   0.391  53.111  1.00  0.00     0.095 A 
HETATM   11  C23 UNL     1      22.646   1.145  52.211  1.00  0.00     0.076 A 
ENDROOT
BRANCH   1  12
HETATM   12  O2  UNL     1      20.674   1.896  51.242  1.00  0.00    -0.261 OA
BRANCH  12  13
HETATM   13  C8  UNL     1      20.616   3.248  51.455  1.00  0.00     0.365 C 
HETATM   14  N1  UNL     1      21.509   4.128  50.825  1.00  0.00    -0.337 N 
HETATM   15  H16 UNL     1      22.225   3.683  50.179  1.00  0.00     0.164 HD
HETATM   16  O1  UNL     1      19.732   3.662  52.234  1.00  0.00    -0.238 OA
BRANCH  14  17
HETATM   17  C7  UNL     1      21.486   5.529  51.014  1.00  0.00     0.125 C 
BRANCH  17  18
HETATM   18  C6  UNL     1      22.758   6.258  50.912  1.00  0.00     0.020 C 
BRANCH  18  19
HETATM   19  C5  UNL     1      23.910   5.275  51.063  1.00  0.00     0.002 C 
BRANCH  19  20
HETATM   20  C4  UNL     1      24.739   5.197  49.805  1.00  0.00     0.000 C 
BRANCH  20  21
HETATM   21  C3  UNL     1      25.127   3.772  49.472  1.00  0.00    -0.000 C 
BRANCH  21  22
HETATM   22  C2  UNL     1      26.551   3.463  49.887  1.00  0.00    -0.005 C 
HETATM   23  C1  UNL     1      26.563   2.382  50.972  1.00  0.00     0.005 C 
ENDBRANCH  21  22
ENDBRANCH  20  21
ENDBRANCH  19  20
ENDBRANCH  18  19
ENDBRANCH  17  18
ENDBRANCH  14  17
ENDBRANCH  12  13
ENDBRANCH   1  12
BRANCH   3  24
HETATM   24  O3  UNL     1      20.640  -1.317  54.882  1.00  0.00    -0.360 OA
HETATM   25  H18 UNL     1      21.057  -2.096  55.341  1.00  0.00     0.217 HD
ENDBRANCH   3  24
BRANCH   8  26
HETATM   26  C16 UNL     1      26.865  -0.103  53.878  1.00  0.00    -0.002 A 
HETATM   27  C17 UNL     1      27.626  -1.110  53.320  1.00  0.00     0.014 A 
HETATM   28  C18 UNL     1      29.000  -0.996  53.217  1.00  0.00     0.001 A 
HETATM   29  C19 UNL     1      29.674   0.100  53.652  1.00  0.00     0.000 A 
HETATM   30  C20 UNL     1      28.934   1.114  54.212  1.00  0.00     0.001 A 
HETATM   31  C21 UNL     1      27.568   0.999  54.314  1.00  0.00     0.014 A 
ENDBRANCH   8  26
TORSDOF 10
ENDMDL
MODEL 3
REMARK VINA RESULT:      -8.1      2.123      5.201
REMARK  10 active torsions:
REMARK  status: ('A' for Active; 'I' for Inactive)
REMARK    1  A    between atoms: C2_2  and  C3_3 
REMARK    2  A    between atoms: C3_3  and  C4_4 
REMARK    3  A    between atoms: C4_4  and  C5_5 
REMARK    4  A    between atoms: C5_5  and  C6_6 
REMARK    5  A    between atoms: C6_6  and  C7_7 
REMARK    6  A    between atoms: C7_7  and  N1_8 
REMARK       I    between atoms: N1_8  and  C8_9 
REMARK    7  A    between atoms: C8_9  and  O2_11 
REMARK    8  A    between atoms: O2_11  and  C9_12 
REMARK    9  A    between atoms: C11_14  and  O3_15 
REMARK   10  A    between atoms: C15_20  and  C16_21 
ROOT
HETATM    1  C9  UNL     1      26.732   1.949  52.330  1.00  0.00     0.086 A 
HETATM    2  C10 UNL     1      27.312   1.213  53.343  1.00  0.00     0.075 A 
HETATM    3  C11 UNL     1      26.548   0.326  54.068  1.00  0.00     0.085 A 
HETATM    4  C12 UNL     1      25.223   0.175  53.790  1.00  0.00     0.081 A 
HETATM    5  C13 UNL     1      24.429  -0.716  54.509  1.00  0.00     0.190 A 
HETATM    6  O4  UNL     1      25.012  -1.368  55.430  1.00  0.00    -0.287 OA
HETATM    7  C14 UNL     1      23.096  -0.848  54.207  1.00  0.00     0.094 A 
HETATM    8  C15 UNL     1      22.569  -0.095  53.195  1.00  0.00     0.090 A 
HETATM    9  O5  UNL     1      23.321   0.742  52.520  1.00  0.00    -0.309 OA
HETATM   10  C22 UNL     1      24.611   0.900  52.778  1.00  0.00     0.095 A 
HETATM   11  C23 UNL     1      25.381   1.792  52.049  1.00  0.00     0.076 A 
ENDROOT
BRANCH   1  12
HETATM   12  O2  UNL     1      27.360   2.879  51.511  1.00  0.00    -0.261 OA
BRANCH  12  13
HETATM   13  C8  UNL     1      26.719   3.324  50.385  1.00  0.00     0.365 C 
HETATM   14  N1  UNL     1      25.987   4.522  50.385  1.00  0.00    -0.337 N 
HETATM   15  H16 UNL     1      25.963   5.055  51.303  1.00  0.00     0.164 HD
HETATM   16  O1  UNL     1      26.815   2.618  49.360  1.00  0.00    -0.238 OA
BRANCH  14  17
HETATM   17  C7  UNL     1      25.310   5.020  49.248  1.00  0.00     0.125 C 
BRANCH  17  18
HETATM   18  C6  UNL     1      23.840   4.984  49.252  1.00  0.00     0.020 C 
BRANCH  18  19
HETATM   19  C5  UNL     1      23.374   3.579  48.899  1.00  0.00     0.002 C 
BRANCH  19  20
HETATM   20  C4  UNL     1      22.461   3.017  49.960  1.00  0.00     0.000 C 
BRANCH  20  21
HETATM   21  C3  UNL     1      21.049   3.544  49.826  1.00  0.00    -0.000 C 
BRANCH  21  22
HETATM   22  C2  UNL     1      20.620   4.328  51.050  1.00  0.00    -0.005 C 
HETATM   23  C1  UNL     1      21.328   3.790  52.298  1.00  0.00     0.005 C 
ENDBRANCH  21  22
ENDBRANCH  20  21
ENDBRANCH  19  20
ENDBRANCH  18  19
ENDBRANCH  17  18
ENDBRANCH  14  17
ENDBRANCH  12  13
ENDBRANCH   1  12
BRANCH   3  24
HETATM   24  O3  UNL     1      27.168  -0.402  55.085  1.00  0.00    -0.360 OA
HETATM   25  H18 UNL     1      27.498   0.014  55.928  1.00  0.00     0.217 HD
ENDBRANCH   3  24
BRANCH   8  26
HETATM   26  C16 UNL     1      21.171  -0.168  52.804  1.00  0.00    -0.002 A 
HETATM   27  C17 UNL     1      20.779   0.328  51.578  1.00  0.00     0.014 A 
HETATM   28  C18 UNL     1      19.458   0.276  51.173  1.00  0.00     0.001 A 
HETATM   29  C19 UNL     1      18.480  -0.260  51.949  1.00  0.00     0.000 A 
HETATM   30  C20 UNL     1      18.849  -0.759  53.175  1.00  0.00     0.001 A 
HETATM   31  C21 UNL     1      20.163  -0.706  53.576  1.00  0.00     0.014 A 
ENDBRANCH   8  26
TORSDOF 10
ENDMDL
MODEL 4
REMARK VINA RESULT:      -7.9      1.929      4.221
REMARK  10 active torsions:
REMARK  status: ('A' for Active; 'I' for Inactive)
REMARK    1  A    between atoms: C2_2  and  C3_3 
REMARK    2  A    between atoms: C3_3  and  C4_4 
REMARK    3  A    between atoms: C4_4  and  C5_5 
REMARK    4  A    between atoms: C5_5  and  C6_6 
REMARK    5  A    between atoms: C6_6  and  C7_7 
REMARK    6  A    between atoms: C7_7  and  N1_8 
REMARK       I    between atoms: N1_8  and  C8_9 
REMARK    7  A    between atoms: C8_9  and  O2_11 
REMARK    8  A    between atoms: O2_11  and  C9_12 
REMARK    9  A    between atoms: C11_14  and  O3_15 
REMARK   10  A    between atoms: C15_20  and  C16_21 
ROOT
HETATM    1  C9  UNL     1      25.647   0.948  53.523  1.00  0.00     0.086 A 
HETATM    2  C10 UNL     1      25.788   0.041  54.553  1.00  0.00     0.075 A 
HETATM    3  C11 UNL     1      24.714  -0.732  54.936  1.00  0.00     0.085 A 
HETATM    4  C12 UNL     1      23.516  -0.603  54.302  1.00  0.00     0.081 A 
HETATM    5  C13 UNL     1      22.415  -1.373  54.671  1.00  0.00     0.190 A 
HETATM    6  O4  UNL     1      22.598  -2.192  55.623  1.00  0.00    -0.287 OA
HETATM    7  C14 UNL     1      21.218  -1.221  54.015  1.00  0.00     0.094 A 
HETATM    8  C15 UNL     1      21.130  -0.308  53.001  1.00  0.00     0.090 A 
HETATM    9  O5  UNL     1      22.169   0.415  52.657  1.00  0.00    -0.309 OA
HETATM   10  C22 UNL     1      23.343   0.301  53.263  1.00  0.00     0.095 A 
HETATM   11  C23 UNL     1      24.423   1.077  52.879  1.00  0.00     0.076 A 
ENDROOT
BRANCH   1  12
HETATM   12  O2  UNL     1      26.626   1.797  53.020  1.00  0.00    -0.261 OA
BRANCH  12  13
HETATM   13  C8  UNL     1      26.625   2.107  51.685  1.00  0.00     0.365 C 
HETATM   14  N1  UNL     1      26.416   3.421  51.239  1.00  0.00    -0.337 N 
HETATM   15  H16 UNL     1      26.261   4.151  51.993  1.00  0.00     0.164 HD
HETATM   16  O1  UNL     1      26.819   1.168  50.885  1.00  0.00    -0.238 OA
BRANCH  14  17
HETATM   17  C7  UNL     1      26.408   3.786  49.873  1.00  0.00     0.125 C 
BRANCH  17  18
HETATM   18  C6  UNL     1      25.104   3.923  49.206  1.00  0.00     0.020 C 
BRANCH  18  19
HETATM   19  C5  UNL     1      24.034   4.197  50.253  1.00  0.00     0.002 C 
BRANCH  19  20
HETATM   20  C4  UNL     1      22.695   3.645  49.831  1.00  0.00     0.000 C 
BRANCH  20  21
HETATM   21  C3  UNL     1      22.765   2.167  49.517  1.00  0.00    -0.000 C 
BRANCH  21  22
HETATM   22  C2  UNL     1      22.209   1.854  48.143  1.00  0.00    -0.005 C 
HETATM   23  C1  UNL     1      20.951   2.688  47.880  1.00  0.00     0.005 C 
ENDBRANCH  21  22
ENDBRANCH  20  21
ENDBRANCH  19  20
ENDBRANCH  18  19
ENDBRANCH  17  18
ENDBRANCH  14  17
ENDBRANCH  12  13
ENDBRANCH   1  12
BRANCH   3  24
HETATM   24  O3  UNL     1      24.894  -1.639  55.981  1.00  0.00    -0.360 OA
HETATM   25  H18 UNL     1      24.307  -2.432  56.120  1.00  0.00     0.217 HD
ENDBRANCH   3  24
BRANCH   8  26
HETATM   26  C16 UNL     1      19.906  -0.080  52.251  1.00  0.00    -0.002 A 
HETATM   27  C17 UNL     1      19.955   0.626  51.066  1.00  0.00     0.014 A 
HETATM   28  C18 UNL     1      18.812   0.863  50.326  1.00  0.00     0.001 A 
HETATM   29  C19 UNL     1      17.588   0.420  50.715  1.00  0.00     0.000 A 
HETATM   30  C20 UNL     1      17.517  -0.285  51.893  1.00  0.00     0.001 A 
HETATM   31  C21 UNL     1      18.655  -0.519  52.628  1.00  0.00     0.014 A 
ENDBRANCH   8  26
TORSDOF 10
ENDMDL
MODEL 5
REMARK VINA RESULT:      -7.7      2.315      5.970
REMARK  10 active torsions:
REMARK  status: ('A' for Active; 'I' for Inactive)
REMARK    1  A    between atoms: C2_2  and  C3_3 
REMARK    2  A    between atoms: C3_3  and  C4_4 
REMARK    3  A    between atoms: C4_4  and  C5_5 
REMARK    4  A    between atoms: C5_5  and  C6_6 
REMARK    5  A    between atoms: C6_6  and  C7_7 
REMARK    6  A    between atoms: C7_7  and  N1_8 
REMARK       I    between atoms: N1_8  and  C8_9 
REMARK    7  A    between atoms: C8_9  and  O2_11 
REMARK    8  A    between atoms: O2_11  and  C9_12 
REMARK    9  A    between atoms: C11_14  and  O3_15 
REMARK   10  A    between atoms: C15_20  and  C16_21 
ROOT
HETATM    1  C9  UNL     1      25.942   1.248  52.087  1.00  0.00     0.086 A 
HETATM    2  C10 UNL     1      24.574   1.354  51.934  1.00  0.00     0.075 A 
HETATM    3  C11 UNL     1      24.051   2.321  51.105  1.00  0.00     0.085 A 
HETATM    4  C12 UNL     1      24.879   3.171  50.436  1.00  0.00     0.081 A 
HETATM    5  C13 UNL     1      24.374   4.158  49.591  1.00  0.00     0.190 A 
HETATM    6  O4  UNL     1      23.110   4.212  49.486  1.00  0.00    -0.287 OA
HETATM    7  C14 UNL     1      25.232   5.002  48.930  1.00  0.00     0.094 A 
HETATM    8  C15 UNL     1      26.579   4.856  49.116  1.00  0.00     0.090 A 
HETATM    9  O5  UNL     1      27.049   3.925  49.912  1.00  0.00    -0.309 OA
HETATM   10  C22 UNL     1      26.258   3.089  50.569  1.00  0.00     0.095 A 
HETATM   11  C23 UNL     1      26.782   2.117  51.404  1.00  0.00     0.076 A 
ENDROOT
BRANCH   1  12
HETATM   12  O2  UNL     1      26.622   0.333  52.881  1.00  0.00    -0.261 OA
BRANCH  12  13
HETATM   13  C8  UNL     1      26.163   0.067  54.144  1.00  0.00     0.365 C 
HETATM   14  N1  UNL     1      25.123  -0.848  54.368  1.00  0.00    -0.337 N 
HETATM   15  H16 UNL     1      24.720  -1.317  53.505  1.00  0.00     0.164 HD
HETATM   16  O1  UNL     1      26.711   0.676  55.087  1.00  0.00    -0.238 OA
BRANCH  14  17
HETATM   17  C7  UNL     1      24.618  -1.153  55.653  1.00  0.00     0.125 C 
BRANCH  17  18
HETATM   18  C6  UNL     1      23.204  -1.545  55.761  1.00  0.00     0.020 C 
BRANCH  18  19
HETATM   19  C5  UNL     1      22.503  -1.251  54.443  1.00  0.00     0.002 C 
BRANCH  19  20
HETATM   20  C4  UNL     1      21.329  -0.324  54.637  1.00  0.00     0.000 C 
BRANCH  20  21
HETATM   21  C3  UNL     1      20.987   0.428  53.370  1.00  0.00    -0.000 C 
BRANCH  21  22
HETATM   22  C2  UNL     1      19.666  -0.025  52.783  1.00  0.00    -0.005 C 
HETATM   23  C1  UNL     1      19.367   0.747  51.493  1.00  0.00     0.005 C 
ENDBRANCH  21  22
ENDBRANCH  20  21
ENDBRANCH  19  20
ENDBRANCH  18  19
ENDBRANCH  17  18
ENDBRANCH  14  17
ENDBRANCH  12  13
ENDBRANCH   1  12
BRANCH   3  24
HETATM   24  O3  UNL     1      22.664   2.398  50.975  1.00  0.00    -0.360 OA
HETATM   25  H18 UNL     1      22.033   2.010  51.640  1.00  0.00     0.217 HD
ENDBRANCH   3  24
BRANCH   8  26
HETATM   26  C16 UNL     1      27.561   5.702  48.458  1.00  0.00    -0.002 A 
HETATM   27  C17 UNL     1      28.868   5.273  48.353  1.00  0.00     0.014 A 
HETATM   28  C18 UNL     1      29.830   6.050  47.734  1.00  0.00     0.001 A 
HETATM   29  C19 UNL     1      29.548   7.267  47.200  1.00  0.00     0.000 A 
HETATM   30  C20 UNL     1      28.251   7.714  47.295  1.00  0.00     0.001 A 
HETATM   31  C21 UNL     1      27.297   6.939  47.911  1.00  0.00     0.014 A 
ENDBRANCH   8  26
TORSDOF 10
ENDMDL
MODEL 6
REMARK VINA RESULT:      -7.5      3.023      6.282
REMARK  10 active torsions:
REMARK  status: ('A' for Active; 'I' for Inactive)
REMARK    1  A    between atoms: C2_2  and  C3_3 
REMARK    2  A    between atoms: C3_3  and  C4_4 
REMARK    3  A    between atoms: C4_4  and  C5_5 
REMARK    4  A    between atoms: C5_5  and  C6_6 
REMARK    5  A    between atoms: C6_6  and  C7_7 
REMARK    6  A    between atoms: C7_7  and  N1_8 
REMARK       I    between atoms: N1_8  and  C8_9 
REMARK    7  A    between atoms: C8_9  and  O2_11 
REMARK    8  A    between atoms: O2_11  and  C9_12 
REMARK    9  A    between atoms: C11_14  and  O3_15 
REMARK   10  A    between atoms: C15_20  and  C16_21 
ROOT
HETATM    1  C9  UNL     1      23.153   3.814  52.216  1.00  0.00     0.086 A 
HETATM    2  C10 UNL     1      22.025   3.040  52.396  1.00  0.00     0.075 A 
HETATM    3  C11 UNL     1      22.154   1.709  52.727  1.00  0.00     0.085 A 
HETATM    4  C12 UNL     1      23.389   1.157  52.876  1.00  0.00     0.081 A 
HETATM    5  C13 UNL     1      23.547  -0.187  53.211  1.00  0.00     0.190 A 
HETATM    6  O4  UNL     1      22.477  -0.854  53.365  1.00  0.00    -0.287 OA
HETATM    7  C14 UNL     1      24.804  -0.718  53.355  1.00  0.00     0.094 A 
HETATM    8  C15 UNL     1      25.890   0.091  53.165  1.00  0.00     0.090 A 
HETATM    9  O5  UNL     1      25.738   1.356  52.851  1.00  0.00    -0.309 OA
HETATM   10  C22 UNL     1      24.542   1.909  52.703  1.00  0.00     0.095 A 
HETATM   11  C23 UNL     1      24.411   3.246  52.370  1.00  0.00     0.076 A 
ENDROOT
BRANCH   1  12
HETATM   12  O2  UNL     1      23.193   5.162  51.883  1.00  0.00    -0.261 OA
BRANCH  12  13
HETATM   13  C8  UNL     1      23.758   5.543  50.694  1.00  0.00     0.365 C 
HETATM   14  N1  UNL     1      24.993   6.209  50.650  1.00  0.00    -0.337 N 
HETATM   15  H16 UNL     1      25.456   6.396  51.587  1.00  0.00     0.164 HD
HETATM   16  O1  UNL     1      23.126   5.271  49.652  1.00  0.00    -0.238 OA
BRANCH  14  17
HETATM   17  C7  UNL     1      25.613   6.619  49.448  1.00  0.00     0.125 C 
BRANCH  17  18
HETATM   18  C6  UNL     1      26.593   5.710  48.834  1.00  0.00     0.020 C 
BRANCH  18  19
HETATM   19  C5  UNL     1      27.839   6.500  48.458  1.00  0.00     0.002 C 
BRANCH  19  20
HETATM   20  C4  UNL     1      29.017   5.590  48.218  1.00  0.00     0.000 C 
BRANCH  20  21
HETATM   21  C3  UNL     1      30.147   6.305  47.509  1.00  0.00    -0.000 C 
BRANCH  21  22
HETATM   22  C2  UNL     1      31.073   7.005  48.482  1.00  0.00    -0.005 C 
HETATM   23  C1  UNL     1      31.609   6.007  49.514  1.00  0.00     0.005 C 
ENDBRANCH  21  22
ENDBRANCH  20  21
ENDBRANCH  19  20
ENDBRANCH  18  19
ENDBRANCH  17  18
ENDBRANCH  14  17
ENDBRANCH  12  13
ENDBRANCH   1  12
BRANCH   3  24
HETATM   24  O3  UNL     1      20.991   0.957  52.901  1.00  0.00    -0.360 OA
HETATM   25  H18 UNL     1      20.516   0.508  52.150  1.00  0.00     0.217 HD
ENDBRANCH   3  24
BRANCH   8  26
HETATM   26  C16 UNL     1      27.258  -0.382  53.297  1.00  0.00    -0.002 A 
HETATM   27  C17 UNL     1      27.554  -1.700  53.012  1.00  0.00     0.014 A 
HETATM   28  C18 UNL     1      28.843  -2.186  53.126  1.00  0.00     0.001 A 
HETATM   29  C19 UNL     1      29.882  -1.405  53.521  1.00  0.00     0.000 A 
HETATM   30  C20 UNL     1      29.610  -0.089  53.810  1.00  0.00     0.001 A 
HETATM   31  C21 UNL     1      28.327   0.392  53.696  1.00  0.00     0.014 A 
ENDBRANCH   8  26
TORSDOF 10
ENDMDL
MODEL 7
REMARK VINA RESULT:      -7.5      4.795      9.017
REMARK  10 active torsions:
REMARK  status: ('A' for Active; 'I' for Inactive)
REMARK    1  A    between atoms: C2_2  and  C3_3 
REMARK    2  A    between atoms: C3_3  and  C4_4 
REMARK    3  A    between atoms: C4_4  and  C5_5 
REMARK    4  A    between atoms: C5_5  and  C6_6 
REMARK    5  A    between atoms: C6_6  and  C7_7 
REMARK    6  A    between atoms: C7_7  and  N1_8 
REMARK       I    between atoms: N1_8  and  C8_9 
REMARK    7  A    between atoms: C8_9  and  O2_11 
REMARK    8  A    between atoms: O2_11  and  C9_12 
REMARK    9  A    between atoms: C11_14  and  O3_15 
REMARK   10  A    between atoms: C15_20  and  C16_21 
ROOT
HETATM    1  C9  UNL     1      25.948   4.908  49.172  1.00  0.00     0.086 A 
HETATM    2  C10 UNL     1      25.699   6.251  48.975  1.00  0.00     0.075 A 
HETATM    3  C11 UNL     1      26.706   7.075  48.522  1.00  0.00     0.085 A 
HETATM    4  C12 UNL     1      27.944   6.568  48.268  1.00  0.00     0.081 A 
HETATM    5  C13 UNL     1      28.979   7.380  47.809  1.00  0.00     0.190 A 
HETATM    6  O4  UNL     1      28.697   8.607  47.645  1.00  0.00    -0.287 OA
HETATM    7  C14 UNL     1      30.218   6.843  47.562  1.00  0.00     0.094 A 
HETATM    8  C15 UNL     1      30.414   5.506  47.773  1.00  0.00     0.090 A 
HETATM    9  O5  UNL     1      29.436   4.745  48.205  1.00  0.00    -0.309 OA
HETATM   10  C22 UNL     1      28.225   5.222  48.456  1.00  0.00     0.095 A 
HETATM   11  C23 UNL     1      27.213   4.396  48.912  1.00  0.00     0.076 A 
ENDROOT
BRANCH   1  12
HETATM   12  O2  UNL     1      25.047   3.951  49.622  1.00  0.00    -0.261 OA
BRANCH  12  13
HETATM   13  C8  UNL     1      24.925   3.724  50.967  1.00  0.00     0.365 C 
HETATM   14  N1  UNL     1      25.722   2.774  51.625  1.00  0.00    -0.337 N 
HETATM   15  H16 UNL     1      26.417   2.249  51.019  1.00  0.00     0.164 HD
HETATM   16  O1  UNL     1      24.074   4.400  51.582  1.00  0.00    -0.238 OA
BRANCH  14  17
HETATM   17  C7  UNL     1      25.631   2.507  53.010  1.00  0.00     0.125 C 
BRANCH  17  18
HETATM   18  C6  UNL     1      25.015   1.239  53.427  1.00  0.00     0.020 C 
BRANCH  18  19
HETATM   19  C5  UNL     1      25.608   0.102  52.608  1.00  0.00     0.002 C 
BRANCH  19  20
HETATM   20  C4  UNL     1      26.454  -0.810  53.460  1.00  0.00     0.000 C 
BRANCH  20  21
HETATM   21  C3  UNL     1      27.903  -0.811  53.022  1.00  0.00    -0.000 C 
BRANCH  21  22
HETATM   22  C2  UNL     1      28.834  -0.412  54.149  1.00  0.00    -0.005 C 
HETATM   23  C1  UNL     1      29.051   1.105  54.143  1.00  0.00     0.005 C 
ENDBRANCH  21  22
ENDBRANCH  20  21
ENDBRANCH  19  20
ENDBRANCH  18  19
ENDBRANCH  17  18
ENDBRANCH  14  17
ENDBRANCH  12  13
ENDBRANCH   1  12
BRANCH   3  24
HETATM   24  O3  UNL     1      26.417   8.427  48.334  1.00  0.00    -0.360 OA
HETATM   25  H18 UNL     1      25.540   8.834  48.571  1.00  0.00     0.217 HD
ENDBRANCH   3  24
BRANCH   8  26
HETATM   26  C16 UNL     1      31.689   4.850  47.539  1.00  0.00    -0.002 A 
HETATM   27  C17 UNL     1      31.721   3.639  46.877  1.00  0.00     0.014 A 
HETATM   28  C18 UNL     1      32.916   2.986  46.637  1.00  0.00     0.001 A 
HETATM   29  C19 UNL     1      34.114   3.490  47.032  1.00  0.00     0.000 A 
HETATM   30  C20 UNL     1      34.104   4.696  47.693  1.00  0.00     0.001 A 
HETATM   31  C21 UNL     1      32.915   5.343  47.931  1.00  0.00     0.014 A 
ENDBRANCH   8  26
TORSDOF 10
ENDMDL
MODEL 8
REMARK VINA RESULT:      -7.4      3.106      7.693
REMARK  10 active torsions:
REMARK  status: ('A' for Active; 'I' for Inactive)
REMARK    1  A    between atoms: C2_2  and  C3_3 
REMARK    2  A    between atoms: C3_3  and  C4_4 
REMARK    3  A    between atoms: C4_4  and  C5_5 
REMARK    4  A    between atoms: C5_5  and  C6_6 
REMARK    5  A    between atoms: C6_6  and  C7_7 
REMARK    6  A    between atoms: C7_7  and  N1_8 
REMARK       I    between atoms: N1_8  and  C8_9 
REMARK    7  A    between atoms: C8_9  and  O2_11 
REMARK    8  A    between atoms: O2_11  and  C9_12 
REMARK    9  A    between atoms: C11_14  and  O3_15 
REMARK   10  A    between atoms: C15_20  and  C16_21 
ROOT
HETATM    1  C9  UNL     1      22.017   4.576  51.254  1.00  0.00     0.086 A 
HETATM    2  C10 UNL     1      22.492   5.350  50.215  1.00  0.00     0.075 A 
HETATM    3  C11 UNL     1      23.778   5.167  49.758  1.00  0.00     0.085 A 
HETATM    4  C12 UNL     1      24.581   4.226  50.327  1.00  0.00     0.081 A 
HETATM    5  C13 UNL     1      25.886   4.021  49.883  1.00  0.00     0.190 A 
HETATM    6  O4  UNL     1      26.273   4.760  48.925  1.00  0.00    -0.287 OA
HETATM    7  C14 UNL     1      26.673   3.066  50.476  1.00  0.00     0.094 A 
HETATM    8  C15 UNL     1      26.155   2.325  51.502  1.00  0.00     0.090 A 
HETATM    9  O5  UNL     1      24.926   2.521  51.917  1.00  0.00    -0.309 OA
HETATM   10  C22 UNL     1      24.132   3.432  51.373  1.00  0.00     0.095 A 
HETATM   11  C23 UNL     1      22.839   3.618  51.832  1.00  0.00     0.076 A 
ENDROOT
BRANCH   1  12
HETATM   12  O2  UNL     1      20.753   4.637  51.827  1.00  0.00    -0.261 OA
BRANCH  12  13
HETATM   13  C8  UNL     1      19.758   3.827  51.346  1.00  0.00     0.365 C 
HETATM   14  N1  UNL     1      19.417   2.625  51.987  1.00  0.00    -0.337 N 
HETATM   15  H16 UNL     1      19.974   2.388  52.859  1.00  0.00     0.164 HD
HETATM   16  O1  UNL     1      19.168   4.205  50.313  1.00  0.00    -0.238 OA
BRANCH  14  17
HETATM   17  C7  UNL     1      18.399   1.760  51.527  1.00  0.00     0.125 C 
BRANCH  17  18
HETATM   18  C6  UNL     1      18.681   0.316  51.504  1.00  0.00     0.020 C 
BRANCH  18  19
HETATM   19  C5  UNL     1      20.047   0.066  52.126  1.00  0.00     0.002 C 
BRANCH  19  20
HETATM   20  C4  UNL     1      19.925  -0.540  53.502  1.00  0.00     0.000 C 
BRANCH  20  21
HETATM   21  C3  UNL     1      21.119  -0.213  54.372  1.00  0.00    -0.000 C 
BRANCH  21  22
HETATM   22  C2  UNL     1      22.302   0.261  53.553  1.00  0.00    -0.005 C 
HETATM   23  C1  UNL     1      23.549  -0.558  53.903  1.00  0.00     0.005 C 
ENDBRANCH  21  22
ENDBRANCH  20  21
ENDBRANCH  19  20
ENDBRANCH  18  19
ENDBRANCH  17  18
ENDBRANCH  14  17
ENDBRANCH  12  13
ENDBRANCH   1  12
BRANCH   3  24
HETATM   24  O3  UNL     1      24.225   5.968  48.705  1.00  0.00    -0.360 OA
HETATM   25  H18 UNL     1      25.189   6.137  48.522  1.00  0.00     0.217 HD
ENDBRANCH   3  24
BRANCH   8  26
HETATM   26  C16 UNL     1      26.913   1.292  52.189  1.00  0.00    -0.002 A 
HETATM   27  C17 UNL     1      27.969   1.649  53.003  1.00  0.00     0.014 A 
HETATM   28  C18 UNL     1      28.713   0.694  53.671  1.00  0.00     0.001 A 
HETATM   29  C19 UNL     1      28.452  -0.635  53.568  1.00  0.00     0.000 A 
HETATM   30  C20 UNL     1      27.404  -1.012  52.761  1.00  0.00     0.001 A 
HETATM   31  C21 UNL     1      26.666  -0.061  52.097  1.00  0.00     0.014 A 
ENDBRANCH   8  26
TORSDOF 10
ENDMDL
MODEL 9
REMARK VINA RESULT:      -7.2      2.730      6.188
REMARK  10 active torsions:
REMARK  status: ('A' for Active; 'I' for Inactive)
REMARK    1  A    between atoms: C2_2  and  C3_3 
REMARK    2  A    between atoms: C3_3  and  C4_4 
REMARK    3  A    between atoms: C4_4  and  C5_5 
REMARK    4  A    between atoms: C5_5  and  C6_6 
REMARK    5  A    between atoms: C6_6  and  C7_7 
REMARK    6  A    between atoms: C7_7  and  N1_8 
REMARK       I    between atoms: N1_8  and  C8_9 
REMARK    7  A    between atoms: C8_9  and  O2_11 
REMARK    8  A    between atoms: O2_11  and  C9_12 
REMARK    9  A    between atoms: C11_14  and  O3_15 
REMARK   10  A    between atoms: C15_20  and  C16_21 
ROOT
HETATM    1  C9  UNL     1      21.589   1.271  51.857  1.00  0.00     0.086 A 
HETATM    2  C10 UNL     1      20.805   0.627  52.793  1.00  0.00     0.075 A 
HETATM    3  C11 UNL     1      21.398  -0.132  53.777  1.00  0.00     0.085 A 
HETATM    4  C12 UNL     1      22.754  -0.249  53.829  1.00  0.00     0.081 A 
HETATM    5  C13 UNL     1      23.377  -1.011  54.815  1.00  0.00     0.190 A 
HETATM    6  O4  UNL     1      22.610  -1.582  55.651  1.00  0.00    -0.287 OA
HETATM    7  C14 UNL     1      24.746  -1.112  54.843  1.00  0.00     0.094 A 
HETATM    8  C15 UNL     1      25.478  -0.456  53.893  1.00  0.00     0.090 A 
HETATM    9  O5  UNL     1      24.887   0.261  52.968  1.00  0.00    -0.309 OA
HETATM   10  C22 UNL     1      23.569   0.386  52.903  1.00  0.00     0.095 A 
HETATM   11  C23 UNL     1      22.971   1.148  51.914  1.00  0.00     0.076 A 
ENDROOT
BRANCH   1  12
HETATM   12  O2  UNL     1      21.149   2.068  50.808  1.00  0.00    -0.261 OA
BRANCH  12  13
HETATM   13  C8  UNL     1      21.226   3.431  50.923  1.00  0.00     0.365 C 
HETATM   14  N1  UNL     1      22.462   4.090  51.013  1.00  0.00    -0.337 N 
HETATM   15  H16 UNL     1      23.324   3.470  50.987  1.00  0.00     0.164 HD
HETATM   16  O1  UNL     1      20.148   4.061  50.943  1.00  0.00    -0.238 OA
BRANCH  14  17
HETATM   17  C7  UNL     1      22.590   5.493  51.132  1.00  0.00     0.125 C 
BRANCH  17  18
HETATM   18  C6  UNL     1      23.873   6.029  51.609  1.00  0.00     0.020 C 
BRANCH  18  19
HETATM   19  C5  UNL     1      24.200   7.300  50.840  1.00  0.00     0.002 C 
BRANCH  19  20
HETATM   20  C4  UNL     1      25.608   7.273  50.300  1.00  0.00     0.000 C 
BRANCH  20  21
HETATM   21  C3  UNL     1      25.998   8.592  49.669  1.00  0.00    -0.000 C 
BRANCH  21  22
HETATM   22  C2  UNL     1      27.186   9.223  50.365  1.00  0.00    -0.005 C 
HETATM   23  C1  UNL     1      28.399   9.242  49.428  1.00  0.00     0.005 C 
ENDBRANCH  21  22
ENDBRANCH  20  21
ENDBRANCH  19  20
ENDBRANCH  18  19
ENDBRANCH  17  18
ENDBRANCH  14  17
ENDBRANCH  12  13
ENDBRANCH   1  12
BRANCH   3  24
HETATM   24  O3  UNL     1      20.573  -0.768  54.706  1.00  0.00    -0.360 OA
HETATM   25  H18 UNL     1      19.766  -0.339  55.100  1.00  0.00     0.217 HD
ENDBRANCH   3  24
BRANCH   8  26
HETATM   26  C16 UNL     1      26.930  -0.504  53.845  1.00  0.00    -0.002 A 
HETATM   27  C17 UNL     1      27.667   0.407  54.573  1.00  0.00     0.014 A 
HETATM   28  C18 UNL     1      29.049   0.392  54.551  1.00  0.00     0.001 A 
HETATM   29  C19 UNL     1      29.756  -0.510  53.821  1.00  0.00     0.000 A 
HETATM   30  C20 UNL     1      29.041  -1.427  53.088  1.00  0.00     0.001 A 
HETATM   31  C21 UNL     1      27.666  -1.410  53.111  1.00  0.00     0.014 A 
ENDBRANCH   8  26
TORSDOF 10
ENDMDL
