MODEL 1
REMARK VINA RESULT:      -9.1      0.000      0.000
REMARK  4 active torsions:
REMARK  status: ('A' for Active; 'I' for Inactive)
REMARK    1  A    between atoms: C7_7  and  N1_8 
REMARK    2  A    between atoms: N1_8  and  C8_9 
REMARK    3  A    between atoms: C12_15  and  C13_16 
REMARK    4  A    between atoms: C14_17  and  O1_18 
ROOT
HETATM    1  C1  UNL     1      26.756   4.077  49.343  1.00  0.00     0.018 C 
HETATM    2  C2  UNL     1      26.412   3.245  50.153  1.00  0.00    -0.078 C 
HETATM    3  C3  UNL     1      25.991   2.243  51.119  1.00  0.00     0.019 A 
HETATM    4  C4  UNL     1      26.889   1.251  51.469  1.00  0.00     0.021 A 
HETATM    5  C5  UNL     1      26.505   0.291  52.383  1.00  0.00     0.004 A 
HETATM    6  C6  UNL     1      25.259   0.277  52.967  1.00  0.00     0.029 A 
HETATM    7  C7  UNL     1      24.373   1.270  52.610  1.00  0.00     0.035 A 
HETATM    8  C23 UNL     1      24.731   2.254  51.688  1.00  0.00     0.050 A 
ENDROOT
BRANCH   7   9
HETATM    9  N1  UNL     1      23.018   1.487  53.063  1.00  0.00    -0.340 N 
HETATM   10  H5  UNL     1      22.570   2.456  53.066  1.00  0.00     0.167 HD
BRANCH   9  11
HETATM   11  C8  UNL     1      22.200   0.403  53.532  1.00  0.00     0.137 A 
HETATM   12  N2  UNL     1      22.807  -0.469  54.243  1.00  0.00    -0.224 NA
HETATM   13  C9  UNL     1      22.127  -1.589  54.774  1.00  0.00     0.229 A 
HETATM   14  N3  UNL     1      20.880  -1.692  54.521  1.00  0.00    -0.278 NA
HETATM   15  C10 UNL     1      20.065  -0.806  53.762  1.00  0.00     0.192 A 
HETATM   16  C11 UNL     1      20.780   0.338  53.142  1.00  0.00     0.010 A 
HETATM   17  C12 UNL     1      20.267   1.234  52.335  1.00  0.00     0.052 C 
BRANCH  17  18
HETATM   18  C13 UNL     1      18.942   1.444  51.768  1.00  0.00     0.100 C 
HETATM   19  C14 UNL     1      18.608   2.754  51.624  1.00  0.00     0.105 C 
HETATM   20  C16 UNL     1      17.368   3.373  51.083  1.00  0.00     0.268 C 
HETATM   21  O2  UNL     1      16.800   4.147  52.099  1.00  0.00    -0.272 OA
HETATM   22  N4  UNL     1      15.769   3.513  52.684  1.00  0.00    -0.246 N 
HETATM   23  C17 UNL     1      14.863   2.448  52.533  1.00  0.00     0.160 A 
HETATM   24  H15 UNL     1      15.129   3.463  53.500  1.00  0.00     0.196 HD
HETATM   25  O3  UNL     1      15.024   1.884  51.450  1.00  0.00    -0.331 OA
HETATM   26  C18 UNL     1      13.968   1.326  52.282  1.00  0.00     0.233 A 
HETATM   27  C19 UNL     1      13.970   0.630  51.003  1.00  0.00     0.033 C 
HETATM   28  C20 UNL     1      15.127   0.019  50.359  1.00  0.00     0.004 C 
HETATM   29  C21 UNL     1      16.065  -0.864  51.054  1.00  0.00     0.027 C 
HETATM   30  C22 UNL     1      17.075  -0.237  51.995  1.00  0.00     0.176 C 
HETATM   31  O4  UNL     1      17.941   0.627  51.342  1.00  0.00    -0.349 OA
BRANCH  19  32
HETATM   32  O1  UNL     1      19.430   3.834  51.977  1.00  0.00    -0.355 OA
HETATM   33  C15 UNL     1      20.125   4.497  50.936  1.00  0.00     0.209 C 
ENDBRANCH  19  32
ENDBRANCH  17  18
ENDBRANCH   9  11
ENDBRANCH   7   9
TORSDOF 4
ENDMDL
MODEL 2
REMARK VINA RESULT:      -9.0      1.778      2.331
REMARK  4 active torsions:
REMARK  status: ('A' for Active; 'I' for Inactive)
REMARK    1  A    between atoms: C7_7  and  N1_8 
REMARK    2  A    between atoms: N1_8  and  C8_9 
REMARK    3  A    between atoms: C12_15  and  C13_16 
REMARK    4  A    between atoms: C14_17  and  O1_18 
ROOT
HETATM    1  C1  UNL     1      26.783   3.909  49.394  1.00  0.00     0.018 C 
HETATM    2  C2  UNL     1      26.785   3.167  50.351  1.00  0.00    -0.078 C 
HETATM    3  C3  UNL     1      26.790   2.266  51.494  1.00  0.00     0.019 A 
HETATM    4  C4  UNL     1      27.720   2.482  52.494  1.00  0.00     0.021 A 
HETATM    5  C5  UNL     1      27.740   1.637  53.584  1.00  0.00     0.004 A 
HETATM    6  C6  UNL     1      26.869   0.581  53.722  1.00  0.00     0.029 A 
HETATM    7  C7  UNL     1      25.946   0.377  52.719  1.00  0.00     0.035 A 
HETATM    8  C23 UNL     1      25.901   1.214  51.604  1.00  0.00     0.050 A 
ENDROOT
BRANCH   7   9
HETATM    9  N1  UNL     1      24.930  -0.645  52.611  1.00  0.00    -0.340 N 
HETATM   10  H5  UNL     1      24.937  -1.371  51.828  1.00  0.00     0.167 HD
BRANCH   9  11
HETATM   11  C8  UNL     1      23.855  -0.739  53.561  1.00  0.00     0.137 A 
HETATM   12  N2  UNL     1      24.164  -1.274  54.681  1.00  0.00    -0.224 NA
HETATM   13  C9  UNL     1      23.208  -1.429  55.710  1.00  0.00     0.229 A 
HETATM   14  N3  UNL     1      22.024  -1.009  55.481  1.00  0.00    -0.278 NA
HETATM   15  C10 UNL     1      21.531  -0.386  54.300  1.00  0.00     0.192 A 
HETATM   16  C11 UNL     1      22.506  -0.277  53.186  1.00  0.00     0.010 A 
HETATM   17  C12 UNL     1      22.266   0.176  51.981  1.00  0.00     0.052 C 
BRANCH  17  18
HETATM   18  C13 UNL     1      21.079   0.688  51.311  1.00  0.00     0.100 C 
HETATM   19  C14 UNL     1      21.252   1.915  50.749  1.00  0.00     0.105 C 
HETATM   20  C16 UNL     1      20.298   2.760  49.981  1.00  0.00     0.268 C 
HETATM   21  O2  UNL     1      20.139   3.962  50.676  1.00  0.00    -0.272 OA
HETATM   22  N4  UNL     1      18.991   3.978  51.376  1.00  0.00    -0.246 N 
HETATM   23  C17 UNL     1      17.743   3.345  51.517  1.00  0.00     0.160 A 
HETATM   24  H15 UNL     1      18.441   4.427  52.133  1.00  0.00     0.196 HD
HETATM   25  O3  UNL     1      17.600   2.461  50.674  1.00  0.00    -0.331 OA
HETATM   26  C18 UNL     1      16.477   2.628  51.583  1.00  0.00     0.233 A 
HETATM   27  C19 UNL     1      16.123   1.627  50.586  1.00  0.00     0.033 C 
HETATM   28  C20 UNL     1      16.916   0.458  50.223  1.00  0.00     0.004 C 
HETATM   29  C21 UNL     1      17.502  -0.456  51.204  1.00  0.00     0.027 C 
HETATM   30  C22 UNL     1      18.740  -0.002  51.954  1.00  0.00     0.176 C 
HETATM   31  O4  UNL     1      19.817   0.224  51.109  1.00  0.00    -0.349 OA
BRANCH  19  32
HETATM   32  O1  UNL     1      22.442   2.655  50.790  1.00  0.00    -0.355 OA
HETATM   33  C15 UNL     1      23.147   2.832  49.575  1.00  0.00     0.209 C 
ENDBRANCH  19  32
ENDBRANCH  17  18
ENDBRANCH   9  11
ENDBRANCH   7   9
TORSDOF 4
ENDMDL
MODEL 3
REMARK VINA RESULT:      -9.0      3.481      7.244
REMARK  4 active torsions:
REMARK  status: ('A' for Active; 'I' for Inactive)
REMARK    1  A    between atoms: C7_7  and  N1_8 
REMARK    2  A    between atoms: N1_8  and  C8_9 
REMARK    3  A    between atoms: C12_15  and  C13_16 
REMARK    4  A    between atoms: C14_17  and  O1_18 
ROOT
HETATM    1  C1  UNL     1      25.880  -0.521  53.488  1.00  0.00     0.018 C 
HETATM    2  C2  UNL     1      24.669  -0.506  53.494  1.00  0.00    -0.078 C 
HETATM    3  C3  UNL     1      23.214  -0.496  53.493  1.00  0.00     0.019 A 
HETATM    4  C4  UNL     1      22.554  -0.992  54.603  1.00  0.00     0.021 A 
HETATM    5  C5  UNL     1      21.175  -0.990  54.617  1.00  0.00     0.004 A 
HETATM    6  C6  UNL     1      20.420  -0.514  53.570  1.00  0.00     0.029 A 
HETATM    7  C7  UNL     1      21.090  -0.021  52.471  1.00  0.00     0.035 A 
HETATM    8  C23 UNL     1      22.484  -0.010  52.425  1.00  0.00     0.050 A 
ENDROOT
BRANCH   7   9
HETATM    9  N1  UNL     1      20.551   0.531  51.248  1.00  0.00    -0.340 N 
HETATM   10  H5  UNL     1      20.700   0.062  50.301  1.00  0.00     0.167 HD
BRANCH   9  11
HETATM   11  C8  UNL     1      19.778   1.742  51.248  1.00  0.00     0.137 A 
HETATM   12  N2  UNL     1      18.548   1.604  51.569  1.00  0.00    -0.224 NA
HETATM   13  C9  UNL     1      17.670   2.710  51.614  1.00  0.00     0.229 A 
HETATM   14  N3  UNL     1      18.154   3.856  51.326  1.00  0.00    -0.278 NA
HETATM   15  C10 UNL     1      19.493   4.174  50.962  1.00  0.00     0.192 A 
HETATM   16  C11 UNL     1      20.411   3.012  50.847  1.00  0.00     0.010 A 
HETATM   17  C12 UNL     1      21.658   3.040  50.446  1.00  0.00     0.052 C 
BRANCH  17  18
HETATM   18  C13 UNL     1      22.550   4.096  49.991  1.00  0.00     0.100 C 
HETATM   19  C14 UNL     1      23.466   4.481  50.921  1.00  0.00     0.105 C 
HETATM   20  C16 UNL     1      24.541   5.506  50.840  1.00  0.00     0.268 C 
HETATM   21  O2  UNL     1      24.291   6.463  51.828  1.00  0.00    -0.272 OA
HETATM   22  N4  UNL     1      23.729   7.570  51.310  1.00  0.00    -0.246 N 
HETATM   23  C17 UNL     1      23.488   8.260  50.109  1.00  0.00     0.160 A 
HETATM   24  H15 UNL     1      23.205   8.447  51.495  1.00  0.00     0.196 HD
HETATM   25  O3  UNL     1      24.005   7.679  49.156  1.00  0.00    -0.331 OA
HETATM   26  C18 UNL     1      23.292   8.901  48.815  1.00  0.00     0.233 A 
HETATM   27  C19 UNL     1      23.934   8.387  47.613  1.00  0.00     0.033 C 
HETATM   28  C20 UNL     1      23.831   7.025  47.100  1.00  0.00     0.004 C 
HETATM   29  C21 UNL     1      22.562   6.311  46.956  1.00  0.00     0.027 C 
HETATM   30  C22 UNL     1      21.905   5.757  48.206  1.00  0.00     0.176 C 
HETATM   31  O4  UNL     1      22.689   4.803  48.837  1.00  0.00    -0.349 OA
BRANCH  19  32
HETATM   32  O1  UNL     1      23.574   3.940  52.210  1.00  0.00    -0.355 OA
HETATM   33  C15 UNL     1      24.632   3.032  52.454  1.00  0.00     0.209 C 
ENDBRANCH  19  32
ENDBRANCH  17  18
ENDBRANCH   9  11
ENDBRANCH   7   9
TORSDOF 4
ENDMDL
MODEL 4
REMARK VINA RESULT:      -8.9      3.708      6.983
REMARK  4 active torsions:
REMARK  status: ('A' for Active; 'I' for Inactive)
REMARK    1  A    between atoms: C7_7  and  N1_8 
REMARK    2  A    between atoms: N1_8  and  C8_9 
REMARK    3  A    between atoms: C12_15  and  C13_16 
REMARK    4  A    between atoms: C14_17  and  O1_18 
ROOT
HETATM    1  C1  UNL     1      32.147   4.327  47.370  1.00  0.00     0.018 C 
HETATM    2  C2  UNL     1      31.143   4.978  47.558  1.00  0.00    -0.078 C 
HETATM    3  C3  UNL     1      29.938   5.758  47.795  1.00  0.00     0.019 A 
HETATM    4  C4  UNL     1      29.982   7.120  47.561  1.00  0.00     0.021 A 
HETATM    5  C5  UNL     1      28.849   7.875  47.782  1.00  0.00     0.004 A 
HETATM    6  C6  UNL     1      27.667   7.329  48.228  1.00  0.00     0.029 A 
HETATM    7  C7  UNL     1      27.636   5.970  48.457  1.00  0.00     0.035 A 
HETATM    8  C23 UNL     1      28.766   5.180  48.244  1.00  0.00     0.050 A 
ENDROOT
BRANCH   7   9
HETATM    9  N1  UNL     1      26.540   5.151  48.923  1.00  0.00    -0.340 N 
HETATM   10  H5  UNL     1      26.435   4.128  48.634  1.00  0.00     0.167 HD
BRANCH   9  11
HETATM   11  C8  UNL     1      25.535   5.672  49.807  1.00  0.00     0.137 A 
HETATM   12  N2  UNL     1      25.589   6.933  50.009  1.00  0.00    -0.224 NA
HETATM   13  C9  UNL     1      24.661   7.584  50.853  1.00  0.00     0.229 A 
HETATM   14  N3  UNL     1      23.761   6.864  51.402  1.00  0.00    -0.278 NA
HETATM   15  C10 UNL     1      23.563   5.460  51.269  1.00  0.00     0.192 A 
HETATM   16  C11 UNL     1      24.570   4.754  50.439  1.00  0.00     0.010 A 
HETATM   17  C12 UNL     1      24.649   3.461  50.240  1.00  0.00     0.052 C 
BRANCH  17  18
HETATM   18  C13 UNL     1      23.879   2.317  50.707  1.00  0.00     0.100 C 
HETATM   19  C14 UNL     1      22.734   2.102  50.005  1.00  0.00     0.105 C 
HETATM   20  C16 UNL     1      21.697   1.048  50.163  1.00  0.00     0.268 C 
HETATM   21  O2  UNL     1      20.483   1.683  50.442  1.00  0.00    -0.272 OA
HETATM   22  N4  UNL     1      20.188   1.628  51.753  1.00  0.00    -0.246 N 
HETATM   23  C17 UNL     1      20.508   0.977  52.958  1.00  0.00     0.160 A 
HETATM   24  H15 UNL     1      19.614   2.004  52.532  1.00  0.00     0.196 HD
HETATM   25  O3  UNL     1      21.343   0.092  52.772  1.00  0.00    -0.331 OA
HETATM   26  C18 UNL     1      20.905   0.242  54.152  1.00  0.00     0.233 A 
HETATM   27  C19 UNL     1      21.805  -0.900  54.071  1.00  0.00     0.033 C 
HETATM   28  C20 UNL     1      23.132  -0.907  53.467  1.00  0.00     0.004 C 
HETATM   29  C21 UNL     1      24.147   0.112  53.737  1.00  0.00     0.027 C 
HETATM   30  C22 UNL     1      23.991   1.470  53.080  1.00  0.00     0.176 C 
HETATM   31  O4  UNL     1      24.035   1.396  51.696  1.00  0.00    -0.349 OA
BRANCH  19  32
HETATM   32  O1  UNL     1      22.296   2.886  48.928  1.00  0.00    -0.355 OA
HETATM   33  C15 UNL     1      22.141   2.248  47.673  1.00  0.00     0.209 C 
ENDBRANCH  19  32
ENDBRANCH  17  18
ENDBRANCH   9  11
ENDBRANCH   7   9
TORSDOF 4
ENDMDL
MODEL 5
REMARK VINA RESULT:      -8.7      4.698      8.355
REMARK  4 active torsions:
REMARK  status: ('A' for Active; 'I' for Inactive)
REMARK    1  A    between atoms: C7_7  and  N1_8 
REMARK    2  A    between atoms: N1_8  and  C8_9 
REMARK    3  A    between atoms: C12_15  and  C13_16 
REMARK    4  A    between atoms: C14_17  and  O1_18 
ROOT
HETATM    1  C1  UNL     1      27.376  -0.536  52.865  1.00  0.00     0.018 C 
HETATM    2  C2  UNL     1      26.197  -0.348  53.070  1.00  0.00    -0.078 C 
HETATM    3  C3  UNL     1      24.780  -0.124  53.306  1.00  0.00     0.019 A 
HETATM    4  C4  UNL     1      24.120  -0.966  54.183  1.00  0.00     0.021 A 
HETATM    5  C5  UNL     1      22.775  -0.769  54.417  1.00  0.00     0.004 A 
HETATM    6  C6  UNL     1      22.054   0.236  53.813  1.00  0.00     0.029 A 
HETATM    7  C7  UNL     1      22.723   1.069  52.942  1.00  0.00     0.035 A 
HETATM    8  C23 UNL     1      24.083   0.895  52.684  1.00  0.00     0.050 A 
ENDROOT
BRANCH   7   9
HETATM    9  N1  UNL     1      22.215   2.188  52.181  1.00  0.00    -0.340 N 
HETATM   10  H5  UNL     1      21.778   3.041  52.652  1.00  0.00     0.167 HD
BRANCH   9  11
HETATM   11  C8  UNL     1      22.276   2.211  50.746  1.00  0.00     0.137 A 
HETATM   12  N2  UNL     1      21.706   1.227  50.161  1.00  0.00    -0.224 NA
HETATM   13  C9  UNL     1      21.684   1.120  48.753  1.00  0.00     0.229 A 
HETATM   14  N3  UNL     1      22.252   2.048  48.084  1.00  0.00    -0.278 NA
HETATM   15  C10 UNL     1      22.914   3.205  48.583  1.00  0.00     0.192 A 
HETATM   16  C11 UNL     1      23.003   3.296  50.063  1.00  0.00     0.010 A 
HETATM   17  C12 UNL     1      23.634   4.215  50.751  1.00  0.00     0.052 C 
BRANCH  17  18
HETATM   18  C13 UNL     1      24.426   5.382  50.392  1.00  0.00     0.100 C 
HETATM   19  C14 UNL     1      23.800   6.566  50.632  1.00  0.00     0.105 C 
HETATM   20  C16 UNL     1      24.271   7.960  50.414  1.00  0.00     0.268 C 
HETATM   21  O2  UNL     1      23.391   8.571  49.515  1.00  0.00    -0.272 OA
HETATM   22  N4  UNL     1      23.906   8.612  48.274  1.00  0.00    -0.246 N 
HETATM   23  C17 UNL     1      25.097   8.486  47.538  1.00  0.00     0.160 A 
HETATM   24  H15 UNL     1      23.722   8.746  47.260  1.00  0.00     0.196 HD
HETATM   25  O3  UNL     1      26.059   8.305  48.285  1.00  0.00    -0.331 OA
HETATM   26  C18 UNL     1      26.383   8.342  46.867  1.00  0.00     0.233 A 
HETATM   27  C19 UNL     1      27.622   8.228  47.624  1.00  0.00     0.033 C 
HETATM   28  C20 UNL     1      27.907   7.243  48.662  1.00  0.00     0.004 C 
HETATM   29  C21 UNL     1      27.648   5.811  48.508  1.00  0.00     0.027 C 
HETATM   30  C22 UNL     1      26.215   5.327  48.615  1.00  0.00     0.176 C 
HETATM   31  O4  UNL     1      25.665   5.574  49.864  1.00  0.00    -0.349 OA
BRANCH  19  32
HETATM   32  O1  UNL     1      22.512   6.697  51.171  1.00  0.00    -0.355 OA
HETATM   33  C15 UNL     1      21.416   6.605  50.280  1.00  0.00     0.209 C 
ENDBRANCH  19  32
ENDBRANCH  17  18
ENDBRANCH   9  11
ENDBRANCH   7   9
TORSDOF 4
ENDMDL
MODEL 6
REMARK VINA RESULT:      -8.6      3.014      5.068
REMARK  4 active torsions:
REMARK  status: ('A' for Active; 'I' for Inactive)
REMARK    1  A    between atoms: C7_7  and  N1_8 
REMARK    2  A    between atoms: N1_8  and  C8_9 
REMARK    3  A    between atoms: C12_15  and  C13_16 
REMARK    4  A    between atoms: C14_17  and  O1_18 
ROOT
HETATM    1  C1  UNL     1      30.296   7.121  47.054  1.00  0.00     0.018 C 
HETATM    2  C2  UNL     1      29.267   6.790  47.599  1.00  0.00    -0.078 C 
HETATM    3  C3  UNL     1      28.037   6.389  48.263  1.00  0.00     0.019 A 
HETATM    4  C4  UNL     1      27.121   7.370  48.597  1.00  0.00     0.021 A 
HETATM    5  C5  UNL     1      25.949   7.007  49.228  1.00  0.00     0.004 A 
HETATM    6  C6  UNL     1      25.648   5.702  49.543  1.00  0.00     0.029 A 
HETATM    7  C7  UNL     1      26.568   4.733  49.205  1.00  0.00     0.035 A 
HETATM    8  C23 UNL     1      27.762   5.069  48.567  1.00  0.00     0.050 A 
ENDROOT
BRANCH   7   9
HETATM    9  N1  UNL     1      26.506   3.305  49.419  1.00  0.00    -0.340 N 
HETATM   10  H5  UNL     1      26.741   2.606  48.647  1.00  0.00     0.167 HD
BRANCH   9  11
HETATM   11  C8  UNL     1      26.127   2.751  50.689  1.00  0.00     0.137 A 
HETATM   12  N2  UNL     1      27.076   2.636  51.538  1.00  0.00    -0.224 NA
HETATM   13  C9  UNL     1      26.849   2.109  52.829  1.00  0.00     0.229 A 
HETATM   14  N3  UNL     1      25.656   1.758  53.119  1.00  0.00    -0.278 NA
HETATM   15  C10 UNL     1      24.498   1.833  52.295  1.00  0.00     0.192 A 
HETATM   16  C11 UNL     1      24.735   2.322  50.913  1.00  0.00     0.010 A 
HETATM   17  C12 UNL     1      23.849   2.397  49.950  1.00  0.00     0.052 C 
BRANCH  17  18
HETATM   18  C13 UNL     1      22.436   2.061  49.847  1.00  0.00     0.100 C 
HETATM   19  C14 UNL     1      21.799   2.676  48.815  1.00  0.00     0.105 C 
HETATM   20  C16 UNL     1      20.380   2.588  48.376  1.00  0.00     0.268 C 
HETATM   21  O2  UNL     1      19.829   3.870  48.456  1.00  0.00    -0.272 OA
HETATM   22  N4  UNL     1      19.075   4.014  49.560  1.00  0.00    -0.246 N 
HETATM   23  C17 UNL     1      18.418   3.305  50.582  1.00  0.00     0.160 A 
HETATM   24  H15 UNL     1      18.606   4.671  50.213  1.00  0.00     0.196 HD
HETATM   25  O3  UNL     1      18.521   2.091  50.411  1.00  0.00    -0.331 OA
HETATM   26  C18 UNL     1      17.768   2.483  51.593  1.00  0.00     0.233 A 
HETATM   27  C19 UNL     1      17.715   1.032  51.467  1.00  0.00     0.033 C 
HETATM   28  C20 UNL     1      18.857   0.143  51.291  1.00  0.00     0.004 C 
HETATM   29  C21 UNL     1      20.070   0.215  52.108  1.00  0.00     0.027 C 
HETATM   30  C22 UNL     1      21.055   1.334  51.828  1.00  0.00     0.176 C 
HETATM   31  O4  UNL     1      21.587   1.263  50.550  1.00  0.00    -0.349 OA
BRANCH  19  32
HETATM   32  O1  UNL     1      22.405   3.562  47.913  1.00  0.00    -0.355 OA
HETATM   33  C15 UNL     1      22.198   3.334  46.531  1.00  0.00     0.209 C 
ENDBRANCH  19  32
ENDBRANCH  17  18
ENDBRANCH   9  11
ENDBRANCH   7   9
TORSDOF 4
ENDMDL
MODEL 7
REMARK VINA RESULT:      -8.5      4.064      7.546
REMARK  4 active torsions:
REMARK  status: ('A' for Active; 'I' for Inactive)
REMARK    1  A    between atoms: C7_7  and  N1_8 
REMARK    2  A    between atoms: N1_8  and  C8_9 
REMARK    3  A    between atoms: C12_15  and  C13_16 
REMARK    4  A    between atoms: C14_17  and  O1_18 
ROOT
HETATM    1  C1  UNL     1      23.353   7.673  43.785  1.00  0.00     0.018 C 
HETATM    2  C2  UNL     1      23.086   7.434  44.942  1.00  0.00    -0.078 C 
HETATM    3  C3  UNL     1      22.769   7.158  46.334  1.00  0.00     0.019 A 
HETATM    4  C4  UNL     1      21.447   6.936  46.674  1.00  0.00     0.021 A 
HETATM    5  C5  UNL     1      21.128   6.674  47.990  1.00  0.00     0.004 A 
HETATM    6  C6  UNL     1      22.074   6.623  48.988  1.00  0.00     0.029 A 
HETATM    7  C7  UNL     1      23.388   6.845  48.637  1.00  0.00     0.035 A 
HETATM    8  C23 UNL     1      23.742   7.114  47.314  1.00  0.00     0.050 A 
ENDROOT
BRANCH   7   9
HETATM    9  N1  UNL     1      24.566   6.852  49.475  1.00  0.00    -0.340 N 
HETATM   10  H5  UNL     1      24.690   7.551  50.272  1.00  0.00     0.167 HD
BRANCH   9  11
HETATM   11  C8  UNL     1      25.633   5.910  49.280  1.00  0.00     0.137 A 
HETATM   12  N2  UNL     1      26.682   6.384  48.722  1.00  0.00    -0.224 NA
HETATM   13  C9  UNL     1      27.811   5.573  48.470  1.00  0.00     0.229 A 
HETATM   14  N3  UNL     1      27.747   4.349  48.827  1.00  0.00    -0.278 NA
HETATM   15  C10 UNL     1      26.665   3.680  49.463  1.00  0.00     0.192 A 
HETATM   16  C11 UNL     1      25.447   4.502  49.674  1.00  0.00     0.010 A 
HETATM   17  C12 UNL     1      24.301   4.090  50.158  1.00  0.00     0.052 C 
BRANCH  17  18
HETATM   18  C13 UNL     1      23.804   2.803  50.623  1.00  0.00     0.100 C 
HETATM   19  C14 UNL     1      22.669   2.393  49.995  1.00  0.00     0.105 C 
HETATM   20  C16 UNL     1      21.869   1.151  50.176  1.00  0.00     0.268 C 
HETATM   21  O2  UNL     1      20.582   1.528  50.572  1.00  0.00    -0.272 OA
HETATM   22  N4  UNL     1      20.410   1.372  51.896  1.00  0.00    -0.246 N 
HETATM   23  C17 UNL     1      20.943   0.756  53.042  1.00  0.00     0.160 A 
HETATM   24  H15 UNL     1      19.838   1.603  52.731  1.00  0.00     0.196 HD
HETATM   25  O3  UNL     1      21.915   0.058  52.754  1.00  0.00    -0.331 OA
HETATM   26  C18 UNL     1      21.567   0.073  54.167  1.00  0.00     0.233 A 
HETATM   27  C19 UNL     1      22.661  -0.869  53.967  1.00  0.00     0.033 C 
HETATM   28  C20 UNL     1      23.912  -0.597  53.269  1.00  0.00     0.004 C 
HETATM   29  C21 UNL     1      24.731   0.591  53.515  1.00  0.00     0.027 C 
HETATM   30  C22 UNL     1      24.265   1.914  52.937  1.00  0.00     0.176 C 
HETATM   31  O4  UNL     1      24.212   1.897  51.552  1.00  0.00    -0.349 OA
BRANCH  19  32
HETATM   32  O1  UNL     1      22.004   3.111  48.991  1.00  0.00    -0.355 OA
HETATM   33  C15 UNL     1      22.168   2.675  47.654  1.00  0.00     0.209 C 
ENDBRANCH  19  32
ENDBRANCH  17  18
ENDBRANCH   9  11
ENDBRANCH   7   9
TORSDOF 4
ENDMDL
MODEL 8
REMARK VINA RESULT:      -8.4      3.474      8.096
REMARK  4 active torsions:
REMARK  status: ('A' for Active; 'I' for Inactive)
REMARK    1  A    between atoms: C7_7  and  N1_8 
REMARK    2  A    between atoms: N1_8  and  C8_9 
REMARK    3  A    between atoms: C12_15  and  C13_16 
REMARK    4  A    between atoms: C14_17  and  O1_18 
ROOT
HETATM    1  C1  UNL     1      22.215  -0.787  54.636  1.00  0.00     0.018 C 
HETATM    2  C2  UNL     1      21.223  -0.689  53.949  1.00  0.00    -0.078 C 
HETATM    3  C3  UNL     1      20.036  -0.578  53.116  1.00  0.00     0.019 A 
HETATM    4  C4  UNL     1      18.865  -1.166  53.559  1.00  0.00     0.021 A 
HETATM    5  C5  UNL     1      17.731  -1.071  52.781  1.00  0.00     0.004 A 
HETATM    6  C6  UNL     1      17.710  -0.412  51.574  1.00  0.00     0.029 A 
HETATM    7  C7  UNL     1      18.883   0.171  51.143  1.00  0.00     0.035 A 
HETATM    8  C23 UNL     1      20.047   0.092  51.907  1.00  0.00     0.050 A 
ENDROOT
BRANCH   7   9
HETATM    9  N1  UNL     1      19.137   0.913  49.929  1.00  0.00    -0.340 N 
HETATM   10  H5  UNL     1      19.642   0.478  49.094  1.00  0.00     0.167 HD
BRANCH   9  11
HETATM   11  C8  UNL     1      18.718   2.280  49.781  1.00  0.00     0.137 A 
HETATM   12  N2  UNL     1      17.457   2.451  49.653  1.00  0.00    -0.224 NA
HETATM   13  C9  UNL     1      16.902   3.742  49.502  1.00  0.00     0.229 A 
HETATM   14  N3  UNL     1      17.708   4.732  49.504  1.00  0.00    -0.278 NA
HETATM   15  C10 UNL     1      19.124   4.707  49.646  1.00  0.00     0.192 A 
HETATM   16  C11 UNL     1      19.727   3.353  49.738  1.00  0.00     0.010 A 
HETATM   17  C12 UNL     1      21.006   3.071  49.787  1.00  0.00     0.052 C 
BRANCH  17  18
HETATM   18  C13 UNL     1      22.220   3.873  49.762  1.00  0.00     0.100 C 
HETATM   19  C14 UNL     1      22.992   3.737  50.874  1.00  0.00     0.105 C 
HETATM   20  C16 UNL     1      24.293   4.371  51.220  1.00  0.00     0.268 C 
HETATM   21  O2  UNL     1      24.107   5.111  52.392  1.00  0.00    -0.272 OA
HETATM   22  N4  UNL     1      23.977   6.423  52.129  1.00  0.00    -0.246 N 
HETATM   23  C17 UNL     1      24.181   7.405  51.144  1.00  0.00     0.160 A 
HETATM   24  H15 UNL     1      23.678   7.354  52.478  1.00  0.00     0.196 HD
HETATM   25  O3  UNL     1      24.712   6.922  50.144  1.00  0.00    -0.331 OA
HETATM   26  C18 UNL     1      24.435   8.348  50.062  1.00  0.00     0.233 A 
HETATM   27  C19 UNL     1      25.151   7.944  48.860  1.00  0.00     0.033 C 
HETATM   28  C20 UNL     1      24.799   6.833  47.983  1.00  0.00     0.004 C 
HETATM   29  C21 UNL     1      23.445   6.597  47.482  1.00  0.00     0.027 C 
HETATM   30  C22 UNL     1      22.421   6.008  48.434  1.00  0.00     0.176 C 
HETATM   31  O4  UNL     1      22.777   4.743  48.875  1.00  0.00    -0.349 OA
BRANCH  19  32
HETATM   32  O1  UNL     1      22.684   2.915  51.967  1.00  0.00    -0.355 OA
HETATM   33  C15 UNL     1      23.448   1.735  52.136  1.00  0.00     0.209 C 
ENDBRANCH  19  32
ENDBRANCH  17  18
ENDBRANCH   9  11
ENDBRANCH   7   9
TORSDOF 4
ENDMDL
MODEL 9
REMARK VINA RESULT:      -8.4      2.888      8.343
REMARK  4 active torsions:
REMARK  status: ('A' for Active; 'I' for Inactive)
REMARK    1  A    between atoms: C7_7  and  N1_8 
REMARK    2  A    between atoms: N1_8  and  C8_9 
REMARK    3  A    between atoms: C12_15  and  C13_16 
REMARK    4  A    between atoms: C14_17  and  O1_18 
ROOT
HETATM    1  C1  UNL     1      13.335   2.777  48.977  1.00  0.00     0.018 C 
HETATM    2  C2  UNL     1      14.393   2.884  49.557  1.00  0.00    -0.078 C 
HETATM    3  C3  UNL     1      15.670   3.011  50.243  1.00  0.00     0.019 A 
HETATM    4  C4  UNL     1      15.934   4.185  50.925  1.00  0.00     0.021 A 
HETATM    5  C5  UNL     1      17.140   4.323  51.580  1.00  0.00     0.004 A 
HETATM    6  C6  UNL     1      18.100   3.337  51.586  1.00  0.00     0.029 A 
HETATM    7  C7  UNL     1      17.824   2.171  50.903  1.00  0.00     0.035 A 
HETATM    8  C23 UNL     1      16.614   2.002  50.231  1.00  0.00     0.050 A 
ENDROOT
BRANCH   7   9
HETATM    9  N1  UNL     1      18.645   0.992  50.748  1.00  0.00    -0.340 N 
HETATM   10  H5  UNL     1      19.118   0.749  49.822  1.00  0.00     0.167 HD
BRANCH   9  11
HETATM   11  C8  UNL     1      18.871   0.085  51.839  1.00  0.00     0.137 A 
HETATM   12  N2  UNL     1      17.879  -0.665  52.138  1.00  0.00    -0.224 NA
HETATM   13  C9  UNL     1      17.959  -1.607  53.188  1.00  0.00     0.229 A 
HETATM   14  N3  UNL     1      19.064  -1.687  53.823  1.00  0.00    -0.278 NA
HETATM   15  C10 UNL     1      20.254  -0.937  53.605  1.00  0.00     0.192 A 
HETATM   16  C11 UNL     1      20.162   0.103  52.550  1.00  0.00     0.010 A 
HETATM   17  C12 UNL     1      21.090   0.971  52.228  1.00  0.00     0.052 C 
BRANCH  17  18
HETATM   18  C13 UNL     1      22.431   1.248  52.722  1.00  0.00     0.100 C 
HETATM   19  C14 UNL     1      22.942   2.432  52.290  1.00  0.00     0.105 C 
HETATM   20  C16 UNL     1      24.256   3.070  52.575  1.00  0.00     0.268 C 
HETATM   21  O2  UNL     1      24.924   3.230  51.358  1.00  0.00    -0.272 OA
HETATM   22  N4  UNL     1      25.859   2.280  51.180  1.00  0.00    -0.246 N 
HETATM   23  C17 UNL     1      26.609   1.294  51.844  1.00  0.00     0.160 A 
HETATM   24  H15 UNL     1      26.486   1.791  50.513  1.00  0.00     0.196 HD
HETATM   25  O3  UNL     1      26.373   1.299  53.052  1.00  0.00    -0.331 OA
HETATM   26  C18 UNL     1      27.342   0.303  52.622  1.00  0.00     0.233 A 
HETATM   27  C19 UNL     1      27.244   0.260  54.075  1.00  0.00     0.033 C 
HETATM   28  C20 UNL     1      26.014   0.150  54.850  1.00  0.00     0.004 C 
HETATM   29  C21 UNL     1      24.963  -0.828  54.564  1.00  0.00     0.027 C 
HETATM   30  C22 UNL     1      24.049  -0.571  53.381  1.00  0.00     0.176 C 
HETATM   31  O4  UNL     1      23.310   0.594  53.528  1.00  0.00    -0.349 OA
BRANCH  19  32
HETATM   32  O1  UNL     1      22.277   3.331  51.444  1.00  0.00    -0.355 OA
HETATM   33  C15 UNL     1      21.784   4.529  52.017  1.00  0.00     0.209 C 
ENDBRANCH  19  32
ENDBRANCH  17  18
ENDBRANCH   9  11
ENDBRANCH   7   9
TORSDOF 4
ENDMDL
