MODEL 1
REMARK VINA RESULT:      -8.8      0.000      0.000
REMARK  7 active torsions:
REMARK  status: ('A' for Active; 'I' for Inactive)
REMARK    1  A    between atoms: C2_2  and  O1_3 
REMARK    2  A    between atoms: O1_3  and  C3_4 
REMARK    3  A    between atoms: C5_6  and  C6_7 
REMARK    4  A    between atoms: C12_15  and  C13_16 
REMARK    5  A    between atoms: C13_16  and  S1_17 
REMARK    6  A    between atoms: S1_17  and  C14_18 
REMARK    7  A    between atoms: C20_24  and  O3_25 
ROOT
HETATM    1  C3  UNL     1      22.686   0.960  52.956  1.00  0.00     0.103 A 
HETATM    2  C4  UNL     1      23.813   0.191  52.964  1.00  0.00     0.051 A 
HETATM    3  C5  UNL     1      25.040   0.589  52.497  1.00  0.00    -0.032 A 
HETATM    4  C11 UNL     1      25.080   1.891  51.987  1.00  0.00     0.022 A 
HETATM    5  C12 UNL     1      23.987   2.726  51.945  1.00  0.00    -0.012 A 
HETATM    6  C20 UNL     1      22.796   2.243  52.436  1.00  0.00     0.106 A 
ENDROOT
BRANCH   3   7
HETATM    7  C6  UNL     1      26.226  -0.227  52.484  1.00  0.00     0.024 C 
HETATM    8  C7  UNL     1      27.249  -0.398  53.305  1.00  0.00     0.012 C 
HETATM    9  C8  UNL     1      28.395  -1.340  53.044  1.00  0.00     0.064 C 
HETATM   10  C10 UNL     1      27.515   0.226  54.618  1.00  0.00     0.247 C 
HETATM   11  C9  UNL     1      29.506  -0.645  53.815  1.00  0.00     0.128 C 
HETATM   12  N1  UNL     1      28.802  -0.242  55.011  1.00  0.00    -0.357 N 
HETATM   13  H12 UNL     1      29.145  -0.274  56.011  1.00  0.00     0.162 HD
HETATM   14  O2  UNL     1      26.751   0.995  55.229  1.00  0.00    -0.268 OA
ENDBRANCH   3   7
BRANCH   1  15
HETATM   15  O1  UNL     1      21.436   0.597  53.415  1.00  0.00    -0.349 OA
BRANCH  15  16
HETATM   16  C2  UNL     1      21.199  -0.072  54.627  1.00  0.00     0.171 C 
HETATM   17  C1  UNL     1      21.007  -1.544  54.327  1.00  0.00     0.034 C 
ENDBRANCH  15  16
ENDBRANCH   1  15
BRANCH   5  18
HETATM   18  C13 UNL     1      24.209   4.075  51.379  1.00  0.00     0.121 C 
BRANCH  18  19
HETATM   19  S1  UNL     1      24.377   3.951  49.568  1.00  0.00    -0.125 SA
BRANCH  19  20
HETATM   20  C14 UNL     1      25.788   4.892  49.043  1.00  0.00     0.000 A 
HETATM   21  C15 UNL     1      27.038   4.318  49.010  1.00  0.00     0.018 A 
HETATM   22  C16 UNL     1      28.123   5.094  48.593  1.00  0.00     0.001 A 
HETATM   23  C17 UNL     1      27.853   6.409  48.235  1.00  0.00     0.000 A 
HETATM   24  C18 UNL     1      26.608   7.028  48.253  1.00  0.00     0.001 A 
HETATM   25  C19 UNL     1      25.578   6.195  48.680  1.00  0.00     0.018 A 
ENDBRANCH  19  20
ENDBRANCH  18  19
ENDBRANCH   5  18
BRANCH   6  26
HETATM   26  O3  UNL     1      21.720   3.094  52.382  1.00  0.00    -0.357 OA
HETATM   27  H21 UNL     1      20.755   2.846  52.363  1.00  0.00     0.217 HD
ENDBRANCH   6  26
TORSDOF 7
ENDMDL
MODEL 2
REMARK VINA RESULT:      -8.4      2.021      6.180
REMARK  7 active torsions:
REMARK  status: ('A' for Active; 'I' for Inactive)
REMARK    1  A    between atoms: C2_2  and  O1_3 
REMARK    2  A    between atoms: O1_3  and  C3_4 
REMARK    3  A    between atoms: C5_6  and  C6_7 
REMARK    4  A    between atoms: C12_15  and  C13_16 
REMARK    5  A    between atoms: C13_16  and  S1_17 
REMARK    6  A    between atoms: S1_17  and  C14_18 
REMARK    7  A    between atoms: C20_24  and  O3_25 
ROOT
HETATM    1  C3  UNL     1      25.957   4.008  50.192  1.00  0.00     0.103 A 
HETATM    2  C4  UNL     1      26.564   2.859  50.607  1.00  0.00     0.051 A 
HETATM    3  C5  UNL     1      25.992   1.920  51.428  1.00  0.00    -0.032 A 
HETATM    4  C11 UNL     1      24.688   2.217  51.840  1.00  0.00     0.022 A 
HETATM    5  C12 UNL     1      24.011   3.354  51.464  1.00  0.00    -0.012 A 
HETATM    6  C20 UNL     1      24.662   4.241  50.638  1.00  0.00     0.106 A 
ENDROOT
BRANCH   3   7
HETATM    7  C6  UNL     1      26.636   0.717  51.886  1.00  0.00     0.024 C 
HETATM    8  C7  UNL     1      27.484   0.425  52.858  1.00  0.00     0.012 C 
HETATM    9  C8  UNL     1      28.021  -0.956  53.126  1.00  0.00     0.064 C 
HETATM   10  C10 UNL     1      28.073   1.307  53.888  1.00  0.00     0.247 C 
HETATM   11  C9  UNL     1      29.362  -0.614  53.758  1.00  0.00     0.128 C 
HETATM   12  N1  UNL     1      28.991   0.492  54.611  1.00  0.00    -0.357 N 
HETATM   13  H12 UNL     1      29.318   0.693  55.597  1.00  0.00     0.162 HD
HETATM   14  O2  UNL     1      27.801   2.509  54.062  1.00  0.00    -0.268 OA
ENDBRANCH   3   7
BRANCH   1  15
HETATM   15  O1  UNL     1      26.497   4.975  49.369  1.00  0.00    -0.349 OA
BRANCH  15  16
HETATM   16  C2  UNL     1      27.681   4.819  48.631  1.00  0.00     0.171 C 
HETATM   17  C1  UNL     1      28.172   6.191  48.222  1.00  0.00     0.034 C 
ENDBRANCH  15  16
ENDBRANCH   1  15
BRANCH   5  18
HETATM   18  C13 UNL     1      22.634   3.505  51.986  1.00  0.00     0.121 C 
BRANCH  18  19
HETATM   19  S1  UNL     1      21.609   2.117  51.397  1.00  0.00    -0.125 SA
BRANCH  19  20
HETATM   20  C14 UNL     1      21.576   0.845  52.634  1.00  0.00     0.000 A 
HETATM   21  C15 UNL     1      22.337  -0.292  52.489  1.00  0.00     0.018 A 
HETATM   22  C16 UNL     1      22.281  -1.271  53.485  1.00  0.00     0.001 A 
HETATM   23  C17 UNL     1      21.447  -1.017  54.566  1.00  0.00     0.000 A 
HETATM   24  C18 UNL     1      20.663   0.115  54.753  1.00  0.00     0.001 A 
HETATM   25  C19 UNL     1      20.769   1.043  53.722  1.00  0.00     0.018 A 
ENDBRANCH  19  20
ENDBRANCH  18  19
ENDBRANCH   5  18
BRANCH   6  26
HETATM   26  O3  UNL     1      23.967   5.368  50.278  1.00  0.00    -0.357 OA
HETATM   27  H21 UNL     1      23.068   5.651  50.600  1.00  0.00     0.217 HD
ENDBRANCH   6  26
TORSDOF 7
ENDMDL
MODEL 3
REMARK VINA RESULT:      -8.4      3.154      7.244
REMARK  7 active torsions:
REMARK  status: ('A' for Active; 'I' for Inactive)
REMARK    1  A    between atoms: C2_2  and  O1_3 
REMARK    2  A    between atoms: O1_3  and  C3_4 
REMARK    3  A    between atoms: C5_6  and  C6_7 
REMARK    4  A    between atoms: C12_15  and  C13_16 
REMARK    5  A    between atoms: C13_16  and  S1_17 
REMARK    6  A    between atoms: S1_17  and  C14_18 
REMARK    7  A    between atoms: C20_24  and  O3_25 
ROOT
HETATM    1  C3  UNL     1      26.068  -0.139  54.151  1.00  0.00     0.103 A 
HETATM    2  C4  UNL     1      25.953   0.676  53.063  1.00  0.00     0.051 A 
HETATM    3  C5  UNL     1      24.788   0.918  52.381  1.00  0.00    -0.032 A 
HETATM    4  C11 UNL     1      23.664   0.252  52.883  1.00  0.00     0.022 A 
HETATM    5  C12 UNL     1      23.701  -0.585  53.974  1.00  0.00    -0.012 A 
HETATM    6  C20 UNL     1      24.913  -0.770  54.597  1.00  0.00     0.106 A 
ENDROOT
BRANCH   3   7
HETATM    7  C6  UNL     1      24.667   1.761  51.220  1.00  0.00     0.024 C 
HETATM    8  C7  UNL     1      24.273   3.006  51.010  1.00  0.00     0.012 C 
HETATM    9  C8  UNL     1      24.239   3.665  49.656  1.00  0.00     0.064 C 
HETATM   10  C10 UNL     1      23.816   4.025  51.979  1.00  0.00     0.247 C 
HETATM   11  C9  UNL     1      23.119   4.673  49.867  1.00  0.00     0.128 C 
HETATM   12  N1  UNL     1      23.422   5.148  51.196  1.00  0.00    -0.357 N 
HETATM   13  H12 UNL     1      23.375   6.140  51.561  1.00  0.00     0.162 HD
HETATM   14  O2  UNL     1      23.793   3.896  53.217  1.00  0.00    -0.268 OA
ENDBRANCH   3   7
BRANCH   1  15
HETATM   15  O1  UNL     1      27.218  -0.408  54.863  1.00  0.00    -0.349 OA
BRANCH  15  16
HETATM   16  C2  UNL     1      28.455   0.217  54.638  1.00  0.00     0.171 C 
HETATM   17  C1  UNL     1      29.325  -0.724  53.833  1.00  0.00     0.034 C 
ENDBRANCH  15  16
ENDBRANCH   1  15
BRANCH   5  18
HETATM   18  C13 UNL     1      22.416  -1.202  54.375  1.00  0.00     0.121 C 
BRANCH  18  19
HETATM   19  S1  UNL     1      21.158   0.101  54.582  1.00  0.00    -0.125 SA
BRANCH  19  20
HETATM   20  C14 UNL     1      19.961  -0.025  53.277  1.00  0.00     0.000 A 
HETATM   21  C15 UNL     1      18.864  -0.843  53.412  1.00  0.00     0.018 A 
HETATM   22  C16 UNL     1      17.946  -0.917  52.360  1.00  0.00     0.001 A 
HETATM   23  C17 UNL     1      18.215  -0.142  51.239  1.00  0.00     0.000 A 
HETATM   24  C18 UNL     1      19.309   0.696  51.061  1.00  0.00     0.001 A 
HETATM   25  C19 UNL     1      20.179   0.716  52.147  1.00  0.00     0.018 A 
ENDBRANCH  19  20
ENDBRANCH  18  19
ENDBRANCH   5  18
BRANCH   6  26
HETATM   26  O3  UNL     1      24.924  -1.610  55.682  1.00  0.00    -0.357 OA
HETATM   27  H21 UNL     1      25.427  -2.466  55.778  1.00  0.00     0.217 HD
ENDBRANCH   6  26
TORSDOF 7
ENDMDL
MODEL 4
REMARK VINA RESULT:      -8.0      2.300      5.035
REMARK  7 active torsions:
REMARK  status: ('A' for Active; 'I' for Inactive)
REMARK    1  A    between atoms: C2_2  and  O1_3 
REMARK    2  A    between atoms: O1_3  and  C3_4 
REMARK    3  A    between atoms: C5_6  and  C6_7 
REMARK    4  A    between atoms: C12_15  and  C13_16 
REMARK    5  A    between atoms: C13_16  and  S1_17 
REMARK    6  A    between atoms: S1_17  and  C14_18 
REMARK    7  A    between atoms: C20_24  and  O3_25 
ROOT
HETATM    1  C3  UNL     1      26.852   0.773  52.885  1.00  0.00     0.103 A 
HETATM    2  C4  UNL     1      25.779   0.049  53.315  1.00  0.00     0.051 A 
HETATM    3  C5  UNL     1      24.471   0.451  53.221  1.00  0.00    -0.032 A 
HETATM    4  C11 UNL     1      24.283   1.706  52.631  1.00  0.00     0.022 A 
HETATM    5  C12 UNL     1      25.313   2.494  52.174  1.00  0.00    -0.012 A 
HETATM    6  C20 UNL     1      26.595   2.011  52.309  1.00  0.00     0.106 A 
ENDROOT
BRANCH   3   7
HETATM    7  C6  UNL     1      23.337  -0.301  53.693  1.00  0.00     0.024 C 
HETATM    8  C7  UNL     1      22.089  -0.459  53.285  1.00  0.00     0.012 C 
HETATM    9  C8  UNL     1      21.075  -1.327  53.983  1.00  0.00     0.064 C 
HETATM   10  C10 UNL     1      21.405   0.112  52.105  1.00  0.00     0.247 C 
HETATM   11  C9  UNL     1      19.788  -0.614  53.596  1.00  0.00     0.128 C 
HETATM   12  N1  UNL     1      20.048  -0.308  52.209  1.00  0.00    -0.357 N 
HETATM   13  H12 UNL     1      19.380  -0.371  51.391  1.00  0.00     0.162 HD
HETATM   14  O2  UNL     1      21.936   0.809  51.221  1.00  0.00    -0.268 OA
ENDBRANCH   3   7
BRANCH   1  15
HETATM   15  O1  UNL     1      28.180   0.406  52.961  1.00  0.00    -0.349 OA
BRANCH  15  16
HETATM   16  C2  UNL     1      28.810  -0.056  54.128  1.00  0.00     0.171 C 
HETATM   17  C1  UNL     1      29.764  -1.167  53.746  1.00  0.00     0.034 C 
ENDBRANCH  15  16
ENDBRANCH   1  15
BRANCH   5  18
HETATM   18  C13 UNL     1      24.934   3.790  51.569  1.00  0.00     0.121 C 
BRANCH  18  19
HETATM   19  S1  UNL     1      24.966   3.643  49.752  1.00  0.00    -0.125 SA
BRANCH  19  20
HETATM   20  C14 UNL     1      26.061   4.869  49.083  1.00  0.00     0.000 A 
HETATM   21  C15 UNL     1      25.595   6.124  48.766  1.00  0.00     0.018 A 
HETATM   22  C16 UNL     1      26.489   7.060  48.238  1.00  0.00     0.001 A 
HETATM   23  C17 UNL     1      27.805   6.646  48.073  1.00  0.00     0.000 A 
HETATM   24  C18 UNL     1      28.317   5.391  48.380  1.00  0.00     0.001 A 
HETATM   25  C19 UNL     1      27.370   4.514  48.898  1.00  0.00     0.018 A 
ENDBRANCH  19  20
ENDBRANCH  18  19
ENDBRANCH   5  18
BRANCH   6  26
HETATM   26  O3  UNL     1      27.606   2.815  51.846  1.00  0.00    -0.357 OA
HETATM   27  H21 UNL     1      28.230   3.373  52.388  1.00  0.00     0.217 HD
ENDBRANCH   6  26
TORSDOF 7
ENDMDL
MODEL 5
REMARK VINA RESULT:      -7.9      2.527      4.872
REMARK  7 active torsions:
REMARK  status: ('A' for Active; 'I' for Inactive)
REMARK    1  A    between atoms: C2_2  and  O1_3 
REMARK    2  A    between atoms: O1_3  and  C3_4 
REMARK    3  A    between atoms: C5_6  and  C6_7 
REMARK    4  A    between atoms: C12_15  and  C13_16 
REMARK    5  A    between atoms: C13_16  and  S1_17 
REMARK    6  A    between atoms: S1_17  and  C14_18 
REMARK    7  A    between atoms: C20_24  and  O3_25 
ROOT
HETATM    1  C3  UNL     1      24.236   3.290  51.758  1.00  0.00     0.103 A 
HETATM    2  C4  UNL     1      25.217   2.343  51.789  1.00  0.00     0.051 A 
HETATM    3  C5  UNL     1      25.056   1.057  52.240  1.00  0.00    -0.032 A 
HETATM    4  C11 UNL     1      23.767   0.750  52.689  1.00  0.00     0.022 A 
HETATM    5  C12 UNL     1      22.726   1.650  52.690  1.00  0.00    -0.012 A 
HETATM    6  C20 UNL     1      22.979   2.918  52.219  1.00  0.00     0.106 A 
ENDROOT
BRANCH   3   7
HETATM    7  C6  UNL     1      26.094   0.061  52.294  1.00  0.00     0.024 C 
HETATM    8  C7  UNL     1      27.046  -0.247  53.159  1.00  0.00     0.012 C 
HETATM    9  C8  UNL     1      28.033  -1.368  52.967  1.00  0.00     0.064 C 
HETATM   10  C10 UNL     1      27.362   0.365  54.467  1.00  0.00     0.247 C 
HETATM   11  C9  UNL     1      29.213  -0.837  53.766  1.00  0.00     0.128 C 
HETATM   12  N1  UNL     1      28.542  -0.291  54.922  1.00  0.00    -0.357 N 
HETATM   13  H12 UNL     1      28.838  -0.348  55.936  1.00  0.00     0.162 HD
HETATM   14  O2  UNL     1      26.710   1.265  55.028  1.00  0.00    -0.268 OA
ENDBRANCH   3   7
BRANCH   1  15
HETATM   15  O1  UNL     1      24.357   4.590  51.314  1.00  0.00    -0.349 OA
BRANCH  15  16
HETATM   16  C2  UNL     1      24.837   4.954  50.045  1.00  0.00     0.171 C 
HETATM   17  C1  UNL     1      23.823   4.516  49.010  1.00  0.00     0.034 C 
ENDBRANCH  15  16
ENDBRANCH   1  15
BRANCH   5  18
HETATM   18  C13 UNL     1      21.426   1.154  53.193  1.00  0.00     0.121 C 
BRANCH  18  19
HETATM   19  S1  UNL     1      20.612   0.165  51.896  1.00  0.00    -0.125 SA
BRANCH  19  20
HETATM   20  C14 UNL     1      20.577   1.095  50.384  1.00  0.00     0.000 A 
HETATM   21  C15 UNL     1      19.578   2.012  50.151  1.00  0.00     0.018 A 
HETATM   22  C16 UNL     1      19.585   2.722  48.947  1.00  0.00     0.001 A 
HETATM   23  C17 UNL     1      20.618   2.444  48.061  1.00  0.00     0.000 A 
HETATM   24  C18 UNL     1      21.645   1.528  48.256  1.00  0.00     0.001 A 
HETATM   25  C19 UNL     1      21.572   0.860  49.474  1.00  0.00     0.018 A 
ENDBRANCH  19  20
ENDBRANCH  18  19
ENDBRANCH   5  18
BRANCH   6  26
HETATM   26  O3  UNL     1      21.926   3.798  52.231  1.00  0.00    -0.357 OA
HETATM   27  H21 UNL     1      21.945   4.765  51.991  1.00  0.00     0.217 HD
ENDBRANCH   6  26
TORSDOF 7
ENDMDL
MODEL 6
REMARK VINA RESULT:      -7.8      2.800      5.252
REMARK  7 active torsions:
REMARK  status: ('A' for Active; 'I' for Inactive)
REMARK    1  A    between atoms: C2_2  and  O1_3 
REMARK    2  A    between atoms: O1_3  and  C3_4 
REMARK    3  A    between atoms: C5_6  and  C6_7 
REMARK    4  A    between atoms: C12_15  and  C13_16 
REMARK    5  A    between atoms: C13_16  and  S1_17 
REMARK    6  A    between atoms: S1_17  and  C14_18 
REMARK    7  A    between atoms: C20_24  and  O3_25 
ROOT
HETATM    1  C3  UNL     1      26.082   3.936  49.840  1.00  0.00     0.103 A 
HETATM    2  C4  UNL     1      26.517   2.751  50.357  1.00  0.00     0.051 A 
HETATM    3  C5  UNL     1      25.970   2.117  51.444  1.00  0.00    -0.032 A 
HETATM    4  C11 UNL     1      24.886   2.784  52.027  1.00  0.00     0.022 A 
HETATM    5  C12 UNL     1      24.390   3.980  51.564  1.00  0.00    -0.012 A 
HETATM    6  C20 UNL     1      25.001   4.544  50.468  1.00  0.00     0.106 A 
ENDROOT
BRANCH   3   7
HETATM    7  C6  UNL     1      26.440   0.878  52.004  1.00  0.00     0.024 C 
HETATM    8  C7  UNL     1      27.475   0.525  52.749  1.00  0.00     0.012 C 
HETATM    9  C8  UNL     1      27.744  -0.884  53.210  1.00  0.00     0.064 C 
HETATM   10  C10 UNL     1      28.556   1.360  53.314  1.00  0.00     0.247 C 
HETATM   11  C9  UNL     1      29.259  -0.847  53.340  1.00  0.00     0.128 C 
HETATM   12  N1  UNL     1      29.453   0.450  53.945  1.00  0.00    -0.357 N 
HETATM   13  H12 UNL     1      30.126   0.717  54.716  1.00  0.00     0.162 HD
HETATM   14  O2  UNL     1      28.636   2.600  53.237  1.00  0.00    -0.268 OA
ENDBRANCH   3   7
BRANCH   1  15
HETATM   15  O1  UNL     1      26.603   4.603  48.751  1.00  0.00    -0.349 OA
BRANCH  15  16
HETATM   16  C2  UNL     1      27.950   4.980  48.622  1.00  0.00     0.171 C 
HETATM   17  C1  UNL     1      28.000   6.442  48.233  1.00  0.00     0.034 C 
ENDBRANCH  15  16
ENDBRANCH   1  15
BRANCH   5  18
HETATM   18  C13 UNL     1      23.233   4.542  52.296  1.00  0.00     0.121 C 
BRANCH  18  19
HETATM   19  S1  UNL     1      21.752   3.539  51.945  1.00  0.00    -0.125 SA
BRANCH  19  20
HETATM   20  C14 UNL     1      21.693   3.165  50.211  1.00  0.00     0.000 A 
HETATM   21  C15 UNL     1      21.433   4.154  49.291  1.00  0.00     0.018 A 
HETATM   22  C16 UNL     1      21.393   3.817  47.935  1.00  0.00     0.001 A 
HETATM   23  C17 UNL     1      21.625   2.486  47.613  1.00  0.00     0.000 A 
HETATM   24  C18 UNL     1      21.891   1.457  48.508  1.00  0.00     0.001 A 
HETATM   25  C19 UNL     1      21.913   1.866  49.837  1.00  0.00     0.018 A 
ENDBRANCH  19  20
ENDBRANCH  18  19
ENDBRANCH   5  18
BRANCH   6  26
HETATM   26  O3  UNL     1      24.489   5.738  50.026  1.00  0.00    -0.357 OA
HETATM   27  H21 UNL     1      24.611   6.637  50.438  1.00  0.00     0.217 HD
ENDBRANCH   6  26
TORSDOF 7
ENDMDL
MODEL 7
REMARK VINA RESULT:      -7.7      2.278      2.789
REMARK  7 active torsions:
REMARK  status: ('A' for Active; 'I' for Inactive)
REMARK    1  A    between atoms: C2_2  and  O1_3 
REMARK    2  A    between atoms: O1_3  and  C3_4 
REMARK    3  A    between atoms: C5_6  and  C6_7 
REMARK    4  A    between atoms: C12_15  and  C13_16 
REMARK    5  A    between atoms: C13_16  and  S1_17 
REMARK    6  A    between atoms: S1_17  and  C14_18 
REMARK    7  A    between atoms: C20_24  and  O3_25 
ROOT
HETATM    1  C3  UNL     1      22.401   0.597  52.622  1.00  0.00     0.103 A 
HETATM    2  C4  UNL     1      23.592  -0.067  52.620  1.00  0.00     0.051 A 
HETATM    3  C5  UNL     1      24.824   0.527  52.508  1.00  0.00    -0.032 A 
HETATM    4  C11 UNL     1      24.795   1.921  52.390  1.00  0.00     0.022 A 
HETATM    5  C12 UNL     1      23.635   2.660  52.384  1.00  0.00    -0.012 A 
HETATM    6  C20 UNL     1      22.444   1.981  52.502  1.00  0.00     0.106 A 
ENDROOT
BRANCH   3   7
HETATM    7  C6  UNL     1      26.082  -0.172  52.485  1.00  0.00     0.024 C 
HETATM    8  C7  UNL     1      27.095  -0.296  53.326  1.00  0.00     0.012 C 
HETATM    9  C8  UNL     1      28.332  -1.110  53.047  1.00  0.00     0.064 C 
HETATM   10  C10 UNL     1      27.267   0.268  54.682  1.00  0.00     0.247 C 
HETATM   11  C9  UNL     1      29.351  -0.362  53.892  1.00  0.00     0.128 C 
HETATM   12  N1  UNL     1      28.582  -0.101  55.086  1.00  0.00    -0.357 N 
HETATM   13  H12 UNL     1      28.900  -0.162  56.094  1.00  0.00     0.162 HD
HETATM   14  O2  UNL     1      26.417   0.923  55.312  1.00  0.00    -0.268 OA
ENDBRANCH   3   7
BRANCH   1  15
HETATM   15  O1  UNL     1      21.144   0.038  52.733  1.00  0.00    -0.349 OA
BRANCH  15  16
HETATM   16  C2  UNL     1      20.542  -0.327  53.948  1.00  0.00     0.171 C 
HETATM   17  C1  UNL     1      21.248  -1.556  54.478  1.00  0.00     0.034 C 
ENDBRANCH  15  16
ENDBRANCH   1  15
BRANCH   5  18
HETATM   18  C13 UNL     1      23.788   4.127  52.258  1.00  0.00     0.121 C 
BRANCH  18  19
HETATM   19  S1  UNL     1      24.208   4.546  50.535  1.00  0.00    -0.125 SA
BRANCH  19  20
HETATM   20  C14 UNL     1      23.008   3.821  49.445  1.00  0.00     0.000 A 
HETATM   21  C15 UNL     1      23.297   2.667  48.755  1.00  0.00     0.018 A 
HETATM   22  C16 UNL     1      22.326   2.130  47.905  1.00  0.00     0.001 A 
HETATM   23  C17 UNL     1      21.119   2.813  47.822  1.00  0.00     0.000 A 
HETATM   24  C18 UNL     1      20.785   3.979  48.500  1.00  0.00     0.001 A 
HETATM   25  C19 UNL     1      21.800   4.454  49.324  1.00  0.00     0.018 A 
ENDBRANCH  19  20
ENDBRANCH  18  19
ENDBRANCH   5  18
BRANCH   6  26
HETATM   26  O3  UNL     1      21.301   2.740  52.492  1.00  0.00    -0.357 OA
HETATM   27  H21 UNL     1      21.203   3.681  52.179  1.00  0.00     0.217 HD
ENDBRANCH   6  26
TORSDOF 7
ENDMDL
MODEL 8
REMARK VINA RESULT:      -7.6      2.978      6.302
REMARK  7 active torsions:
REMARK  status: ('A' for Active; 'I' for Inactive)
REMARK    1  A    between atoms: C2_2  and  O1_3 
REMARK    2  A    between atoms: O1_3  and  C3_4 
REMARK    3  A    between atoms: C5_6  and  C6_7 
REMARK    4  A    between atoms: C12_15  and  C13_16 
REMARK    5  A    between atoms: C13_16  and  S1_17 
REMARK    6  A    between atoms: S1_17  and  C14_18 
REMARK    7  A    between atoms: C20_24  and  O3_25 
ROOT
HETATM    1  C3  UNL     1      21.206   0.723  51.886  1.00  0.00     0.103 A 
HETATM    2  C4  UNL     1      21.756   1.767  51.201  1.00  0.00     0.051 A 
HETATM    3  C5  UNL     1      23.075   2.139  51.260  1.00  0.00    -0.032 A 
HETATM    4  C11 UNL     1      23.870   1.353  52.102  1.00  0.00     0.022 A 
HETATM    5  C12 UNL     1      23.388   0.285  52.824  1.00  0.00    -0.012 A 
HETATM    6  C20 UNL     1      22.051  -0.016  52.704  1.00  0.00     0.106 A 
ENDROOT
BRANCH   3   7
HETATM    7  C6  UNL     1      23.654   3.253  50.555  1.00  0.00     0.024 C 
HETATM    8  C7  UNL     1      23.975   4.495  50.879  1.00  0.00     0.012 C 
HETATM    9  C8  UNL     1      24.584   5.487  49.923  1.00  0.00     0.064 C 
HETATM   10  C10 UNL     1      23.857   5.189  52.179  1.00  0.00     0.247 C 
HETATM   11  C9  UNL     1      24.080   6.791  50.521  1.00  0.00     0.128 C 
HETATM   12  N1  UNL     1      24.255   6.535  51.931  1.00  0.00    -0.357 N 
HETATM   13  H12 UNL     1      24.610   7.197  52.676  1.00  0.00     0.162 HD
HETATM   14  O2  UNL     1      23.486   4.675  53.249  1.00  0.00    -0.268 OA
ENDBRANCH   3   7
BRANCH   1  15
HETATM   15  O1  UNL     1      19.887   0.318  51.854  1.00  0.00    -0.349 OA
BRANCH  15  16
HETATM   16  C2  UNL     1      18.833   1.086  51.335  1.00  0.00     0.171 C 
HETATM   17  C1  UNL     1      18.075   0.240  50.335  1.00  0.00     0.034 C 
ENDBRANCH  15  16
ENDBRANCH   1  15
BRANCH   5  18
HETATM   18  C13 UNL     1      24.370  -0.442  53.659  1.00  0.00     0.121 C 
BRANCH  18  19
HETATM   19  S1  UNL     1      25.881   0.563  53.830  1.00  0.00    -0.125 SA
BRANCH  19  20
HETATM   20  C14 UNL     1      27.304  -0.468  53.583  1.00  0.00     0.000 A 
HETATM   21  C15 UNL     1      27.180  -1.698  52.979  1.00  0.00     0.018 A 
HETATM   22  C16 UNL     1      28.325  -2.480  52.805  1.00  0.00     0.001 A 
HETATM   23  C17 UNL     1      29.524  -1.947  53.261  1.00  0.00     0.000 A 
HETATM   24  C18 UNL     1      29.694  -0.712  53.875  1.00  0.00     0.001 A 
HETATM   25  C19 UNL     1      28.513   0.009  54.015  1.00  0.00     0.018 A 
ENDBRANCH  19  20
ENDBRANCH  18  19
ENDBRANCH   5  18
BRANCH   6  26
HETATM   26  O3  UNL     1      21.595  -1.085  53.435  1.00  0.00    -0.357 OA
HETATM   27  H21 UNL     1      22.066  -1.553  54.177  1.00  0.00     0.217 HD
ENDBRANCH   6  26
TORSDOF 7
ENDMDL
MODEL 9
REMARK VINA RESULT:      -7.1      1.437      1.758
REMARK  7 active torsions:
REMARK  status: ('A' for Active; 'I' for Inactive)
REMARK    1  A    between atoms: C2_2  and  O1_3 
REMARK    2  A    between atoms: O1_3  and  C3_4 
REMARK    3  A    between atoms: C5_6  and  C6_7 
REMARK    4  A    between atoms: C12_15  and  C13_16 
REMARK    5  A    between atoms: C13_16  and  S1_17 
REMARK    6  A    between atoms: S1_17  and  C14_18 
REMARK    7  A    between atoms: C20_24  and  O3_25 
ROOT
HETATM    1  C3  UNL     1      22.873   1.977  51.771  1.00  0.00     0.103 A 
HETATM    2  C4  UNL     1      23.899   1.150  52.123  1.00  0.00     0.051 A 
HETATM    3  C5  UNL     1      25.182   1.241  51.648  1.00  0.00    -0.032 A 
HETATM    4  C11 UNL     1      25.397   2.281  50.736  1.00  0.00     0.022 A 
HETATM    5  C12 UNL     1      24.414   3.155  50.332  1.00  0.00    -0.012 A 
HETATM    6  C20 UNL     1      23.155   2.988  50.861  1.00  0.00     0.106 A 
ENDROOT
BRANCH   3   7
HETATM    7  C6  UNL     1      26.262   0.357  52.001  1.00  0.00     0.024 C 
HETATM    8  C7  UNL     1      27.106   0.277  53.016  1.00  0.00     0.012 C 
HETATM    9  C8  UNL     1      28.176  -0.776  53.145  1.00  0.00     0.064 C 
HETATM   10  C10 UNL     1      27.206   1.120  54.225  1.00  0.00     0.247 C 
HETATM   11  C9  UNL     1      29.205  -0.025  53.975  1.00  0.00     0.128 C 
HETATM   12  N1  UNL     1      28.352   0.648  54.928  1.00  0.00    -0.357 N 
HETATM   13  H12 UNL     1      28.513   0.785  55.965  1.00  0.00     0.162 HD
HETATM   14  O2  UNL     1      26.432   2.044  54.537  1.00  0.00    -0.268 OA
ENDBRANCH   3   7
BRANCH   1  15
HETATM   15  O1  UNL     1      21.571   1.918  52.226  1.00  0.00    -0.349 OA
BRANCH  15  16
HETATM   16  C2  UNL     1      20.615   0.992  51.777  1.00  0.00     0.171 C 
HETATM   17  C1  UNL     1      20.424  -0.054  52.854  1.00  0.00     0.034 C 
ENDBRANCH  15  16
ENDBRANCH   1  15
BRANCH   5  18
HETATM   18  C13 UNL     1      24.818   4.201  49.366  1.00  0.00     0.121 C 
BRANCH  18  19
HETATM   19  S1  UNL     1      24.942   5.803  50.227  1.00  0.00    -0.125 SA
BRANCH  19  20
HETATM   20  C14 UNL     1      26.246   6.762  49.499  1.00  0.00     0.000 A 
HETATM   21  C15 UNL     1      26.989   6.255  48.459  1.00  0.00     0.018 A 
HETATM   22  C16 UNL     1      28.009   7.042  47.915  1.00  0.00     0.001 A 
HETATM   23  C17 UNL     1      28.197   8.299  48.474  1.00  0.00     0.000 A 
HETATM   24  C18 UNL     1      27.471   8.849  49.524  1.00  0.00     0.001 A 
HETATM   25  C19 UNL     1      26.476   8.010  50.014  1.00  0.00     0.018 A 
ENDBRANCH  19  20
ENDBRANCH  18  19
ENDBRANCH   5  18
BRANCH   6  26
HETATM   26  O3  UNL     1      22.192   3.871  50.443  1.00  0.00    -0.357 OA
HETATM   27  H21 UNL     1      22.222   4.462  49.641  1.00  0.00     0.217 HD
ENDBRANCH   6  26
TORSDOF 7
ENDMDL
