MODEL 1
REMARK VINA RESULT:      -8.6      0.000      0.000
REMARK  2 active torsions:
REMARK  status: ('A' for Active; 'I' for Inactive)
REMARK    1  A    between atoms: N1_1  and  N2_2 
REMARK    2  A    between atoms: C8_14  and  C9_15 
ROOT
HETATM    1  N2  UNL     1      21.240  -0.360  54.329  1.00  0.00    -0.161 N 
HETATM    2  N3  UNL     1      21.352  -1.523  54.955  1.00  0.00    -0.160 NA
HETATM    3  C1  UNL     1      22.666  -1.872  55.021  1.00  0.00     0.176 A 
HETATM    4  C2  UNL     1      23.400  -0.871  54.404  1.00  0.00     0.124 A 
HETATM    5  C3  UNL     1      22.477   0.075  53.973  1.00  0.00     0.178 A 
HETATM    6  N4  UNL     1      22.719   1.312  53.273  1.00  0.00    -0.336 N 
HETATM    7  C4  UNL     1      23.865   1.643  52.467  1.00  0.00     0.065 A 
HETATM    8  C5  UNL     1      23.532   2.630  51.595  1.00  0.00     0.035 A 
HETATM    9  C6  UNL     1      24.366   3.224  50.647  1.00  0.00     0.039 A 
HETATM   10  P1  UNL     1      25.994   2.573  50.650  1.00  0.00     0.088 P 
HETATM   11  N5  UNL     1      26.179   1.355  51.819  1.00  0.00    -0.246 NA
HETATM   12  C7  UNL     1      25.106   1.050  52.568  1.00  0.00     0.113 A 
HETATM   13  C8  UNL     1      25.540  -0.025  53.488  1.00  0.00     0.100 C 
HETATM   14  N6  UNL     1      24.811  -0.794  54.227  1.00  0.00    -0.240 NA
HETATM   15  H4  UNL     1      21.973   2.035  53.371  1.00  0.00     0.168 HD
ENDROOT
BRANCH  13  16
HETATM   16  C9  UNL     1      26.977  -0.258  53.587  1.00  0.00     0.017 A 
HETATM   17  C10 UNL     1      27.573   0.727  54.384  1.00  0.00     0.015 A 
HETATM   18  C11 UNL     1      28.949   0.703  54.618  1.00  0.00     0.001 A 
HETATM   19  C12 UNL     1      29.729  -0.311  54.052  1.00  0.00     0.002 A 
HETATM   20  C13 UNL     1      29.096  -1.244  53.285  1.00  0.00     0.025 A 
HETATM   21  C14 UNL     1      27.744  -1.242  53.038  1.00  0.00     0.046 A 
HETATM   22 CL1  UNL     1      26.857  -2.389  52.075  1.00  0.00    -0.083 Cl
ENDBRANCH  13  16
BRANCH   1  23
HETATM   23  N1  UNL     1      20.077   0.358  54.046  1.00  0.00    -0.321 N 
HETATM   24  H1  UNL     1      20.122   1.222  53.466  1.00  0.00     0.179 HD
HETATM   25  H2  UNL     1      19.214  -0.082  54.482  1.00  0.00     0.179 HD
ENDBRANCH   1  23
TORSDOF 2
ENDMDL
MODEL 2
REMARK VINA RESULT:      -8.3      2.804      5.112
REMARK  2 active torsions:
REMARK  status: ('A' for Active; 'I' for Inactive)
REMARK    1  A    between atoms: N1_1  and  N2_2 
REMARK    2  A    between atoms: C8_14  and  C9_15 
ROOT
HETATM    1  N2  UNL     1      25.670  -0.512  54.918  1.00  0.00    -0.161 N 
HETATM    2  N3  UNL     1      26.964  -0.271  55.079  1.00  0.00    -0.160 NA
HETATM    3  C1  UNL     1      27.341   0.732  54.239  1.00  0.00     0.176 A 
HETATM    4  C2  UNL     1      26.221   1.127  53.525  1.00  0.00     0.124 A 
HETATM    5  C3  UNL     1      25.176   0.326  53.970  1.00  0.00     0.178 A 
HETATM    6  N4  UNL     1      23.796   0.332  53.549  1.00  0.00    -0.336 N 
HETATM    7  C4  UNL     1      23.274   0.813  52.296  1.00  0.00     0.065 A 
HETATM    8  C5  UNL     1      22.077   0.220  52.049  1.00  0.00     0.035 A 
HETATM    9  C6  UNL     1      21.257   0.422  50.939  1.00  0.00     0.039 A 
HETATM   10  P1  UNL     1      21.913   1.576  49.794  1.00  0.00     0.088 P 
HETATM   11  N5  UNL     1      23.412   2.187  50.308  1.00  0.00    -0.246 NA
HETATM   12  C7  UNL     1      23.894   1.734  51.477  1.00  0.00     0.113 A 
HETATM   13  C8  UNL     1      25.191   2.418  51.679  1.00  0.00     0.100 C 
HETATM   14  N6  UNL     1      26.122   2.142  52.530  1.00  0.00    -0.240 NA
HETATM   15  H4  UNL     1      23.116  -0.058  54.236  1.00  0.00     0.168 HD
ENDROOT
BRANCH  13  16
HETATM   16  C9  UNL     1      25.468   3.559  50.811  1.00  0.00     0.017 A 
HETATM   17  C10 UNL     1      26.503   3.248  49.921  1.00  0.00     0.015 A 
HETATM   18  C11 UNL     1      26.939   4.194  48.991  1.00  0.00     0.001 A 
HETATM   19  C12 UNL     1      26.334   5.455  48.955  1.00  0.00     0.002 A 
HETATM   20  C13 UNL     1      25.331   5.704  49.845  1.00  0.00     0.025 A 
HETATM   21  C14 UNL     1      24.885   4.790  50.769  1.00  0.00     0.046 A 
HETATM   22 CL1  UNL     1      23.616   5.021  51.938  1.00  0.00    -0.083 Cl
ENDBRANCH  13  16
BRANCH   1  23
HETATM   23  N1  UNL     1      24.881  -1.457  55.576  1.00  0.00    -0.321 N 
HETATM   24  H1  UNL     1      23.942  -1.709  55.202  1.00  0.00     0.179 HD
HETATM   25  H2  UNL     1      25.353  -1.841  56.447  1.00  0.00     0.179 HD
ENDBRANCH   1  23
TORSDOF 2
ENDMDL
MODEL 3
REMARK VINA RESULT:      -7.9      2.832      5.588
REMARK  2 active torsions:
REMARK  status: ('A' for Active; 'I' for Inactive)
REMARK    1  A    between atoms: N1_1  and  N2_2 
REMARK    2  A    between atoms: C8_14  and  C9_15 
ROOT
HETATM    1  N2  UNL     1      23.743  -1.273  55.189  1.00  0.00    -0.161 N 
HETATM    2  N3  UNL     1      22.498  -1.465  55.600  1.00  0.00    -0.160 NA
HETATM    3  C1  UNL     1      21.642  -0.858  54.733  1.00  0.00     0.176 A 
HETATM    4  C2  UNL     1      22.400  -0.264  53.738  1.00  0.00     0.124 A 
HETATM    5  C3  UNL     1      23.727  -0.538  54.047  1.00  0.00     0.178 A 
HETATM    6  N4  UNL     1      24.917  -0.148  53.331  1.00  0.00    -0.336 N 
HETATM    7  C4  UNL     1      25.058   0.962  52.424  1.00  0.00     0.065 A 
HETATM    8  C5  UNL     1      26.368   1.314  52.346  1.00  0.00     0.035 A 
HETATM    9  C6  UNL     1      26.912   2.342  51.575  1.00  0.00     0.039 A 
HETATM   10  P1  UNL     1      25.714   3.218  50.642  1.00  0.00     0.088 P 
HETATM   11  N5  UNL     1      24.151   2.605  50.896  1.00  0.00    -0.246 NA
HETATM   12  C7  UNL     1      24.024   1.569  51.743  1.00  0.00     0.113 A 
HETATM   13  C8  UNL     1      22.582   1.242  51.779  1.00  0.00     0.100 C 
HETATM   14  N6  UNL     1      21.949   0.485  52.613  1.00  0.00    -0.240 NA
HETATM   15  H4  UNL     1      25.756  -0.744  53.498  1.00  0.00     0.168 HD
ENDROOT
BRANCH  13  16
HETATM   16  C9  UNL     1      21.750   1.844  50.741  1.00  0.00     0.017 A 
HETATM   17  C10 UNL     1      21.788   1.065  49.579  1.00  0.00     0.015 A 
HETATM   18  C11 UNL     1      21.063   1.452  48.450  1.00  0.00     0.001 A 
HETATM   19  C12 UNL     1      20.298   2.622  48.488  1.00  0.00     0.002 A 
HETATM   20  C13 UNL     1      20.298   3.342  49.646  1.00  0.00     0.025 A 
HETATM   21  C14 UNL     1      21.003   2.984  50.770  1.00  0.00     0.046 A 
HETATM   22 CL1  UNL     1      21.059   3.840  52.285  1.00  0.00    -0.083 Cl
ENDBRANCH  13  16
BRANCH   1  23
HETATM   23  N1  UNL     1      24.925  -1.721  55.782  1.00  0.00    -0.321 N 
HETATM   24  H1  UNL     1      25.783  -1.132  55.754  1.00  0.00     0.179 HD
HETATM   25  H2  UNL     1      24.815  -2.680  56.227  1.00  0.00     0.179 HD
ENDBRANCH   1  23
TORSDOF 2
ENDMDL
MODEL 4
REMARK VINA RESULT:      -7.5      3.093      6.087
REMARK  2 active torsions:
REMARK  status: ('A' for Active; 'I' for Inactive)
REMARK    1  A    between atoms: N1_1  and  N2_2 
REMARK    2  A    between atoms: C8_14  and  C9_15 
ROOT
HETATM    1  N2  UNL     1      25.056  -0.866  54.564  1.00  0.00    -0.161 N 
HETATM    2  N3  UNL     1      26.240  -0.615  54.024  1.00  0.00    -0.160 NA
HETATM    3  C1  UNL     1      26.080   0.216  52.959  1.00  0.00     0.176 A 
HETATM    4  C2  UNL     1      24.727   0.492  52.839  1.00  0.00     0.124 A 
HETATM    5  C3  UNL     1      24.099  -0.205  53.864  1.00  0.00     0.178 A 
HETATM    6  N4  UNL     1      22.693  -0.258  54.185  1.00  0.00    -0.336 N 
HETATM    7  C4  UNL     1      21.590  -0.002  53.295  1.00  0.00     0.065 A 
HETATM    8  C5  UNL     1      20.476  -0.615  53.772  1.00  0.00     0.035 A 
HETATM    9  C6  UNL     1      19.205  -0.605  53.197  1.00  0.00     0.039 A 
HETATM   10  P1  UNL     1      19.125   0.319  51.708  1.00  0.00     0.088 P 
HETATM   11  N5  UNL     1      20.632   0.993  51.308  1.00  0.00    -0.246 NA
HETATM   12  C7  UNL     1      21.658   0.750  52.142  1.00  0.00     0.113 A 
HETATM   13  C8  UNL     1      22.830   1.445  51.563  1.00  0.00     0.100 C 
HETATM   14  N6  UNL     1      24.076   1.313  51.874  1.00  0.00    -0.240 NA
HETATM   15  H4  UNL     1      22.468  -0.511  55.171  1.00  0.00     0.168 HD
ENDROOT
BRANCH  13  16
HETATM   16  C9  UNL     1      22.558   2.408  50.501  1.00  0.00     0.017 A 
HETATM   17  C10 UNL     1      22.665   1.791  49.249  1.00  0.00     0.015 A 
HETATM   18  C11 UNL     1      22.446   2.525  48.082  1.00  0.00     0.001 A 
HETATM   19  C12 UNL     1      22.117   3.882  48.171  1.00  0.00     0.002 A 
HETATM   20  C13 UNL     1      22.026   4.432  49.417  1.00  0.00     0.025 A 
HETATM   21  C14 UNL     1      22.238   3.731  50.580  1.00  0.00     0.046 A 
HETATM   22 CL1  UNL     1      22.142   4.350  52.204  1.00  0.00    -0.083 Cl
ENDBRANCH  13  16
BRANCH   1  23
HETATM   23  N1  UNL     1      24.765  -1.669  55.669  1.00  0.00    -0.321 N 
HETATM   24  H1  UNL     1      25.513  -2.239  56.115  1.00  0.00     0.179 HD
HETATM   25  H2  UNL     1      23.743  -1.607  55.954  1.00  0.00     0.179 HD
ENDBRANCH   1  23
TORSDOF 2
ENDMDL
MODEL 5
REMARK VINA RESULT:      -7.4      2.481      4.731
REMARK  2 active torsions:
REMARK  status: ('A' for Active; 'I' for Inactive)
REMARK    1  A    between atoms: N1_1  and  N2_2 
REMARK    2  A    between atoms: C8_14  and  C9_15 
ROOT
HETATM    1  N2  UNL     1      22.054  -0.710  53.540  1.00  0.00    -0.161 N 
HETATM    2  N3  UNL     1      20.958  -0.127  53.075  1.00  0.00    -0.160 NA
HETATM    3  C1  UNL     1      21.309   0.946  52.316  1.00  0.00     0.176 A 
HETATM    4  C2  UNL     1      22.692   1.026  52.312  1.00  0.00     0.124 A 
HETATM    5  C3  UNL     1      23.143  -0.031  53.094  1.00  0.00     0.178 A 
HETATM    6  N4  UNL     1      24.500  -0.399  53.413  1.00  0.00    -0.336 N 
HETATM    7  C4  UNL     1      25.658   0.458  53.397  1.00  0.00     0.065 A 
HETATM    8  C5  UNL     1      26.616  -0.065  54.205  1.00  0.00     0.035 A 
HETATM    9  C6  UNL     1      27.880   0.468  54.456  1.00  0.00     0.039 A 
HETATM   10  P1  UNL     1      28.182   1.969  53.601  1.00  0.00     0.088 P 
HETATM   11  N5  UNL     1      26.849   2.430  52.655  1.00  0.00    -0.246 NA
HETATM   12  C7  UNL     1      25.772   1.627  52.673  1.00  0.00     0.113 A 
HETATM   13  C8  UNL     1      24.776   2.255  51.778  1.00  0.00     0.100 C 
HETATM   14  N6  UNL     1      23.519   1.983  51.656  1.00  0.00    -0.240 NA
HETATM   15  H4  UNL     1      24.643  -1.396  53.682  1.00  0.00     0.168 HD
ENDROOT
BRANCH  13  16
HETATM   16  C9  UNL     1      25.261   3.324  50.911  1.00  0.00     0.017 A 
HETATM   17  C10 UNL     1      26.245   2.834  50.044  1.00  0.00     0.015 A 
HETATM   18  C11 UNL     1      26.855   3.684  49.120  1.00  0.00     0.001 A 
HETATM   19  C12 UNL     1      26.476   5.030  49.064  1.00  0.00     0.002 A 
HETATM   20  C13 UNL     1      25.512   5.453  49.932  1.00  0.00     0.025 A 
HETATM   21  C14 UNL     1      24.898   4.637  50.851  1.00  0.00     0.046 A 
HETATM   22 CL1  UNL     1      23.663   5.091  51.991  1.00  0.00    -0.083 Cl
ENDBRANCH  13  16
BRANCH   1  23
HETATM   23  N1  UNL     1      22.151  -1.838  54.357  1.00  0.00    -0.321 N 
HETATM   24  H1  UNL     1      22.512  -1.752  55.330  1.00  0.00     0.179 HD
HETATM   25  H2  UNL     1      21.824  -2.722  53.866  1.00  0.00     0.179 HD
ENDBRANCH   1  23
TORSDOF 2
ENDMDL
MODEL 6
REMARK VINA RESULT:      -7.3      2.898      5.874
REMARK  2 active torsions:
REMARK  status: ('A' for Active; 'I' for Inactive)
REMARK    1  A    between atoms: N1_1  and  N2_2 
REMARK    2  A    between atoms: C8_14  and  C9_15 
ROOT
HETATM    1  N2  UNL     1      27.256   1.911  53.406  1.00  0.00    -0.161 N 
HETATM    2  N3  UNL     1      27.338   0.802  54.127  1.00  0.00    -0.160 NA
HETATM    3  C1  UNL     1      26.126   0.183  54.136  1.00  0.00     0.176 A 
HETATM    4  C2  UNL     1      25.254   0.952  53.381  1.00  0.00     0.124 A 
HETATM    5  C3  UNL     1      25.991   2.040  52.929  1.00  0.00     0.178 A 
HETATM    6  N4  UNL     1      25.556   3.139  52.103  1.00  0.00    -0.336 N 
HETATM    7  C4  UNL     1      24.208   3.616  51.932  1.00  0.00     0.065 A 
HETATM    8  C5  UNL     1      24.237   4.909  51.518  1.00  0.00     0.035 A 
HETATM    9  C6  UNL     1      23.138   5.724  51.243  1.00  0.00     0.039 A 
HETATM   10  P1  UNL     1      21.600   4.917  51.481  1.00  0.00     0.088 P 
HETATM   11  N5  UNL     1      21.808   3.312  51.998  1.00  0.00    -0.246 NA
HETATM   12  C7  UNL     1      23.068   2.873  52.155  1.00  0.00     0.113 A 
HETATM   13  C8  UNL     1      22.959   1.467  52.605  1.00  0.00     0.100 C 
HETATM   14  N6  UNL     1      23.878   0.709  53.103  1.00  0.00    -0.240 NA
HETATM   15  H4  UNL     1      26.311   3.632  51.579  1.00  0.00     0.168 HD
ENDROOT
BRANCH  13  16
HETATM   16  C9  UNL     1      21.648   0.840  52.473  1.00  0.00     0.017 A 
HETATM   17  C10 UNL     1      21.118   0.557  53.738  1.00  0.00     0.015 A 
HETATM   18  C11 UNL     1      19.865  -0.047  53.856  1.00  0.00     0.001 A 
HETATM   19  C12 UNL     1      19.141  -0.368  52.703  1.00  0.00     0.002 A 
HETATM   20  C13 UNL     1      19.705  -0.070  51.497  1.00  0.00     0.025 A 
HETATM   21  C14 UNL     1      20.936   0.524  51.354  1.00  0.00     0.046 A 
HETATM   22 CL1  UNL     1      21.729   0.939  49.861  1.00  0.00    -0.083 Cl
ENDBRANCH  13  16
BRANCH   1  23
HETATM   23  N1  UNL     1      28.262   2.841  53.137  1.00  0.00    -0.321 N 
HETATM   24  H1  UNL     1      28.023   3.776  52.746  1.00  0.00     0.179 HD
HETATM   25  H2  UNL     1      29.229   2.470  53.377  1.00  0.00     0.179 HD
ENDBRANCH   1  23
TORSDOF 2
ENDMDL
MODEL 7
REMARK VINA RESULT:      -7.3      3.021      6.272
REMARK  2 active torsions:
REMARK  status: ('A' for Active; 'I' for Inactive)
REMARK    1  A    between atoms: N1_1  and  N2_2 
REMARK    2  A    between atoms: C8_14  and  C9_15 
ROOT
HETATM    1  N2  UNL     1      27.772   0.652  54.116  1.00  0.00    -0.161 N 
HETATM    2  N3  UNL     1      28.736   1.371  53.559  1.00  0.00    -0.160 NA
HETATM    3  C1  UNL     1      28.187   2.251  52.678  1.00  0.00     0.176 A 
HETATM    4  C2  UNL     1      26.814   2.063  52.695  1.00  0.00     0.124 A 
HETATM    5  C3  UNL     1      26.574   1.046  53.611  1.00  0.00     0.178 A 
HETATM    6  N4  UNL     1      25.312   0.468  54.003  1.00  0.00    -0.336 N 
HETATM    7  C4  UNL     1      24.086   0.466  53.246  1.00  0.00     0.065 A 
HETATM    8  C5  UNL     1      23.298  -0.556  53.670  1.00  0.00     0.035 A 
HETATM    9  C6  UNL     1      22.033  -0.891  53.186  1.00  0.00     0.039 A 
HETATM   10  P1  UNL     1      21.479   0.165  51.901  1.00  0.00     0.088 P 
HETATM   11  N5  UNL     1      22.625   1.366  51.540  1.00  0.00    -0.246 NA
HETATM   12  C7  UNL     1      23.766   1.363  52.249  1.00  0.00     0.113 A 
HETATM   13  C8  UNL     1      24.570   2.495  51.737  1.00  0.00     0.100 C 
HETATM   14  N6  UNL     1      25.820   2.751  51.941  1.00  0.00    -0.240 NA
HETATM   15  H4  UNL     1      25.302   0.006  54.938  1.00  0.00     0.168 HD
ENDROOT
BRANCH  13  16
HETATM   16  C9  UNL     1      23.874   3.459  50.890  1.00  0.00     0.017 A 
HETATM   17  C10 UNL     1      23.994   3.094  49.544  1.00  0.00     0.015 A 
HETATM   18  C11 UNL     1      23.403   3.875  48.549  1.00  0.00     0.001 A 
HETATM   19  C12 UNL     1      22.690   5.025  48.906  1.00  0.00     0.002 A 
HETATM   20  C13 UNL     1      22.606   5.333  50.232  1.00  0.00     0.025 A 
HETATM   21  C14 UNL     1      23.179   4.581  51.230  1.00  0.00     0.046 A 
HETATM   22 CL1  UNL     1      23.121   4.898  52.940  1.00  0.00    -0.083 Cl
ENDBRANCH  13  16
BRANCH   1  23
HETATM   23  N1  UNL     1      27.892  -0.361  55.070  1.00  0.00    -0.321 N 
HETATM   24  H1  UNL     1      27.537  -1.318  54.867  1.00  0.00     0.179 HD
HETATM   25  H2  UNL     1      28.365  -0.023  55.959  1.00  0.00     0.179 HD
ENDBRANCH   1  23
TORSDOF 2
ENDMDL
MODEL 8
REMARK VINA RESULT:      -7.1      3.349      5.275
REMARK  2 active torsions:
REMARK  status: ('A' for Active; 'I' for Inactive)
REMARK    1  A    between atoms: N1_1  and  N2_2 
REMARK    2  A    between atoms: C8_14  and  C9_15 
ROOT
HETATM    1  N2  UNL     1      22.735  -0.080  53.159  1.00  0.00    -0.161 N 
HETATM    2  N3  UNL     1      23.869  -0.222  53.830  1.00  0.00    -0.160 NA
HETATM    3  C1  UNL     1      24.773   0.690  53.379  1.00  0.00     0.176 A 
HETATM    4  C2  UNL     1      24.163   1.431  52.380  1.00  0.00     0.124 A 
HETATM    5  C3  UNL     1      22.874   0.926  52.257  1.00  0.00     0.178 A 
HETATM    6  N4  UNL     1      21.825   1.347  51.360  1.00  0.00    -0.336 N 
HETATM    7  C4  UNL     1      21.982   2.040  50.107  1.00  0.00     0.065 A 
HETATM    8  C5  UNL     1      20.886   1.824  49.334  1.00  0.00     0.035 A 
HETATM    9  C6  UNL     1      20.657   2.323  48.052  1.00  0.00     0.039 A 
HETATM   10  P1  UNL     1      21.966   3.323  47.452  1.00  0.00     0.088 P 
HETATM   11  N5  UNL     1      23.225   3.452  48.585  1.00  0.00    -0.246 NA
HETATM   12  C7  UNL     1      23.074   2.803  49.752  1.00  0.00     0.113 A 
HETATM   13  C8  UNL     1      24.296   3.082  50.538  1.00  0.00     0.100 C 
HETATM   14  N6  UNL     1      24.712   2.498  51.613  1.00  0.00    -0.240 NA
HETATM   15  H4  UNL     1      20.855   1.117  51.666  1.00  0.00     0.168 HD
ENDROOT
BRANCH  13  16
HETATM   16  C9  UNL     1      25.156   4.156  50.049  1.00  0.00     0.017 A 
HETATM   17  C10 UNL     1      26.265   3.621  49.383  1.00  0.00     0.015 A 
HETATM   18  C11 UNL     1      27.227   4.467  48.828  1.00  0.00     0.001 A 
HETATM   19  C12 UNL     1      27.075   5.854  48.942  1.00  0.00     0.002 A 
HETATM   20  C13 UNL     1      25.975   6.319  49.600  1.00  0.00     0.025 A 
HETATM   21  C14 UNL     1      25.015   5.507  50.155  1.00  0.00     0.046 A 
HETATM   22 CL1  UNL     1      23.585   6.014  51.009  1.00  0.00    -0.083 Cl
ENDBRANCH  13  16
BRANCH   1  23
HETATM   23  N1  UNL     1      21.552  -0.808  53.301  1.00  0.00    -0.321 N 
HETATM   24  H1  UNL     1      21.312  -1.558  52.620  1.00  0.00     0.179 HD
HETATM   25  H2  UNL     1      20.986  -0.497  54.145  1.00  0.00     0.179 HD
ENDBRANCH   1  23
TORSDOF 2
ENDMDL
MODEL 9
REMARK VINA RESULT:      -7.1      3.022      6.459
REMARK  2 active torsions:
REMARK  status: ('A' for Active; 'I' for Inactive)
REMARK    1  A    between atoms: N1_1  and  N2_2 
REMARK    2  A    between atoms: C8_14  and  C9_15 
ROOT
HETATM    1  N2  UNL     1      26.780   0.042  53.205  1.00  0.00    -0.161 N 
HETATM    2  N3  UNL     1      27.486   0.657  52.267  1.00  0.00    -0.160 NA
HETATM    3  C1  UNL     1      26.657   1.435  51.520  1.00  0.00     0.176 A 
HETATM    4  C2  UNL     1      25.375   1.292  52.025  1.00  0.00     0.124 A 
HETATM    5  C3  UNL     1      25.476   0.405  53.090  1.00  0.00     0.178 A 
HETATM    6  N4  UNL     1      24.431  -0.082  53.957  1.00  0.00    -0.336 N 
HETATM    7  C4  UNL     1      23.021  -0.142  53.667  1.00  0.00     0.065 A 
HETATM    8  C5  UNL     1      22.439  -1.080  54.459  1.00  0.00     0.035 A 
HETATM    9  C6  UNL     1      21.090  -1.436  54.480  1.00  0.00     0.039 A 
HETATM   10  P1  UNL     1      20.117  -0.532  53.336  1.00  0.00     0.088 P 
HETATM   11  N5  UNL     1      21.054   0.580  52.457  1.00  0.00    -0.246 NA
HETATM   12  C7  UNL     1      22.368   0.632  52.732  1.00  0.00     0.113 A 
HETATM   13  C8  UNL     1      22.933   1.667  51.837  1.00  0.00     0.100 C 
HETATM   14  N6  UNL     1      24.174   1.909  51.571  1.00  0.00    -0.240 NA
HETATM   15  H4  UNL     1      24.746  -0.423  54.891  1.00  0.00     0.168 HD
ENDROOT
BRANCH  13  16
HETATM   16  C9  UNL     1      21.977   2.537  51.161  1.00  0.00     0.017 A 
HETATM   17  C10 UNL     1      21.759   3.695  51.917  1.00  0.00     0.015 A 
HETATM   18  C11 UNL     1      20.876   4.676  51.461  1.00  0.00     0.001 A 
HETATM   19  C12 UNL     1      20.211   4.495  50.243  1.00  0.00     0.002 A 
HETATM   20  C13 UNL     1      20.461   3.348  49.549  1.00  0.00     0.025 A 
HETATM   21  C14 UNL     1      21.324   2.368  49.976  1.00  0.00     0.046 A 
HETATM   22 CL1  UNL     1      21.702   0.879  49.157  1.00  0.00    -0.083 Cl
ENDBRANCH  13  16
BRANCH   1  23
HETATM   23  N1  UNL     1      27.232  -0.847  54.183  1.00  0.00    -0.321 N 
HETATM   24  H1  UNL     1      26.713  -0.951  55.079  1.00  0.00     0.179 HD
HETATM   25  H2  UNL     1      28.118  -1.354  53.888  1.00  0.00     0.179 HD
ENDBRANCH   1  23
TORSDOF 2
ENDMDL
