MODEL 1
REMARK VINA RESULT:      -7.4      0.000      0.000
REMARK  0 active torsions:
REMARK  status: ('A' for Active; 'I' for Inactive)
ROOT
HETATM    1  C1  UNL     1      26.804  -1.918  52.419  1.00  0.00     0.043 C 
HETATM    2  C2  UNL     1      26.269  -0.511  52.546  1.00  0.00    -0.082 C 
HETATM    3  C3  UNL     1      26.900   0.541  51.930  1.00  0.00     0.002 C 
HETATM    4  C4  UNL     1      26.291   1.839  52.150  1.00  0.00     0.198 C 
HETATM    5  O1  UNL     1      25.844   2.384  50.924  1.00  0.00    -0.363 OA
HETATM    6  C5  UNL     1      25.104   3.540  51.266  1.00  0.00     0.338 C 
HETATM    7  O2  UNL     1      24.558   4.049  50.055  1.00  0.00    -0.363 OA
HETATM    8  C6  UNL     1      23.808   2.917  49.616  1.00  0.00     0.197 C 
HETATM    9  C7  UNL     1      22.872   3.242  48.568  1.00  0.00    -0.003 C 
HETATM   10  C8  UNL     1      21.575   2.977  48.873  1.00  0.00    -0.007 C 
HETATM   11  C9  UNL     1      20.816   2.414  50.041  1.00  0.00     0.178 C 
HETATM   12  N1  UNL     1      19.849   3.240  50.631  1.00  0.00    -0.264 NA
HETATM   13  C10 UNL     1      19.713   3.328  51.899  1.00  0.00     0.194 C 
HETATM   14  N2  UNL     1      20.648   2.692  52.532  1.00  0.00    -0.220 NA
HETATM   15  C11 UNL     1      20.534   1.264  52.325  1.00  0.00     0.231 C 
HETATM   16  N3  UNL     1      21.565   0.713  52.935  1.00  0.00    -0.263 NA
HETATM   17  C12 UNL     1      21.792  -0.725  52.946  1.00  0.00     0.271 C 
HETATM   18  N4  UNL     1      22.453  -1.215  54.110  1.00  0.00    -0.381 N 
HETATM   19  C13 UNL     1      23.603  -0.998  54.928  1.00  0.00     0.080 C 
HETATM   20  C14 UNL     1      24.850  -0.568  54.632  1.00  0.00    -0.006 C 
HETATM   21  C15 UNL     1      24.954  -0.307  53.213  1.00  0.00     0.062 C 
HETATM   22  H18 UNL     1      21.965  -2.046  54.579  1.00  0.00     0.160 HD
ENDROOT
TORSDOF 0
ENDMDL
MODEL 2
REMARK VINA RESULT:      -7.3      3.001      4.534
REMARK  0 active torsions:
REMARK  status: ('A' for Active; 'I' for Inactive)
ROOT
HETATM    1  C1  UNL     1      24.536  -1.257  55.759  1.00  0.00     0.043 C 
HETATM    2  C2  UNL     1      24.045  -0.893  54.378  1.00  0.00    -0.082 C 
HETATM    3  C3  UNL     1      22.704  -0.892  54.084  1.00  0.00     0.002 C 
HETATM    4  C4  UNL     1      22.373  -0.541  52.716  1.00  0.00     0.198 C 
HETATM    5  O1  UNL     1      21.599   0.642  52.688  1.00  0.00    -0.363 OA
HETATM    6  C5  UNL     1      21.496   1.001  51.324  1.00  0.00     0.338 C 
HETATM    7  O2  UNL     1      20.808   2.245  51.279  1.00  0.00    -0.363 OA
HETATM    8  C6  UNL     1      21.670   3.045  52.087  1.00  0.00     0.197 C 
HETATM    9  C7  UNL     1      21.403   4.457  51.957  1.00  0.00    -0.003 C 
HETATM   10  C8  UNL     1      22.458   5.189  51.515  1.00  0.00    -0.007 C 
HETATM   11  C9  UNL     1      23.882   4.927  51.112  1.00  0.00     0.178 C 
HETATM   12  N1  UNL     1      24.246   5.270  49.803  1.00  0.00    -0.264 NA
HETATM   13  C10 UNL     1      24.982   4.513  49.082  1.00  0.00     0.194 C 
HETATM   14  N2  UNL     1      25.206   3.371  49.652  1.00  0.00    -0.220 NA
HETATM   15  C11 UNL     1      26.027   3.536  50.834  1.00  0.00     0.231 C 
HETATM   16  N3  UNL     1      26.133   2.342  51.385  1.00  0.00    -0.263 NA
HETATM   17  C12 UNL     1      26.893   2.108  52.605  1.00  0.00     0.271 C 
HETATM   18  N4  UNL     1      27.479   0.813  52.702  1.00  0.00    -0.381 N 
HETATM   19  C13 UNL     1      27.167  -0.577  52.596  1.00  0.00     0.080 C 
HETATM   20  C14 UNL     1      26.043  -1.272  52.884  1.00  0.00    -0.006 C 
HETATM   21  C15 UNL     1      25.027  -0.373  53.387  1.00  0.00     0.062 C 
HETATM   22  H18 UNL     1      28.522   0.817  52.947  1.00  0.00     0.160 HD
ENDROOT
TORSDOF 0
ENDMDL
MODEL 3
REMARK VINA RESULT:      -7.1      3.001      4.757
REMARK  0 active torsions:
REMARK  status: ('A' for Active; 'I' for Inactive)
ROOT
HETATM    1  C1  UNL     1      21.168   0.004  54.782  1.00  0.00     0.043 C 
HETATM    2  C2  UNL     1      21.655   0.108  53.355  1.00  0.00    -0.082 C 
HETATM    3  C3  UNL     1      20.772   0.277  52.319  1.00  0.00     0.002 C 
HETATM    4  C4  UNL     1      21.373   0.343  51.000  1.00  0.00     0.198 C 
HETATM    5  O1  UNL     1      21.122   1.603  50.410  1.00  0.00    -0.363 OA
HETATM    6  C5  UNL     1      21.901   1.636  49.231  1.00  0.00     0.338 C 
HETATM    7  O2  UNL     1      21.743   2.935  48.673  1.00  0.00    -0.363 OA
HETATM    8  C6  UNL     1      22.196   3.739  49.761  1.00  0.00     0.197 C 
HETATM    9  C7  UNL     1      22.462   5.102  49.373  1.00  0.00    -0.003 C 
HETATM   10  C8  UNL     1      23.741   5.507  49.588  1.00  0.00    -0.007 C 
HETATM   11  C9  UNL     1      25.002   4.908  50.143  1.00  0.00     0.178 C 
HETATM   12  N1  UNL     1      26.112   4.856  49.288  1.00  0.00    -0.264 NA
HETATM   13  C10 UNL     1      26.871   3.830  49.222  1.00  0.00     0.194 C 
HETATM   14  N2  UNL     1      26.404   2.837  49.911  1.00  0.00    -0.220 NA
HETATM   15  C11 UNL     1      26.435   3.131  51.328  1.00  0.00     0.231 C 
HETATM   16  N3  UNL     1      25.872   2.105  51.936  1.00  0.00    -0.263 NA
HETATM   17  C12 UNL     1      25.720   2.040  53.383  1.00  0.00     0.271 C 
HETATM   18  N4  UNL     1      25.755   0.723  53.926  1.00  0.00    -0.381 N 
HETATM   19  C13 UNL     1      25.174  -0.574  53.777  1.00  0.00     0.080 C 
HETATM   20  C14 UNL     1      23.938  -0.967  53.395  1.00  0.00    -0.006 C 
HETATM   21  C15 UNL     1      23.121   0.191  53.109  1.00  0.00     0.062 C 
HETATM   22  H18 UNL     1      26.435   0.600  54.745  1.00  0.00     0.160 HD
ENDROOT
TORSDOF 0
ENDMDL
MODEL 4
REMARK VINA RESULT:      -6.7      3.033      6.564
REMARK  0 active torsions:
REMARK  status: ('A' for Active; 'I' for Inactive)
ROOT
HETATM    1  C1  UNL     1      22.279   3.952  46.950  1.00  0.00     0.043 C 
HETATM    2  C2  UNL     1      22.288   4.003  48.460  1.00  0.00    -0.082 C 
HETATM    3  C3  UNL     1      21.151   3.738  49.181  1.00  0.00     0.002 C 
HETATM    4  C4  UNL     1      21.297   3.841  50.621  1.00  0.00     0.198 C 
HETATM    5  O1  UNL     1      21.055   2.587  51.228  1.00  0.00    -0.363 OA
HETATM    6  C5  UNL     1      21.406   2.746  52.588  1.00  0.00     0.338 C 
HETATM    7  O2  UNL     1      21.268   1.468  53.198  1.00  0.00    -0.363 OA
HETATM    8  C6  UNL     1      22.161   0.700  52.393  1.00  0.00     0.197 C 
HETATM    9  C7  UNL     1      22.482  -0.577  52.980  1.00  0.00    -0.003 C 
HETATM   10  C8  UNL     1      23.807  -0.768  53.216  1.00  0.00    -0.007 C 
HETATM   11  C9  UNL     1      25.078   0.009  53.023  1.00  0.00     0.178 C 
HETATM   12  N1  UNL     1      25.831   0.292  54.172  1.00  0.00    -0.264 NA
HETATM   13  C10 UNL     1      26.370   1.435  54.366  1.00  0.00     0.194 C 
HETATM   14  N2  UNL     1      26.011   2.298  53.469  1.00  0.00    -0.220 NA
HETATM   15  C11 UNL     1      26.542   1.944  52.170  1.00  0.00     0.231 C 
HETATM   16  N3  UNL     1      26.062   2.827  51.316  1.00  0.00    -0.263 NA
HETATM   17  C12 UNL     1      26.379   2.795  49.894  1.00  0.00     0.271 C 
HETATM   18  N4  UNL     1      26.395   4.070  49.259  1.00  0.00    -0.381 N 
HETATM   19  C13 UNL     1      25.615   5.254  49.087  1.00  0.00     0.080 C 
HETATM   20  C14 UNL     1      24.278   5.449  49.023  1.00  0.00    -0.006 C 
HETATM   21  C15 UNL     1      23.591   4.184  49.158  1.00  0.00     0.062 C 
HETATM   22  H18 UNL     1      27.278   4.267  48.684  1.00  0.00     0.160 HD
ENDROOT
TORSDOF 0
ENDMDL
MODEL 5
REMARK VINA RESULT:      -6.7      1.868      2.278
REMARK  0 active torsions:
REMARK  status: ('A' for Active; 'I' for Inactive)
ROOT
HETATM    1  C1  UNL     1      25.078  -0.688  52.932  1.00  0.00     0.043 C 
HETATM    2  C2  UNL     1      24.359   0.623  53.153  1.00  0.00    -0.082 C 
HETATM    3  C3  UNL     1      25.016   1.820  53.009  1.00  0.00     0.002 C 
HETATM    4  C4  UNL     1      24.212   2.999  53.269  1.00  0.00     0.198 C 
HETATM    5  O1  UNL     1      24.111   3.789  52.101  1.00  0.00    -0.363 OA
HETATM    6  C5  UNL     1      23.164   4.795  52.400  1.00  0.00     0.338 C 
HETATM    7  O2  UNL     1      22.969   5.542  51.204  1.00  0.00    -0.363 OA
HETATM    8  C6  UNL     1      22.544   4.506  50.320  1.00  0.00     0.197 C 
HETATM    9  C7  UNL     1      21.954   5.016  49.107  1.00  0.00    -0.003 C 
HETATM   10  C8  UNL     1      20.671   4.622  48.898  1.00  0.00    -0.007 C 
HETATM   11  C9  UNL     1      19.659   3.766  49.605  1.00  0.00     0.178 C 
HETATM   12  N1  UNL     1      18.460   4.383  49.989  1.00  0.00    -0.264 NA
HETATM   13  C10 UNL     1      17.919   4.168  51.127  1.00  0.00     0.194 C 
HETATM   14  N2  UNL     1      18.678   3.452  51.896  1.00  0.00    -0.220 NA
HETATM   15  C11 UNL     1      18.814   2.107  51.379  1.00  0.00     0.231 C 
HETATM   16  N3  UNL     1      19.659   1.483  52.177  1.00  0.00    -0.263 NA
HETATM   17  C12 UNL     1      20.049   0.094  51.973  1.00  0.00     0.271 C 
HETATM   18  N4  UNL     1      20.363  -0.617  53.167  1.00  0.00    -0.381 N 
HETATM   19  C13 UNL     1      21.159  -0.538  54.350  1.00  0.00     0.080 C 
HETATM   20  C14 UNL     1      22.372   0.013  54.583  1.00  0.00    -0.006 C 
HETATM   21  C15 UNL     1      22.886   0.600  53.365  1.00  0.00     0.062 C 
HETATM   22  H18 UNL     1      19.859  -1.558  53.267  1.00  0.00     0.160 HD
ENDROOT
TORSDOF 0
ENDMDL
MODEL 6
REMARK VINA RESULT:      -6.6      3.176      4.796
REMARK  0 active torsions:
REMARK  status: ('A' for Active; 'I' for Inactive)
ROOT
HETATM    1  C1  UNL     1      21.589  -0.148  54.578  1.00  0.00     0.043 C 
HETATM    2  C2  UNL     1      21.753   0.267  53.134  1.00  0.00    -0.082 C 
HETATM    3  C3  UNL     1      20.840  -0.114  52.182  1.00  0.00     0.002 C 
HETATM    4  C4  UNL     1      21.130   0.338  50.835  1.00  0.00     0.198 C 
HETATM    5  O1  UNL     1      20.104   1.196  50.375  1.00  0.00    -0.363 OA
HETATM    6  C5  UNL     1      20.569   1.727  49.150  1.00  0.00     0.338 C 
HETATM    7  O2  UNL     1      19.597   2.672  48.720  1.00  0.00    -0.363 OA
HETATM    8  C6  UNL     1      19.587   3.559  49.838  1.00  0.00     0.197 C 
HETATM    9  C7  UNL     1      18.929   4.809  49.551  1.00  0.00    -0.003 C 
HETATM   10  C8  UNL     1      19.716   5.906  49.707  1.00  0.00    -0.007 C 
HETATM   11  C9  UNL     1      21.134   6.188  50.115  1.00  0.00     0.178 C 
HETATM   12  N1  UNL     1      21.946   6.846  49.181  1.00  0.00    -0.264 NA
HETATM   13  C10 UNL     1      23.159   6.499  48.972  1.00  0.00     0.194 C 
HETATM   14  N2  UNL     1      23.467   5.411  49.604  1.00  0.00    -0.220 NA
HETATM   15  C11 UNL     1      23.470   5.628  51.035  1.00  0.00     0.231 C 
HETATM   16  N3  UNL     1      23.713   4.458  51.592  1.00  0.00    -0.263 NA
HETATM   17  C12 UNL     1      23.793   4.277  53.035  1.00  0.00     0.271 C 
HETATM   18  N4  UNL     1      24.677   3.243  53.458  1.00  0.00    -0.381 N 
HETATM   19  C13 UNL     1      24.987   1.866  53.240  1.00  0.00     0.080 C 
HETATM   20  C14 UNL     1      24.208   0.808  52.916  1.00  0.00    -0.006 C 
HETATM   21  C15 UNL     1      22.831   1.234  52.790  1.00  0.00     0.062 C 
HETATM   22  H18 UNL     1      25.378   3.541  54.212  1.00  0.00     0.160 HD
ENDROOT
TORSDOF 0
ENDMDL
MODEL 7
REMARK VINA RESULT:      -6.5      2.179      5.651
REMARK  0 active torsions:
REMARK  status: ('A' for Active; 'I' for Inactive)
ROOT
HETATM    1  C1  UNL     1      16.989   2.517  51.573  1.00  0.00     0.043 C 
HETATM    2  C2  UNL     1      18.245   1.909  50.993  1.00  0.00    -0.082 C 
HETATM    3  C3  UNL     1      18.842   2.451  49.882  1.00  0.00     0.002 C 
HETATM    4  C4  UNL     1      20.030   1.758  49.420  1.00  0.00     0.198 C 
HETATM    5  O1  UNL     1      21.155   2.610  49.500  1.00  0.00    -0.363 OA
HETATM    6  C5  UNL     1      22.275   1.793  49.217  1.00  0.00     0.338 C 
HETATM    7  O2  UNL     1      23.429   2.606  49.391  1.00  0.00    -0.363 OA
HETATM    8  C6  UNL     1      23.257   3.008  50.749  1.00  0.00     0.197 C 
HETATM    9  C7  UNL     1      24.454   3.583  51.315  1.00  0.00    -0.003 C 
HETATM   10  C8  UNL     1      24.927   2.928  52.407  1.00  0.00    -0.007 C 
HETATM   11  C9  UNL     1      24.534   1.729  53.223  1.00  0.00     0.178 C 
HETATM   12  N1  UNL     1      25.463   0.682  53.305  1.00  0.00    -0.264 NA
HETATM   13  C10 UNL     1      25.113  -0.544  53.216  1.00  0.00     0.194 C 
HETATM   14  N2  UNL     1      23.862  -0.670  52.904  1.00  0.00    -0.220 NA
HETATM   15  C11 UNL     1      23.012  -0.202  53.978  1.00  0.00     0.231 C 
HETATM   16  N3  UNL     1      21.771  -0.294  53.541  1.00  0.00    -0.263 NA
HETATM   17  C12 UNL     1      20.624   0.091  54.352  1.00  0.00     0.271 C 
HETATM   18  N4  UNL     1      19.434  -0.645  54.087  1.00  0.00    -0.381 N 
HETATM   19  C13 UNL     1      18.577  -1.057  53.021  1.00  0.00     0.080 C 
HETATM   20  C14 UNL     1      18.245  -0.463  51.852  1.00  0.00    -0.006 C 
HETATM   21  C15 UNL     1      18.917   0.813  51.742  1.00  0.00     0.062 C 
HETATM   22  H18 UNL     1      18.963  -1.053  54.959  1.00  0.00     0.160 HD
ENDROOT
TORSDOF 0
ENDMDL
MODEL 8
REMARK VINA RESULT:      -6.4      3.638      5.322
REMARK  0 active torsions:
REMARK  status: ('A' for Active; 'I' for Inactive)
ROOT
HETATM    1  C1  UNL     1      21.267   0.176  51.831  1.00  0.00     0.043 C 
HETATM    2  C2  UNL     1      21.894   1.031  50.754  1.00  0.00    -0.082 C 
HETATM    3  C3  UNL     1      21.413   1.010  49.468  1.00  0.00     0.002 C 
HETATM    4  C4  UNL     1      22.119   1.864  48.532  1.00  0.00     0.198 C 
HETATM    5  O1  UNL     1      21.251   2.859  48.027  1.00  0.00    -0.363 OA
HETATM    6  C5  UNL     1      22.070   3.743  47.287  1.00  0.00     0.338 C 
HETATM    7  O2  UNL     1      21.234   4.809  46.853  1.00  0.00    -0.363 OA
HETATM    8  C6  UNL     1      20.752   5.285  48.109  1.00  0.00     0.197 C 
HETATM    9  C7  UNL     1      20.130   6.582  48.011  1.00  0.00    -0.003 C 
HETATM   10  C8  UNL     1      20.711   7.542  48.778  1.00  0.00    -0.007 C 
HETATM   11  C9  UNL     1      21.863   7.629  49.739  1.00  0.00     0.178 C 
HETATM   12  N1  UNL     1      22.892   8.526  49.420  1.00  0.00    -0.264 NA
HETATM   13  C10 UNL     1      24.126   8.225  49.567  1.00  0.00     0.194 C 
HETATM   14  N2  UNL     1      24.285   6.981  49.892  1.00  0.00    -0.220 NA
HETATM   15  C11 UNL     1      23.763   6.722  51.217  1.00  0.00     0.231 C 
HETATM   16  N3  UNL     1      23.896   5.427  51.426  1.00  0.00    -0.263 NA
HETATM   17  C12 UNL     1      23.476   4.786  52.665  1.00  0.00     0.271 C 
HETATM   18  N4  UNL     1      24.241   3.641  53.032  1.00  0.00    -0.381 N 
HETATM   19  C13 UNL     1      24.727   2.400  52.521  1.00  0.00     0.080 C 
HETATM   20  C14 UNL     1      24.210   1.531  51.622  1.00  0.00    -0.006 C 
HETATM   21  C15 UNL     1      22.934   2.020  51.146  1.00  0.00     0.062 C 
HETATM   22  H18 UNL     1      24.601   3.655  54.041  1.00  0.00     0.160 HD
ENDROOT
TORSDOF 0
ENDMDL
MODEL 9
REMARK VINA RESULT:      -6.4      3.213      5.764
REMARK  0 active torsions:
REMARK  status: ('A' for Active; 'I' for Inactive)
ROOT
HETATM    1  C1  UNL     1      19.384   0.241  50.584  1.00  0.00     0.043 C 
HETATM    2  C2  UNL     1      20.364   1.066  51.385  1.00  0.00    -0.082 C 
HETATM    3  C3  UNL     1      21.348   0.465  52.130  1.00  0.00     0.002 C 
HETATM    4  C4  UNL     1      22.207   1.374  52.864  1.00  0.00     0.198 C 
HETATM    5  O1  UNL     1      23.542   1.257  52.413  1.00  0.00    -0.363 OA
HETATM    6  C5  UNL     1      24.252   2.305  53.044  1.00  0.00     0.338 C 
HETATM    7  O2  UNL     1      25.577   2.270  52.525  1.00  0.00    -0.363 OA
HETATM    8  C6  UNL     1      25.312   2.426  51.132  1.00  0.00     0.197 C 
HETATM    9  C7  UNL     1      26.493   2.758  50.374  1.00  0.00    -0.003 C 
HETATM   10  C8  UNL     1      26.415   3.937  49.703  1.00  0.00    -0.007 C 
HETATM   11  C9  UNL     1      25.401   5.030  49.520  1.00  0.00     0.178 C 
HETATM   12  N1  UNL     1      25.772   6.318  49.930  1.00  0.00    -0.264 NA
HETATM   13  C10 UNL     1      24.971   7.086  50.566  1.00  0.00     0.194 C 
HETATM   14  N2  UNL     1      23.875   6.478  50.893  1.00  0.00    -0.220 NA
HETATM   15  C11 UNL     1      23.095   6.151  49.718  1.00  0.00     0.231 C 
HETATM   16  N3  UNL     1      22.047   5.471  50.142  1.00  0.00    -0.263 NA
HETATM   17  C12 UNL     1      21.024   4.965  49.237  1.00  0.00     0.271 C 
HETATM   18  N4  UNL     1      19.718   4.885  49.801  1.00  0.00    -0.381 N 
HETATM   19  C13 UNL     1      19.008   4.379  50.933  1.00  0.00     0.080 C 
HETATM   20  C14 UNL     1      19.202   3.283  51.701  1.00  0.00    -0.006 C 
HETATM   21  C15 UNL     1      20.350   2.545  51.221  1.00  0.00     0.062 C 
HETATM   22  H18 UNL     1      18.951   5.342  49.208  1.00  0.00     0.160 HD
ENDROOT
TORSDOF 0
ENDMDL
