MODEL 1
REMARK VINA RESULT:      -8.7      0.000      0.000
REMARK  5 active torsions:
REMARK  status: ('A' for Active; 'I' for Inactive)
REMARK    1  A    between atoms: C7_7  and  N1_8 
REMARK    2  A    between atoms: N1_8  and  C8_9 
REMARK    3  A    between atoms: C13_16  and  C14_17 
REMARK    4  A    between atoms: C14_17  and  C15_18 
REMARK    5  A    between atoms: C15_18  and  O1_19 
ROOT
HETATM    1  C1  UNL     1      17.551   0.139  51.572  1.00  0.00     0.018 C 
HETATM    2  C2  UNL     1      18.566   0.795  51.573  1.00  0.00    -0.078 C 
HETATM    3  C3  UNL     1      19.771   1.581  51.556  1.00  0.00     0.019 A 
HETATM    4  C4  UNL     1      19.704   2.770  52.242  1.00  0.00     0.021 A 
HETATM    5  C5  UNL     1      20.807   3.586  52.281  1.00  0.00     0.004 A 
HETATM    6  C6  UNL     1      21.931   3.168  51.628  1.00  0.00     0.029 A 
HETATM    7  C7  UNL     1      22.083   1.975  50.909  1.00  0.00     0.035 A 
HETATM    8  C22 UNL     1      20.927   1.242  50.935  1.00  0.00     0.050 A 
ENDROOT
BRANCH   7   9
HETATM    9  N1  UNL     1      23.275   1.599  50.266  1.00  0.00    -0.340 N 
HETATM   10  H5  UNL     1      23.056   0.779  49.677  1.00  0.00     0.167 HD
BRANCH   9  11
HETATM   11  C8  UNL     1      24.511   2.258  50.456  1.00  0.00     0.138 A 
HETATM   12  N2  UNL     1      25.095   3.189  49.699  1.00  0.00    -0.224 NA
HETATM   13  C9  UNL     1      26.301   3.663  50.020  1.00  0.00     0.235 A 
HETATM   14  N3  UNL     1      26.927   3.194  51.118  1.00  0.00    -0.242 NA
HETATM   15  C10 UNL     1      26.352   2.258  51.889  1.00  0.00     0.067 A 
HETATM   16  C11 UNL     1      25.118   1.761  51.573  1.00  0.00     0.026 A 
HETATM   17  C21 UNL     1      27.355   2.217  52.721  1.00  0.00     0.031 C 
HETATM   18  C12 UNL     1      24.984   0.928  52.539  1.00  0.00     0.068 C 
HETATM   19  C13 UNL     1      24.268  -0.085  53.281  1.00  0.00    -0.046 C 
HETATM   20  C17 UNL     1      25.097  -0.421  54.286  1.00  0.00     0.138 C 
HETATM   21  O2  UNL     1      26.314  -0.251  54.941  1.00  0.00    -0.361 OA
HETATM   22  C18 UNL     1      27.496  -0.525  54.196  1.00  0.00     0.200 C 
HETATM   23  C19 UNL     1      28.660   0.270  54.637  1.00  0.00     0.194 C 
HETATM   24  O3  UNL     1      28.656   1.602  54.602  1.00  0.00    -0.385 OA
HETATM   25  C20 UNL     1      28.550   2.342  53.487  1.00  0.00     0.197 C 
BRANCH  19  26
HETATM   26  C14 UNL     1      23.024  -0.914  53.408  1.00  0.00     0.063 C 
BRANCH  26  27
HETATM   27  C15 UNL     1      22.533  -1.046  54.810  1.00  0.00     0.171 C 
BRANCH  27  28
HETATM   28  O1  UNL     1      21.393  -1.794  54.978  1.00  0.00    -0.396 OA
HETATM   29  C16 UNL     1      20.378  -1.533  54.095  1.00  0.00     0.201 C 
ENDBRANCH  27  28
ENDBRANCH  26  27
ENDBRANCH  19  26
ENDBRANCH   9  11
ENDBRANCH   7   9
TORSDOF 5
ENDMDL
MODEL 2
REMARK VINA RESULT:      -8.4      2.278      4.176
REMARK  5 active torsions:
REMARK  status: ('A' for Active; 'I' for Inactive)
REMARK    1  A    between atoms: C7_7  and  N1_8 
REMARK    2  A    between atoms: N1_8  and  C8_9 
REMARK    3  A    between atoms: C13_16  and  C14_17 
REMARK    4  A    between atoms: C14_17  and  C15_18 
REMARK    5  A    between atoms: C15_18  and  O1_19 
ROOT
HETATM    1  C1  UNL     1      17.201   1.053  49.588  1.00  0.00     0.018 C 
HETATM    2  C2  UNL     1      17.943   0.669  50.460  1.00  0.00    -0.078 C 
HETATM    3  C3  UNL     1      18.825   0.228  51.508  1.00  0.00     0.019 A 
HETATM    4  C4  UNL     1      18.266  -0.634  52.420  1.00  0.00     0.021 A 
HETATM    5  C5  UNL     1      19.033  -1.108  53.455  1.00  0.00     0.004 A 
HETATM    6  C6  UNL     1      20.333  -0.692  53.525  1.00  0.00     0.029 A 
HETATM    7  C7  UNL     1      20.978   0.181  52.640  1.00  0.00     0.035 A 
HETATM    8  C22 UNL     1      20.124   0.590  51.652  1.00  0.00     0.050 A 
ENDROOT
BRANCH   7   9
HETATM    9  N1  UNL     1      22.325   0.560  52.764  1.00  0.00    -0.340 N 
HETATM   10  H5  UNL     1      22.482   1.343  52.106  1.00  0.00     0.167 HD
BRANCH   9  11
HETATM   11  C8  UNL     1      23.242  -0.071  53.636  1.00  0.00     0.138 A 
HETATM   12  N2  UNL     1      23.009  -0.949  54.613  1.00  0.00    -0.224 NA
HETATM   13  C9  UNL     1      24.011  -1.401  55.369  1.00  0.00     0.235 A 
HETATM   14  N3  UNL     1      25.266  -0.964  55.138  1.00  0.00    -0.242 NA
HETATM   15  C10 UNL     1      25.516  -0.082  54.159  1.00  0.00     0.067 A 
HETATM   16  C11 UNL     1      24.500   0.393  53.377  1.00  0.00     0.026 A 
HETATM   17  C21 UNL     1      26.795  -0.049  54.408  1.00  0.00     0.031 C 
HETATM   18  C12 UNL     1      25.178   1.177  52.621  1.00  0.00     0.068 C 
HETATM   19  C13 UNL     1      25.317   2.134  51.547  1.00  0.00    -0.046 C 
HETATM   20  C17 UNL     1      26.626   2.449  51.539  1.00  0.00     0.138 C 
HETATM   21  O2  UNL     1      27.900   2.285  52.077  1.00  0.00    -0.361 OA
HETATM   22  C18 UNL     1      28.073   2.627  53.449  1.00  0.00     0.200 C 
HETATM   23  C19 UNL     1      29.137   1.846  54.113  1.00  0.00     0.194 C 
HETATM   24  O3  UNL     1      29.085   0.518  54.200  1.00  0.00    -0.385 OA
HETATM   25  C20 UNL     1      28.142  -0.174  54.858  1.00  0.00     0.197 C 
BRANCH  19  26
HETATM   26  C14 UNL     1      24.644   2.920  50.461  1.00  0.00     0.063 C 
BRANCH  26  27
HETATM   27  C15 UNL     1      23.194   3.163  50.707  1.00  0.00     0.171 C 
BRANCH  27  28
HETATM   28  O1  UNL     1      22.847   3.455  52.004  1.00  0.00    -0.396 OA
HETATM   29  C16 UNL     1      22.940   4.775  52.359  1.00  0.00     0.201 C 
ENDBRANCH  27  28
ENDBRANCH  26  27
ENDBRANCH  19  26
ENDBRANCH   9  11
ENDBRANCH   7   9
TORSDOF 5
ENDMDL
MODEL 3
REMARK VINA RESULT:      -8.3      2.134      6.269
REMARK  5 active torsions:
REMARK  status: ('A' for Active; 'I' for Inactive)
REMARK    1  A    between atoms: C7_7  and  N1_8 
REMARK    2  A    between atoms: N1_8  and  C8_9 
REMARK    3  A    between atoms: C13_16  and  C14_17 
REMARK    4  A    between atoms: C14_17  and  C15_18 
REMARK    5  A    between atoms: C15_18  and  O1_19 
ROOT
HETATM    1  C1  UNL     1      25.810   7.920  47.534  1.00  0.00     0.018 C 
HETATM    2  C2  UNL     1      25.796   6.957  48.265  1.00  0.00    -0.078 C 
HETATM    3  C3  UNL     1      25.764   5.805  49.125  1.00  0.00     0.019 A 
HETATM    4  C4  UNL     1      26.658   4.811  48.808  1.00  0.00     0.021 A 
HETATM    5  C5  UNL     1      26.699   3.674  49.575  1.00  0.00     0.004 A 
HETATM    6  C6  UNL     1      25.836   3.587  50.631  1.00  0.00     0.029 A 
HETATM    7  C7  UNL     1      24.898   4.550  51.022  1.00  0.00     0.035 A 
HETATM    8  C22 UNL     1      24.942   5.637  50.191  1.00  0.00     0.050 A 
ENDROOT
BRANCH   7   9
HETATM    9  N1  UNL     1      24.044   4.402  52.128  1.00  0.00    -0.340 N 
HETATM   10  H5  UNL     1      24.584   4.672  52.967  1.00  0.00     0.167 HD
BRANCH   9  11
HETATM   11  C8  UNL     1      22.709   3.946  52.034  1.00  0.00     0.138 A 
HETATM   12  N2  UNL     1      21.615   4.611  51.661  1.00  0.00    -0.224 NA
HETATM   13  C9  UNL     1      20.421   4.015  51.684  1.00  0.00     0.235 A 
HETATM   14  N3  UNL     1      20.327   2.732  52.087  1.00  0.00    -0.242 NA
HETATM   15  C10 UNL     1      21.419   2.050  52.464  1.00  0.00     0.067 A 
HETATM   16  C11 UNL     1      22.650   2.647  52.449  1.00  0.00     0.026 A 
HETATM   17  C21 UNL     1      20.747   0.962  52.721  1.00  0.00     0.031 C 
HETATM   18  C12 UNL     1      23.354   1.664  52.876  1.00  0.00     0.068 C 
HETATM   19  C13 UNL     1      24.598   1.041  53.269  1.00  0.00    -0.046 C 
HETATM   20  C17 UNL     1      24.249  -0.197  53.665  1.00  0.00     0.138 C 
HETATM   21  O2  UNL     1      23.257  -1.152  53.874  1.00  0.00    -0.361 OA
HETATM   22  C18 UNL     1      22.227  -0.825  54.801  1.00  0.00     0.200 C 
HETATM   23  C19 UNL     1      20.939  -1.482  54.496  1.00  0.00     0.194 C 
HETATM   24  O3  UNL     1      20.301  -1.279  53.344  1.00  0.00    -0.385 OA
HETATM   25  C20 UNL     1      19.817  -0.096  52.932  1.00  0.00     0.197 C 
BRANCH  19  26
HETATM   26  C14 UNL     1      26.084   1.177  53.428  1.00  0.00     0.063 C 
BRANCH  26  27
HETATM   27  C15 UNL     1      26.720   0.022  54.124  1.00  0.00     0.171 C 
BRANCH  27  28
HETATM   28  O1  UNL     1      28.090   0.061  54.219  1.00  0.00    -0.396 OA
HETATM   29  C16 UNL     1      28.761  -0.899  53.509  1.00  0.00     0.201 C 
ENDBRANCH  27  28
ENDBRANCH  26  27
ENDBRANCH  19  26
ENDBRANCH   9  11
ENDBRANCH   7   9
TORSDOF 5
ENDMDL
MODEL 4
REMARK VINA RESULT:      -8.2      2.438      6.096
REMARK  5 active torsions:
REMARK  status: ('A' for Active; 'I' for Inactive)
REMARK    1  A    between atoms: C7_7  and  N1_8 
REMARK    2  A    between atoms: N1_8  and  C8_9 
REMARK    3  A    between atoms: C13_16  and  C14_17 
REMARK    4  A    between atoms: C14_17  and  C15_18 
REMARK    5  A    between atoms: C15_18  and  O1_19 
ROOT
HETATM    1  C1  UNL     1      30.046   5.351  47.836  1.00  0.00     0.018 C 
HETATM    2  C2  UNL     1      28.893   5.331  48.197  1.00  0.00    -0.078 C 
HETATM    3  C3  UNL     1      27.526   5.309  48.645  1.00  0.00     0.019 A 
HETATM    4  C4  UNL     1      26.823   6.471  48.436  1.00  0.00     0.021 A 
HETATM    5  C5  UNL     1      25.510   6.542  48.830  1.00  0.00     0.004 A 
HETATM    6  C6  UNL     1      24.962   5.438  49.419  1.00  0.00     0.029 A 
HETATM    7  C7  UNL     1      25.606   4.219  49.667  1.00  0.00     0.035 A 
HETATM    8  C22 UNL     1      26.904   4.259  49.236  1.00  0.00     0.050 A 
ENDROOT
BRANCH   7   9
HETATM    9  N1  UNL     1      24.979   3.115  50.268  1.00  0.00    -0.340 N 
HETATM   10  H5  UNL     1      24.016   3.072  49.895  1.00  0.00     0.167 HD
BRANCH   9  11
HETATM   11  C8  UNL     1      25.608   2.273  51.214  1.00  0.00     0.138 A 
HETATM   12  N2  UNL     1      26.904   1.995  51.365  1.00  0.00    -0.224 NA
HETATM   13  C9  UNL     1      27.306   1.128  52.297  1.00  0.00     0.235 A 
HETATM   14  N3  UNL     1      26.390   0.533  53.088  1.00  0.00    -0.242 NA
HETATM   15  C10 UNL     1      25.083   0.803  52.949  1.00  0.00     0.067 A 
HETATM   16  C11 UNL     1      24.655   1.688  51.997  1.00  0.00     0.026 A 
HETATM   17  C21 UNL     1      24.734  -0.005  53.910  1.00  0.00     0.031 C 
HETATM   18  C12 UNL     1      23.394   1.625  52.218  1.00  0.00     0.068 C 
HETATM   19  C13 UNL     1      22.018   1.988  51.964  1.00  0.00    -0.046 C 
HETATM   20  C17 UNL     1      21.304   1.247  52.830  1.00  0.00     0.138 C 
HETATM   21  O2  UNL     1      21.269   0.300  53.851  1.00  0.00    -0.361 OA
HETATM   22  C18 UNL     1      21.798  -0.989  53.557  1.00  0.00     0.200 C 
HETATM   23  C19 UNL     1      22.350  -1.676  54.742  1.00  0.00     0.194 C 
HETATM   24  O3  UNL     1      23.354  -1.159  55.451  1.00  0.00    -0.385 OA
HETATM   25  C20 UNL     1      24.591  -0.935  54.981  1.00  0.00     0.197 C 
BRANCH  19  26
HETATM   26  C14 UNL     1      21.059   2.816  51.160  1.00  0.00     0.063 C 
BRANCH  26  27
HETATM   27  C15 UNL     1      21.552   3.145  49.792  1.00  0.00     0.171 C 
BRANCH  27  28
HETATM   28  O1  UNL     1      22.301   2.172  49.174  1.00  0.00    -0.396 OA
HETATM   29  C16 UNL     1      21.589   1.149  48.604  1.00  0.00     0.201 C 
ENDBRANCH  27  28
ENDBRANCH  26  27
ENDBRANCH  19  26
ENDBRANCH   9  11
ENDBRANCH   7   9
TORSDOF 5
ENDMDL
MODEL 5
REMARK VINA RESULT:      -8.2      2.222      6.793
REMARK  5 active torsions:
REMARK  status: ('A' for Active; 'I' for Inactive)
REMARK    1  A    between atoms: C7_7  and  N1_8 
REMARK    2  A    between atoms: N1_8  and  C8_9 
REMARK    3  A    between atoms: C13_16  and  C14_17 
REMARK    4  A    between atoms: C14_17  and  C15_18 
REMARK    5  A    between atoms: C15_18  and  O1_19 
ROOT
HETATM    1  C1  UNL     1      30.393   5.445  47.849  1.00  0.00     0.018 C 
HETATM    2  C2  UNL     1      29.218   5.450  48.130  1.00  0.00    -0.078 C 
HETATM    3  C3  UNL     1      27.824   5.457  48.482  1.00  0.00     0.019 A 
HETATM    4  C4  UNL     1      27.173   6.651  48.279  1.00  0.00     0.021 A 
HETATM    5  C5  UNL     1      25.840   6.750  48.586  1.00  0.00     0.004 A 
HETATM    6  C6  UNL     1      25.217   5.641  49.085  1.00  0.00     0.029 A 
HETATM    7  C7  UNL     1      25.803   4.391  49.321  1.00  0.00     0.035 A 
HETATM    8  C22 UNL     1      27.129   4.405  48.982  1.00  0.00     0.050 A 
ENDROOT
BRANCH   7   9
HETATM    9  N1  UNL     1      25.101   3.284  49.828  1.00  0.00    -0.340 N 
HETATM   10  H5  UNL     1      25.776   2.718  50.368  1.00  0.00     0.167 HD
BRANCH   9  11
HETATM   11  C8  UNL     1      23.729   3.048  49.586  1.00  0.00     0.138 A 
HETATM   12  N2  UNL     1      22.926   3.597  48.673  1.00  0.00    -0.224 NA
HETATM   13  C9  UNL     1      21.631   3.277  48.631  1.00  0.00     0.235 A 
HETATM   14  N3  UNL     1      21.137   2.392  49.519  1.00  0.00    -0.242 NA
HETATM   15  C10 UNL     1      21.931   1.831  50.443  1.00  0.00     0.067 A 
HETATM   16  C11 UNL     1      23.260   2.149  50.501  1.00  0.00     0.026 A 
HETATM   17  C21 UNL     1      20.964   1.128  50.961  1.00  0.00     0.031 C 
HETATM   18  C12 UNL     1      23.600   1.414  51.496  1.00  0.00     0.068 C 
HETATM   19  C13 UNL     1      24.551   0.888  52.447  1.00  0.00    -0.046 C 
HETATM   20  C17 UNL     1      23.828   0.077  53.241  1.00  0.00     0.138 C 
HETATM   21  O2  UNL     1      22.599  -0.489  53.572  1.00  0.00    -0.361 OA
HETATM   22  C18 UNL     1      21.551   0.404  53.935  1.00  0.00     0.200 C 
HETATM   23  C19 UNL     1      20.206  -0.116  53.615  1.00  0.00     0.194 C 
HETATM   24  O3  UNL     1      19.846  -0.416  52.368  1.00  0.00    -0.385 OA
HETATM   25  C20 UNL     1      19.766   0.465  51.358  1.00  0.00     0.197 C 
BRANCH  19  26
HETATM   26  C14 UNL     1      25.972   0.861  52.929  1.00  0.00     0.063 C 
BRANCH  26  27
HETATM   27  C15 UNL     1      26.217   1.721  54.122  1.00  0.00     0.171 C 
BRANCH  27  28
HETATM   28  O1  UNL     1      27.427   2.371  54.155  1.00  0.00    -0.396 OA
HETATM   29  C16 UNL     1      28.454   1.745  53.498  1.00  0.00     0.201 C 
ENDBRANCH  27  28
ENDBRANCH  26  27
ENDBRANCH  19  26
ENDBRANCH   9  11
ENDBRANCH   7   9
TORSDOF 5
ENDMDL
MODEL 6
REMARK VINA RESULT:      -8.2      2.523      6.444
REMARK  5 active torsions:
REMARK  status: ('A' for Active; 'I' for Inactive)
REMARK    1  A    between atoms: C7_7  and  N1_8 
REMARK    2  A    between atoms: N1_8  and  C8_9 
REMARK    3  A    between atoms: C13_16  and  C14_17 
REMARK    4  A    between atoms: C14_17  and  C15_18 
REMARK    5  A    between atoms: C15_18  and  O1_19 
ROOT
HETATM    1  C1  UNL     1      28.771  -2.782  53.075  1.00  0.00     0.018 C 
HETATM    2  C2  UNL     1      28.594  -1.591  53.178  1.00  0.00    -0.078 C 
HETATM    3  C3  UNL     1      28.373  -0.177  53.316  1.00  0.00     0.019 A 
HETATM    4  C4  UNL     1      29.418   0.530  53.860  1.00  0.00     0.021 A 
HETATM    5  C5  UNL     1      29.297   1.887  54.029  1.00  0.00     0.004 A 
HETATM    6  C6  UNL     1      28.126   2.474  53.641  1.00  0.00     0.029 A 
HETATM    7  C7  UNL     1      27.016   1.829  53.080  1.00  0.00     0.035 A 
HETATM    8  C22 UNL     1      27.245   0.486  52.959  1.00  0.00     0.050 A 
ENDROOT
BRANCH   7   9
HETATM    9  N1  UNL     1      25.841   2.496  52.692  1.00  0.00    -0.340 N 
HETATM   10  H5  UNL     1      25.241   2.566  53.531  1.00  0.00     0.167 HD
BRANCH   9  11
HETATM   11  C8  UNL     1      25.591   2.944  51.375  1.00  0.00     0.138 A 
HETATM   12  N2  UNL     1      26.346   3.714  50.588  1.00  0.00    -0.224 NA
HETATM   13  C9  UNL     1      25.912   4.073  49.378  1.00  0.00     0.235 A 
HETATM   14  N3  UNL     1      24.704   3.651  48.953  1.00  0.00    -0.242 NA
HETATM   15  C10 UNL     1      23.935   2.876  49.732  1.00  0.00     0.067 A 
HETATM   16  C11 UNL     1      24.363   2.501  50.976  1.00  0.00     0.026 A 
HETATM   17  C21 UNL     1      22.977   2.805  48.851  1.00  0.00     0.031 C 
HETATM   18  C12 UNL     1      23.346   1.808  51.338  1.00  0.00     0.068 C 
HETATM   19  C13 UNL     1      22.608   0.988  52.271  1.00  0.00    -0.046 C 
HETATM   20  C17 UNL     1      21.441   0.733  51.652  1.00  0.00     0.138 C 
HETATM   21  O2  UNL     1      20.616   0.889  50.541  1.00  0.00    -0.361 OA
HETATM   22  C18 UNL     1      20.230   2.217  50.201  1.00  0.00     0.200 C 
HETATM   23  C19 UNL     1      19.979   2.398  48.756  1.00  0.00     0.194 C 
HETATM   24  O3  UNL     1      20.926   2.180  47.844  1.00  0.00    -0.385 OA
HETATM   25  C20 UNL     1      22.075   2.869  47.750  1.00  0.00     0.197 C 
BRANCH  19  26
HETATM   26  C14 UNL     1      22.578   0.316  53.613  1.00  0.00     0.063 C 
BRANCH  26  27
HETATM   27  C15 UNL     1      21.217   0.242  54.216  1.00  0.00     0.171 C 
BRANCH  27  28
HETATM   28  O1  UNL     1      20.834  -0.992  54.683  1.00  0.00    -0.396 OA
HETATM   29  C16 UNL     1      21.667  -2.031  54.362  1.00  0.00     0.201 C 
ENDBRANCH  27  28
ENDBRANCH  26  27
ENDBRANCH  19  26
ENDBRANCH   9  11
ENDBRANCH   7   9
TORSDOF 5
ENDMDL
MODEL 7
REMARK VINA RESULT:      -8.1      2.851      5.515
REMARK  5 active torsions:
REMARK  status: ('A' for Active; 'I' for Inactive)
REMARK    1  A    between atoms: C7_7  and  N1_8 
REMARK    2  A    between atoms: N1_8  and  C8_9 
REMARK    3  A    between atoms: C13_16  and  C14_17 
REMARK    4  A    between atoms: C14_17  and  C15_18 
REMARK    5  A    between atoms: C15_18  and  O1_19 
ROOT
HETATM    1  C1  UNL     1      22.312   6.176  46.059  1.00  0.00     0.018 C 
HETATM    2  C2  UNL     1      22.252   5.227  46.805  1.00  0.00    -0.078 C 
HETATM    3  C3  UNL     1      22.160   4.101  47.694  1.00  0.00     0.019 A 
HETATM    4  C4  UNL     1      22.186   2.869  47.085  1.00  0.00     0.021 A 
HETATM    5  C5  UNL     1      22.105   1.736  47.856  1.00  0.00     0.004 A 
HETATM    6  C6  UNL     1      22.002   1.893  49.209  1.00  0.00     0.029 A 
HETATM    7  C7  UNL     1      21.969   3.107  49.907  1.00  0.00     0.035 A 
HETATM    8  C22 UNL     1      22.055   4.166  49.045  1.00  0.00     0.050 A 
ENDROOT
BRANCH   7   9
HETATM    9  N1  UNL     1      21.872   3.198  51.306  1.00  0.00    -0.340 N 
HETATM   10  H5  UNL     1      21.707   4.193  51.535  1.00  0.00     0.167 HD
BRANCH   9  11
HETATM   11  C8  UNL     1      22.004   2.092  52.176  1.00  0.00     0.138 A 
HETATM   12  N2  UNL     1      21.059   1.422  52.839  1.00  0.00    -0.224 NA
HETATM   13  C9  UNL     1      21.388   0.424  53.661  1.00  0.00     0.235 A 
HETATM   14  N3  UNL     1      22.686   0.095  53.819  1.00  0.00    -0.242 NA
HETATM   15  C10 UNL     1      23.648   0.759  53.159  1.00  0.00     0.067 A 
HETATM   16  C11 UNL     1      23.327   1.785  52.314  1.00  0.00     0.026 A 
HETATM   17  C21 UNL     1      24.606   0.044  53.679  1.00  0.00     0.031 C 
HETATM   18  C12 UNL     1      24.509   2.109  51.935  1.00  0.00     0.068 C 
HETATM   19  C13 UNL     1      25.450   2.905  51.180  1.00  0.00    -0.046 C 
HETATM   20  C17 UNL     1      26.658   2.426  51.530  1.00  0.00     0.138 C 
HETATM   21  O2  UNL     1      27.421   1.530  52.275  1.00  0.00    -0.361 OA
HETATM   22  C18 UNL     1      27.306   1.602  53.692  1.00  0.00     0.200 C 
HETATM   23  C19 UNL     1      27.544   0.307  54.362  1.00  0.00     0.194 C 
HETATM   24  O3  UNL     1      26.790  -0.764  54.112  1.00  0.00    -0.385 OA
HETATM   25  C20 UNL     1      25.475  -0.853  54.365  1.00  0.00     0.197 C 
BRANCH  19  26
HETATM   26  C14 UNL     1      25.659   4.019  50.197  1.00  0.00     0.063 C 
BRANCH  26  27
HETATM   27  C15 UNL     1      26.783   3.776  49.247  1.00  0.00     0.171 C 
BRANCH  27  28
HETATM   28  O1  UNL     1      27.525   4.880  48.903  1.00  0.00    -0.396 OA
HETATM   29  C16 UNL     1      26.807   6.009  48.608  1.00  0.00     0.201 C 
ENDBRANCH  27  28
ENDBRANCH  26  27
ENDBRANCH  19  26
ENDBRANCH   9  11
ENDBRANCH   7   9
TORSDOF 5
ENDMDL
MODEL 8
REMARK VINA RESULT:      -8.0      2.698      7.735
REMARK  5 active torsions:
REMARK  status: ('A' for Active; 'I' for Inactive)
REMARK    1  A    between atoms: C7_7  and  N1_8 
REMARK    2  A    between atoms: N1_8  and  C8_9 
REMARK    3  A    between atoms: C13_16  and  C14_17 
REMARK    4  A    between atoms: C14_17  and  C15_18 
REMARK    5  A    between atoms: C15_18  and  O1_19 
ROOT
HETATM    1  C1  UNL     1      29.156  -2.107  53.097  1.00  0.00     0.018 C 
HETATM    2  C2  UNL     1      28.387  -1.176  53.155  1.00  0.00    -0.078 C 
HETATM    3  C3  UNL     1      27.466  -0.075  53.241  1.00  0.00     0.019 A 
HETATM    4  C4  UNL     1      28.012   1.115  53.660  1.00  0.00     0.021 A 
HETATM    5  C5  UNL     1      27.207   2.221  53.771  1.00  0.00     0.004 A 
HETATM    6  C6  UNL     1      25.886   2.082  53.453  1.00  0.00     0.029 A 
HETATM    7  C7  UNL     1      25.252   0.911  53.019  1.00  0.00     0.035 A 
HETATM    8  C22 UNL     1      26.144  -0.125  52.945  1.00  0.00     0.050 A 
ENDROOT
BRANCH   7   9
HETATM    9  N1  UNL     1      23.886   0.837  52.697  1.00  0.00    -0.340 N 
HETATM   10  H5  UNL     1      23.724   1.489  51.911  1.00  0.00     0.167 HD
BRANCH   9  11
HETATM   11  C8  UNL     1      22.962   0.014  53.379  1.00  0.00     0.138 A 
HETATM   12  N2  UNL     1      23.184  -0.890  54.336  1.00  0.00    -0.224 NA
HETATM   13  C9  UNL     1      22.176  -1.613  54.829  1.00  0.00     0.235 A 
HETATM   14  N3  UNL     1      20.928  -1.422  54.356  1.00  0.00    -0.242 NA
HETATM   15  C10 UNL     1      20.689  -0.516  53.396  1.00  0.00     0.067 A 
HETATM   16  C11 UNL     1      21.712   0.231  52.877  1.00  0.00     0.026 A 
HETATM   17  C21 UNL     1      19.412  -0.772  53.362  1.00  0.00     0.031 C 
HETATM   18  C12 UNL     1      21.044   0.920  52.025  1.00  0.00     0.068 C 
HETATM   19  C13 UNL     1      20.917   1.915  50.985  1.00  0.00    -0.046 C 
HETATM   20  C17 UNL     1      19.614   1.893  50.650  1.00  0.00     0.138 C 
HETATM   21  O2  UNL     1      18.339   1.365  50.835  1.00  0.00    -0.361 OA
HETATM   22  C18 UNL     1      18.175  -0.030  50.599  1.00  0.00     0.200 C 
HETATM   23  C19 UNL     1      17.100  -0.635  51.412  1.00  0.00     0.194 C 
HETATM   24  O3  UNL     1      17.130  -0.618  52.744  1.00  0.00    -0.385 OA
HETATM   25  C20 UNL     1      18.065  -1.216  53.500  1.00  0.00     0.197 C 
BRANCH  19  26
HETATM   26  C14 UNL     1      21.600   2.939  50.127  1.00  0.00     0.063 C 
BRANCH  26  27
HETATM   27  C15 UNL     1      22.971   2.540  49.694  1.00  0.00     0.171 C 
BRANCH  27  28
HETATM   28  O1  UNL     1      24.000   2.965  50.499  1.00  0.00    -0.396 OA
HETATM   29  C16 UNL     1      23.850   4.213  51.044  1.00  0.00     0.201 C 
ENDBRANCH  27  28
ENDBRANCH  26  27
ENDBRANCH  19  26
ENDBRANCH   9  11
ENDBRANCH   7   9
TORSDOF 5
ENDMDL
MODEL 9
REMARK VINA RESULT:      -7.4      3.264      6.261
REMARK  5 active torsions:
REMARK  status: ('A' for Active; 'I' for Inactive)
REMARK    1  A    between atoms: C7_7  and  N1_8 
REMARK    2  A    between atoms: N1_8  and  C8_9 
REMARK    3  A    between atoms: C13_16  and  C14_17 
REMARK    4  A    between atoms: C14_17  and  C15_18 
REMARK    5  A    between atoms: C15_18  and  O1_19 
ROOT
HETATM    1  C1  UNL     1      24.603  -1.291  55.405  1.00  0.00     0.018 C 
HETATM    2  C2  UNL     1      24.937  -0.531  54.527  1.00  0.00    -0.078 C 
HETATM    3  C3  UNL     1      25.345   0.384  53.495  1.00  0.00     0.019 A 
HETATM    4  C4  UNL     1      26.358  -0.065  52.681  1.00  0.00     0.021 A 
HETATM    5  C5  UNL     1      26.812   0.741  51.667  1.00  0.00     0.004 A 
HETATM    6  C6  UNL     1      26.225   1.966  51.516  1.00  0.00     0.029 A 
HETATM    7  C7  UNL     1      25.192   2.497  52.299  1.00  0.00     0.035 A 
HETATM    8  C22 UNL     1      24.819   1.614  53.275  1.00  0.00     0.050 A 
ENDROOT
BRANCH   7   9
HETATM    9  N1  UNL     1      24.624   3.764  52.083  1.00  0.00    -0.340 N 
HETATM   10  H5  UNL     1      24.294   4.110  53.000  1.00  0.00     0.167 HD
BRANCH   9  11
HETATM   11  C8  UNL     1      24.539   4.381  50.813  1.00  0.00     0.138 A 
HETATM   12  N2  UNL     1      25.254   5.393  50.318  1.00  0.00    -0.224 NA
HETATM   13  C9  UNL     1      24.991   5.874  49.101  1.00  0.00     0.235 A 
HETATM   14  N3  UNL     1      23.997   5.329  48.372  1.00  0.00    -0.242 NA
HETATM   15  C10 UNL     1      23.270   4.310  48.857  1.00  0.00     0.067 A 
HETATM   16  C11 UNL     1      23.525   3.807  50.103  1.00  0.00     0.026 A 
HETATM   17  C21 UNL     1      22.530   4.226  47.787  1.00  0.00     0.031 C 
HETATM   18  C12 UNL     1      22.622   2.897  50.140  1.00  0.00     0.068 C 
HETATM   19  C13 UNL     1      21.905   1.814  50.775  1.00  0.00    -0.046 C 
HETATM   20  C17 UNL     1      20.952   1.471  49.889  1.00  0.00     0.138 C 
HETATM   21  O2  UNL     1      20.337   1.670  48.655  1.00  0.00    -0.361 OA
HETATM   22  C18 UNL     1      19.758   2.949  48.418  1.00  0.00     0.200 C 
HETATM   23  C19 UNL     1      19.751   3.329  46.991  1.00  0.00     0.194 C 
HETATM   24  O3  UNL     1      20.876   3.438  46.286  1.00  0.00    -0.385 OA
HETATM   25  C20 UNL     1      21.857   4.321  46.534  1.00  0.00     0.197 C 
BRANCH  19  26
HETATM   26  C14 UNL     1      21.763   0.927  51.976  1.00  0.00     0.063 C 
BRANCH  26  27
HETATM   27  C15 UNL     1      20.356   0.776  52.446  1.00  0.00     0.171 C 
BRANCH  27  28
HETATM   28  O1  UNL     1      20.172  -0.039  53.537  1.00  0.00    -0.396 OA
HETATM   29  C16 UNL     1      21.123   0.063  54.519  1.00  0.00     0.201 C 
ENDBRANCH  27  28
ENDBRANCH  26  27
ENDBRANCH  19  26
ENDBRANCH   9  11
ENDBRANCH   7   9
TORSDOF 5
ENDMDL
