MODEL 1
REMARK VINA RESULT:      -8.3      0.000      0.000
REMARK  4 active torsions:
REMARK  status: ('A' for Active; 'I' for Inactive)
REMARK    1  A    between atoms: O1_2  and  C2_3 
REMARK    2  A    between atoms: C6_9  and  N3_10 
REMARK    3  A    between atoms: N3_10  and  C7_11 
REMARK    4  A    between atoms: C16_22  and  O2_23 
ROOT
HETATM    1  C2  UNL     1      20.764  -0.140  52.983  1.00  0.00     0.103 A 
HETATM    2  C3  UNL     1      20.745   0.362  51.708  1.00  0.00     0.072 A 
HETATM    3  C4  UNL     1      21.829   1.057  51.245  1.00  0.00     0.075 A 
HETATM    4  N1  UNL     1      21.831   1.565  49.980  1.00  0.00    -0.241 NA
HETATM    5  C5  UNL     1      22.917   2.257  49.531  1.00  0.00     0.235 A 
HETATM    6  N2  UNL     1      24.012   2.475  50.274  1.00  0.00    -0.224 NA
HETATM    7  C6  UNL     1      24.069   2.000  51.525  1.00  0.00     0.139 A 
HETATM    8  C14 UNL     1      22.977   1.307  51.971  1.00  0.00     0.041 A 
HETATM    9  C15 UNL     1      22.948   0.782  53.248  1.00  0.00     0.057 A 
HETATM   10  C16 UNL     1      21.882   0.074  53.762  1.00  0.00     0.102 A 
ENDROOT
BRANCH   7  11
HETATM   11  N3  UNL     1      25.229   2.220  52.344  1.00  0.00    -0.350 N 
HETATM   12  H6  UNL     1      25.263   2.836  53.164  1.00  0.00     0.163 HD
BRANCH  11  13
HETATM   13  C7  UNL     1      26.451   1.492  51.952  1.00  0.00     0.206 C 
HETATM   14  C8  UNL     1      26.386   0.061  52.228  1.00  0.00     0.019 C 
HETATM   15  C9  UNL     1      26.987  -1.022  52.679  1.00  0.00     0.001 C 
HETATM   16  C10 UNL     1      28.297  -1.312  53.226  1.00  0.00     0.017 C 
HETATM   17  C11 UNL     1      29.338  -0.563  53.455  1.00  0.00     0.087 C 
HETATM   18  N4  UNL     1      29.766   0.756  53.332  1.00  0.00    -0.374 N 
HETATM   19  C12 UNL     1      29.332   1.738  54.239  1.00  0.00     0.104 C 
HETATM   20  H12 UNL     1      30.364   1.308  52.722  1.00  0.00     0.164 HD
HETATM   21  C13 UNL     1      28.249   2.362  53.822  1.00  0.00     0.102 C 
HETATM   22  N5  UNL     1      27.598   2.084  52.612  1.00  0.00    -0.374 N 
HETATM   23  H15 UNL     1      28.333   2.543  51.993  1.00  0.00     0.161 HD
ENDBRANCH  11  13
ENDBRANCH   7  11
BRANCH  10  24
HETATM   24  O2  UNL     1      21.880  -0.442  55.050  1.00  0.00    -0.353 OA
HETATM   25  C17 UNL     1      22.809  -1.470  55.352  1.00  0.00     0.210 C 
ENDBRANCH  10  24
BRANCH   1  26
HETATM   26  O1  UNL     1      19.697  -0.851  53.503  1.00  0.00    -0.353 OA
HETATM   27  C1  UNL     1      18.419  -0.895  52.967  1.00  0.00     0.210 C 
ENDBRANCH   1  26
TORSDOF 4
ENDMDL
MODEL 2
REMARK VINA RESULT:      -8.1      1.832      3.130
REMARK  4 active torsions:
REMARK  status: ('A' for Active; 'I' for Inactive)
REMARK    1  A    between atoms: O1_2  and  C2_3 
REMARK    2  A    between atoms: C6_9  and  N3_10 
REMARK    3  A    between atoms: N3_10  and  C7_11 
REMARK    4  A    between atoms: C16_22  and  O2_23 
ROOT
HETATM    1  C2  UNL     1      20.224  -0.585  53.157  1.00  0.00     0.103 A 
HETATM    2  C3  UNL     1      20.899  -1.133  54.216  1.00  0.00     0.072 A 
HETATM    3  C4  UNL     1      22.246  -0.924  54.332  1.00  0.00     0.075 A 
HETATM    4  N1  UNL     1      22.937  -1.460  55.379  1.00  0.00    -0.241 NA
HETATM    5  C5  UNL     1      24.280  -1.245  55.482  1.00  0.00     0.235 A 
HETATM    6  N2  UNL     1      24.982  -0.521  54.598  1.00  0.00    -0.224 NA
HETATM    7  C6  UNL     1      24.359   0.031  53.549  1.00  0.00     0.139 A 
HETATM    8  C14 UNL     1      23.012  -0.188  53.450  1.00  0.00     0.041 A 
HETATM    9  C15 UNL     1      22.287   0.343  52.400  1.00  0.00     0.057 A 
HETATM   10  C16 UNL     1      20.929   0.163  52.237  1.00  0.00     0.102 A 
ENDROOT
BRANCH   7  11
HETATM   11  N3  UNL     1      25.086   0.810  52.586  1.00  0.00    -0.350 N 
HETATM   12  H6  UNL     1      24.782   1.714  52.209  1.00  0.00     0.163 HD
BRANCH  11  13
HETATM   13  C7  UNL     1      26.366   0.241  52.121  1.00  0.00     0.206 C 
HETATM   14  C8  UNL     1      26.401  -1.216  52.163  1.00  0.00     0.019 C 
HETATM   15  C9  UNL     1      27.070  -2.314  52.453  1.00  0.00     0.001 C 
HETATM   16  C10 UNL     1      28.387  -2.598  52.989  1.00  0.00     0.017 C 
HETATM   17  C11 UNL     1      29.365  -1.826  53.367  1.00  0.00     0.087 C 
HETATM   18  N4  UNL     1      29.697  -0.477  53.471  1.00  0.00    -0.374 N 
HETATM   19  C12 UNL     1      29.174   0.312  54.510  1.00  0.00     0.104 C 
HETATM   20  H12 UNL     1      30.265   0.207  52.977  1.00  0.00     0.164 HD
HETATM   21  C13 UNL     1      28.057   0.919  54.163  1.00  0.00     0.102 C 
HETATM   22  N5  UNL     1      27.453   0.796  52.904  1.00  0.00    -0.374 N 
HETATM   23  H15 UNL     1      28.164   1.399  52.390  1.00  0.00     0.161 HD
ENDBRANCH  11  13
ENDBRANCH   7  11
BRANCH  10  24
HETATM   24  O2  UNL     1      20.227   0.709  51.173  1.00  0.00    -0.353 OA
HETATM   25  C17 UNL     1      20.710   1.917  50.610  1.00  0.00     0.210 C 
ENDBRANCH  10  24
BRANCH   1  26
HETATM   26  O1  UNL     1      18.861  -0.762  52.989  1.00  0.00    -0.353 OA
HETATM   27  C1  UNL     1      18.096  -1.747  53.595  1.00  0.00     0.210 C 
ENDBRANCH   1  26
TORSDOF 4
ENDMDL
MODEL 3
REMARK VINA RESULT:      -8.1      3.984      5.877
REMARK  4 active torsions:
REMARK  status: ('A' for Active; 'I' for Inactive)
REMARK    1  A    between atoms: O1_2  and  C2_3 
REMARK    2  A    between atoms: C6_9  and  N3_10 
REMARK    3  A    between atoms: N3_10  and  C7_11 
REMARK    4  A    between atoms: C16_22  and  O2_23 
ROOT
HETATM    1  C2  UNL     1      25.570   0.065  54.150  1.00  0.00     0.103 A 
HETATM    2  C3  UNL     1      24.437   0.122  53.381  1.00  0.00     0.072 A 
HETATM    3  C4  UNL     1      24.363   1.032  52.362  1.00  0.00     0.075 A 
HETATM    4  N1  UNL     1      23.245   1.104  51.585  1.00  0.00    -0.241 NA
HETATM    5  C5  UNL     1      23.184   2.016  50.573  1.00  0.00     0.235 A 
HETATM    6  N2  UNL     1      24.179   2.868  50.286  1.00  0.00    -0.224 NA
HETATM    7  C6  UNL     1      25.303   2.845  51.014  1.00  0.00     0.139 A 
HETATM    8  C14 UNL     1      25.359   1.928  52.028  1.00  0.00     0.041 A 
HETATM    9  C15 UNL     1      26.479   1.833  52.832  1.00  0.00     0.057 A 
HETATM   10  C16 UNL     1      26.604   0.934  53.870  1.00  0.00     0.102 A 
ENDROOT
BRANCH   7  11
HETATM   11  N3  UNL     1      26.384   3.748  50.730  1.00  0.00    -0.350 N 
HETATM   12  H6  UNL     1      27.181   3.925  51.350  1.00  0.00     0.163 HD
BRANCH  11  13
HETATM   13  C7  UNL     1      26.315   4.460  49.439  1.00  0.00     0.206 C 
HETATM   14  C8  UNL     1      27.623   4.712  48.847  1.00  0.00     0.019 C 
HETATM   15  C9  UNL     1      28.429   5.547  48.221  1.00  0.00     0.001 C 
HETATM   16  C10 UNL     1      28.317   6.910  47.742  1.00  0.00     0.017 C 
HETATM   17  C11 UNL     1      27.344   7.776  47.778  1.00  0.00     0.087 C 
HETATM   18  N4  UNL     1      26.031   7.906  48.223  1.00  0.00    -0.374 N 
HETATM   19  C12 UNL     1      25.751   8.101  49.586  1.00  0.00     0.104 C 
HETATM   20  H12 UNL     1      25.092   7.904  47.832  1.00  0.00     0.164 HD
HETATM   21  C13 UNL     1      25.541   6.966  50.221  1.00  0.00     0.102 C 
HETATM   22  N5  UNL     1      25.590   5.703  49.614  1.00  0.00    -0.374 N 
HETATM   23  H15 UNL     1      24.666   5.805  49.094  1.00  0.00     0.161 HD
ENDBRANCH  11  13
ENDBRANCH   7  11
BRANCH  10  24
HETATM   24  O2  UNL     1      27.742   0.861  54.660  1.00  0.00    -0.353 OA
HETATM   25  C17 UNL     1      29.000   1.021  54.027  1.00  0.00     0.210 C 
ENDBRANCH  10  24
BRANCH   1  26
HETATM   26  O1  UNL     1      25.701  -0.835  55.193  1.00  0.00    -0.353 OA
HETATM   27  C1  UNL     1      24.687  -1.220  56.057  1.00  0.00     0.210 C 
ENDBRANCH   1  26
TORSDOF 4
ENDMDL
MODEL 4
REMARK VINA RESULT:      -8.0      2.314      3.730
REMARK  4 active torsions:
REMARK  status: ('A' for Active; 'I' for Inactive)
REMARK    1  A    between atoms: O1_2  and  C2_3 
REMARK    2  A    between atoms: C6_9  and  N3_10 
REMARK    3  A    between atoms: N3_10  and  C7_11 
REMARK    4  A    between atoms: C16_22  and  O2_23 
ROOT
HETATM    1  C2  UNL     1      20.007   0.244  51.809  1.00  0.00     0.103 A 
HETATM    2  C3  UNL     1      20.063  -0.541  52.931  1.00  0.00     0.072 A 
HETATM    3  C4  UNL     1      21.260  -0.709  53.572  1.00  0.00     0.075 A 
HETATM    4  N1  UNL     1      21.338  -1.485  54.690  1.00  0.00    -0.241 NA
HETATM    5  C5  UNL     1      22.538  -1.644  55.319  1.00  0.00     0.235 A 
HETATM    6  N2  UNL     1      23.674  -1.070  54.899  1.00  0.00    -0.224 NA
HETATM    7  C6  UNL     1      23.661  -0.295  53.806  1.00  0.00     0.139 A 
HETATM    8  C14 UNL     1      22.455  -0.139  53.178  1.00  0.00     0.041 A 
HETATM    9  C15 UNL     1      22.347   0.642  52.044  1.00  0.00     0.057 A 
HETATM   10  C16 UNL     1      21.166   0.844  51.361  1.00  0.00     0.102 A 
ENDROOT
BRANCH   7  11
HETATM   11  N3  UNL     1      24.864   0.331  53.332  1.00  0.00    -0.350 N 
HETATM   12  H6  UNL     1      24.922   0.956  52.522  1.00  0.00     0.163 HD
BRANCH  11  13
HETATM   13  C7  UNL     1      26.095   0.032  54.089  1.00  0.00     0.206 C 
HETATM   14  C8  UNL     1      27.154   1.012  53.881  1.00  0.00     0.019 C 
HETATM   15  C9  UNL     1      28.434   1.254  53.675  1.00  0.00     0.001 C 
HETATM   16  C10 UNL     1      29.620   0.434  53.533  1.00  0.00     0.017 C 
HETATM   17  C11 UNL     1      29.804  -0.856  53.565  1.00  0.00     0.087 C 
HETATM   18  N4  UNL     1      29.095  -2.043  53.733  1.00  0.00    -0.374 N 
HETATM   19  C12 UNL     1      28.310  -2.562  52.689  1.00  0.00     0.104 C 
HETATM   20  H12 UNL     1      28.942  -2.742  54.455  1.00  0.00     0.164 HD
HETATM   21  C13 UNL     1      27.059  -2.153  52.753  1.00  0.00     0.102 C 
HETATM   22  N5  UNL     1      26.561  -1.298  53.745  1.00  0.00    -0.374 N 
HETATM   23  H15 UNL     1      26.562  -2.028  54.520  1.00  0.00     0.161 HD
ENDBRANCH  11  13
ENDBRANCH   7  11
BRANCH  10  24
HETATM   24  O2  UNL     1      21.087   1.634  50.224  1.00  0.00    -0.353 OA
HETATM   25  C17 UNL     1      22.221   1.689  49.375  1.00  0.00     0.210 C 
ENDBRANCH  10  24
BRANCH   1  26
HETATM   26  O1  UNL     1      18.824   0.449  51.120  1.00  0.00    -0.353 OA
HETATM   27  C1  UNL     1      17.586  -0.065  51.473  1.00  0.00     0.210 C 
ENDBRANCH   1  26
TORSDOF 4
ENDMDL
MODEL 5
REMARK VINA RESULT:      -7.8      3.593      6.230
REMARK  4 active torsions:
REMARK  status: ('A' for Active; 'I' for Inactive)
REMARK    1  A    between atoms: O1_2  and  C2_3 
REMARK    2  A    between atoms: C6_9  and  N3_10 
REMARK    3  A    between atoms: N3_10  and  C7_11 
REMARK    4  A    between atoms: C16_22  and  O2_23 
ROOT
HETATM    1  C2  UNL     1      27.383  -0.476  53.532  1.00  0.00     0.103 A 
HETATM    2  C3  UNL     1      26.075  -0.881  53.485  1.00  0.00     0.072 A 
HETATM    3  C4  UNL     1      25.102   0.027  53.168  1.00  0.00     0.075 A 
HETATM    4  N1  UNL     1      23.795  -0.355  53.115  1.00  0.00    -0.241 NA
HETATM    5  C5  UNL     1      22.836   0.561  52.798  1.00  0.00     0.235 A 
HETATM    6  N2  UNL     1      23.103   1.847  52.527  1.00  0.00    -0.224 NA
HETATM    7  C6  UNL     1      24.370   2.283  52.563  1.00  0.00     0.139 A 
HETATM    8  C14 UNL     1      25.328   1.360  52.882  1.00  0.00     0.041 A 
HETATM    9  C15 UNL     1      26.660   1.719  52.943  1.00  0.00     0.057 A 
HETATM   10  C16 UNL     1      27.678   0.843  53.257  1.00  0.00     0.102 A 
ENDROOT
BRANCH   7  11
HETATM   11  N3  UNL     1      24.685   3.655  52.279  1.00  0.00    -0.350 N 
HETATM   12  H6  UNL     1      24.907   4.366  52.984  1.00  0.00     0.163 HD
BRANCH  11  13
HETATM   13  C7  UNL     1      24.681   4.043  50.855  1.00  0.00     0.206 C 
HETATM   14  C8  UNL     1      25.964   3.835  50.195  1.00  0.00     0.019 C 
HETATM   15  C9  UNL     1      26.887   4.288  49.370  1.00  0.00     0.001 C 
HETATM   16  C10 UNL     1      27.048   5.488  48.575  1.00  0.00     0.017 C 
HETATM   17  C11 UNL     1      26.300   6.543  48.417  1.00  0.00     0.087 C 
HETATM   18  N4  UNL     1      25.086   7.078  48.841  1.00  0.00    -0.374 N 
HETATM   19  C12 UNL     1      24.960   7.645  50.120  1.00  0.00     0.104 C 
HETATM   20  H12 UNL     1      24.144   7.206  48.480  1.00  0.00     0.164 HD
HETATM   21  C13 UNL     1      24.549   6.772  51.017  1.00  0.00     0.102 C 
HETATM   22  N5  UNL     1      24.268   5.428  50.735  1.00  0.00    -0.374 N 
HETATM   23  H15 UNL     1      23.354   5.620  50.223  1.00  0.00     0.161 HD
ENDBRANCH  11  13
ENDBRANCH   7  11
BRANCH  10  24
HETATM   24  O2  UNL     1      29.008   1.233  53.311  1.00  0.00    -0.353 OA
HETATM   25  C17 UNL     1      29.425   2.014  54.417  1.00  0.00     0.210 C 
ENDBRANCH  10  24
BRANCH   1  26
HETATM   26  O1  UNL     1      28.408  -1.352  53.847  1.00  0.00    -0.353 OA
HETATM   27  C1  UNL     1      28.767  -2.470  53.111  1.00  0.00     0.210 C 
ENDBRANCH   1  26
TORSDOF 4
ENDMDL
MODEL 6
REMARK VINA RESULT:      -7.8      1.657      2.115
REMARK  4 active torsions:
REMARK  status: ('A' for Active; 'I' for Inactive)
REMARK    1  A    between atoms: O1_2  and  C2_3 
REMARK    2  A    between atoms: C6_9  and  N3_10 
REMARK    3  A    between atoms: N3_10  and  C7_11 
REMARK    4  A    between atoms: C16_22  and  O2_23 
ROOT
HETATM    1  C2  UNL     1      20.364   2.377  52.071  1.00  0.00     0.103 A 
HETATM    2  C3  UNL     1      21.189   3.301  51.485  1.00  0.00     0.072 A 
HETATM    3  C4  UNL     1      22.537   3.074  51.455  1.00  0.00     0.075 A 
HETATM    4  N1  UNL     1      23.376   3.980  50.877  1.00  0.00    -0.241 NA
HETATM    5  C5  UNL     1      24.718   3.741  50.855  1.00  0.00     0.235 A 
HETATM    6  N2  UNL     1      25.281   2.643  51.379  1.00  0.00    -0.224 NA
HETATM    7  C6  UNL     1      24.509   1.715  51.961  1.00  0.00     0.139 A 
HETATM    8  C14 UNL     1      23.163   1.960  51.981  1.00  0.00     0.041 A 
HETATM    9  C15 UNL     1      22.291   1.059  52.560  1.00  0.00     0.057 A 
HETATM   10  C16 UNL     1      20.924   1.240  52.615  1.00  0.00     0.102 A 
ENDROOT
BRANCH   7  11
HETATM   11  N3  UNL     1      25.085   0.529  52.533  1.00  0.00    -0.350 N 
HETATM   12  H6  UNL     1      24.616  -0.090  53.201  1.00  0.00     0.163 HD
BRANCH  11  13
HETATM   13  C7  UNL     1      26.460   0.203  52.106  1.00  0.00     0.206 C 
HETATM   14  C8  UNL     1      26.840  -1.177  52.383  1.00  0.00     0.019 C 
HETATM   15  C9  UNL     1      27.754  -2.023  52.816  1.00  0.00     0.001 C 
HETATM   16  C10 UNL     1      29.104  -1.897  53.327  1.00  0.00     0.017 C 
HETATM   17  C11 UNL     1      29.874  -0.865  53.526  1.00  0.00     0.087 C 
HETATM   18  N4  UNL     1      29.877   0.521  53.392  1.00  0.00    -0.374 N 
HETATM   19  C12 UNL     1      29.190   1.331  54.312  1.00  0.00     0.104 C 
HETATM   20  H12 UNL     1      30.263   1.224  52.767  1.00  0.00     0.164 HD
HETATM   21  C13 UNL     1      27.958   1.593  53.926  1.00  0.00     0.102 C 
HETATM   22  N5  UNL     1      27.390   1.121  52.734  1.00  0.00    -0.374 N 
HETATM   23  H15 UNL     1      27.934   1.776  52.095  1.00  0.00     0.161 HD
ENDBRANCH  11  13
ENDBRANCH   7  11
BRANCH  10  24
HETATM   24  O2  UNL     1      20.073   0.318  53.204  1.00  0.00    -0.353 OA
HETATM   25  C17 UNL     1      20.646  -0.677  54.036  1.00  0.00     0.210 C 
ENDBRANCH  10  24
BRANCH   1  26
HETATM   26  O1  UNL     1      18.993   2.554  52.129  1.00  0.00    -0.353 OA
HETATM   27  C1  UNL     1      18.296   3.628  51.596  1.00  0.00     0.210 C 
ENDBRANCH   1  26
TORSDOF 4
ENDMDL
MODEL 7
REMARK VINA RESULT:      -7.7      3.746      5.058
REMARK  4 active torsions:
REMARK  status: ('A' for Active; 'I' for Inactive)
REMARK    1  A    between atoms: O1_2  and  C2_3 
REMARK    2  A    between atoms: C6_9  and  N3_10 
REMARK    3  A    between atoms: N3_10  and  C7_11 
REMARK    4  A    between atoms: C16_22  and  O2_23 
ROOT
HETATM    1  C2  UNL     1      22.594   0.195  53.097  1.00  0.00     0.103 A 
HETATM    2  C3  UNL     1      21.678   1.193  52.893  1.00  0.00     0.072 A 
HETATM    3  C4  UNL     1      22.092   2.386  52.367  1.00  0.00     0.075 A 
HETATM    4  N1  UNL     1      21.197   3.393  52.156  1.00  0.00    -0.241 NA
HETATM    5  C5  UNL     1      21.624   4.577  51.632  1.00  0.00     0.235 A 
HETATM    6  N2  UNL     1      22.900   4.822  51.302  1.00  0.00    -0.224 NA
HETATM    7  C6  UNL     1      23.826   3.872  51.486  1.00  0.00     0.139 A 
HETATM    8  C14 UNL     1      23.393   2.685  52.012  1.00  0.00     0.041 A 
HETATM    9  C15 UNL     1      24.278   1.649  52.237  1.00  0.00     0.057 A 
HETATM   10  C16 UNL     1      23.912   0.427  52.763  1.00  0.00     0.102 A 
ENDROOT
BRANCH   7  11
HETATM   11  N3  UNL     1      25.201   4.107  51.143  1.00  0.00    -0.350 N 
HETATM   12  H6  UNL     1      26.003   3.890  51.745  1.00  0.00     0.163 HD
BRANCH  11  13
HETATM   13  C7  UNL     1      25.448   4.707  49.818  1.00  0.00     0.206 C 
HETATM   14  C8  UNL     1      26.776   4.415  49.289  1.00  0.00     0.019 C 
HETATM   15  C9  UNL     1      27.856   4.848  48.670  1.00  0.00     0.001 C 
HETATM   16  C10 UNL     1      28.278   6.121  48.120  1.00  0.00     0.017 C 
HETATM   17  C11 UNL     1      27.700   7.286  48.059  1.00  0.00     0.087 C 
HETATM   18  N4  UNL     1      26.515   7.923  48.421  1.00  0.00    -0.374 N 
HETATM   19  C12 UNL     1      26.282   8.298  49.755  1.00  0.00     0.104 C 
HETATM   20  H12 UNL     1      25.658   8.244  47.979  1.00  0.00     0.164 HD
HETATM   21  C13 UNL     1      25.641   7.367  50.432  1.00  0.00     0.102 C 
HETATM   22  N5  UNL     1      25.235   6.139  49.891  1.00  0.00    -0.374 N 
HETATM   23  H15 UNL     1      24.434   6.541  49.315  1.00  0.00     0.161 HD
ENDBRANCH  11  13
ENDBRANCH   7  11
BRANCH  10  24
HETATM   24  O2  UNL     1      24.823  -0.596  52.978  1.00  0.00    -0.353 OA
HETATM   25  C17 UNL     1      26.191  -0.332  52.711  1.00  0.00     0.210 C 
ENDBRANCH  10  24
BRANCH   1  26
HETATM   26  O1  UNL     1      22.232  -1.032  53.625  1.00  0.00    -0.353 OA
HETATM   27  C1  UNL     1      22.026  -1.302  54.969  1.00  0.00     0.210 C 
ENDBRANCH   1  26
TORSDOF 4
ENDMDL
MODEL 8
REMARK VINA RESULT:      -7.5      3.164      7.315
REMARK  4 active torsions:
REMARK  status: ('A' for Active; 'I' for Inactive)
REMARK    1  A    between atoms: O1_2  and  C2_3 
REMARK    2  A    between atoms: C6_9  and  N3_10 
REMARK    3  A    between atoms: N3_10  and  C7_11 
REMARK    4  A    between atoms: C16_22  and  O2_23 
ROOT
HETATM    1  C2  UNL     1      27.111   0.755  53.318  1.00  0.00     0.103 A 
HETATM    2  C3  UNL     1      26.701   0.064  54.429  1.00  0.00     0.072 A 
HETATM    3  C4  UNL     1      25.407  -0.374  54.506  1.00  0.00     0.075 A 
HETATM    4  N1  UNL     1      24.979  -1.063  55.602  1.00  0.00    -0.241 NA
HETATM    5  C5  UNL     1      23.686  -1.493  55.666  1.00  0.00     0.235 A 
HETATM    6  N2  UNL     1      22.787  -1.276  54.696  1.00  0.00    -0.224 NA
HETATM    7  C6  UNL     1      23.148  -0.605  53.595  1.00  0.00     0.139 A 
HETATM    8  C14 UNL     1      24.446  -0.175  53.535  1.00  0.00     0.041 A 
HETATM    9  C15 UNL     1      24.906   0.525  52.437  1.00  0.00     0.057 A 
HETATM   10  C16 UNL     1      26.200   0.988  52.309  1.00  0.00     0.102 A 
ENDROOT
BRANCH   7  11
HETATM   11  N3  UNL     1      22.204  -0.357  52.540  1.00  0.00    -0.350 N 
HETATM   12  H6  UNL     1      22.282  -0.717  51.583  1.00  0.00     0.163 HD
BRANCH  11  13
HETATM   13  C7  UNL     1      21.043   0.484  52.890  1.00  0.00     0.206 C 
HETATM   14  C8  UNL     1      19.812   0.079  52.221  1.00  0.00     0.019 C 
HETATM   15  C9  UNL     1      18.715   0.432  51.581  1.00  0.00     0.001 C 
HETATM   16  C10 UNL     1      18.130   1.693  51.174  1.00  0.00     0.017 C 
HETATM   17  C11 UNL     1      18.519   2.928  51.318  1.00  0.00     0.087 C 
HETATM   18  N4  UNL     1      19.560   3.675  51.864  1.00  0.00    -0.374 N 
HETATM   19  C12 UNL     1      20.802   3.757  51.211  1.00  0.00     0.104 C 
HETATM   20  H12 UNL     1      19.735   4.250  52.683  1.00  0.00     0.164 HD
HETATM   21  C13 UNL     1      21.646   2.832  51.620  1.00  0.00     0.102 C 
HETATM   22  N5  UNL     1      21.346   1.871  52.596  1.00  0.00    -0.374 N 
HETATM   23  H15 UNL     1      21.388   2.545  53.420  1.00  0.00     0.161 HD
ENDBRANCH  11  13
ENDBRANCH   7  11
BRANCH  10  24
HETATM   24  O2  UNL     1      26.635   1.689  51.195  1.00  0.00    -0.353 OA
HETATM   25  C17 UNL     1      26.043   2.950  50.933  1.00  0.00     0.210 C 
ENDBRANCH  10  24
BRANCH   1  26
HETATM   26  O1  UNL     1      28.407   1.221  53.186  1.00  0.00    -0.353 OA
HETATM   27  C1  UNL     1      28.896   2.406  53.714  1.00  0.00     0.210 C 
ENDBRANCH   1  26
TORSDOF 4
ENDMDL
MODEL 9
REMARK VINA RESULT:      -7.5      2.285      3.384
REMARK  4 active torsions:
REMARK  status: ('A' for Active; 'I' for Inactive)
REMARK    1  A    between atoms: O1_2  and  C2_3 
REMARK    2  A    between atoms: C6_9  and  N3_10 
REMARK    3  A    between atoms: N3_10  and  C7_11 
REMARK    4  A    between atoms: C16_22  and  O2_23 
ROOT
HETATM    1  C2  UNL     1      21.620   2.453  48.822  1.00  0.00     0.103 A 
HETATM    2  C3  UNL     1      22.323   3.546  48.387  1.00  0.00     0.072 A 
HETATM    3  C4  UNL     1      23.469   3.910  49.041  1.00  0.00     0.075 A 
HETATM    4  N1  UNL     1      24.184   4.993  48.624  1.00  0.00    -0.241 NA
HETATM    5  C5  UNL     1      25.323   5.345  49.285  1.00  0.00     0.235 A 
HETATM    6  N2  UNL     1      25.799   4.676  50.345  1.00  0.00    -0.224 NA
HETATM    7  C6  UNL     1      25.140   3.602  50.801  1.00  0.00     0.139 A 
HETATM    8  C14 UNL     1      23.997   3.253  50.135  1.00  0.00     0.041 A 
HETATM    9  C15 UNL     1      23.253   2.160  50.535  1.00  0.00     0.057 A 
HETATM   10  C16 UNL     1      22.093   1.752  49.911  1.00  0.00     0.102 A 
ENDROOT
BRANCH   7  11
HETATM   11  N3  UNL     1      25.626   2.867  51.936  1.00  0.00    -0.350 N 
HETATM   12  H6  UNL     1      25.242   2.928  52.885  1.00  0.00     0.163 HD
BRANCH  11  13
HETATM   13  C7  UNL     1      26.765   1.963  51.688  1.00  0.00     0.206 C 
HETATM   14  C8  UNL     1      26.441   0.555  51.885  1.00  0.00     0.019 C 
HETATM   15  C9  UNL     1      26.795  -0.620  52.364  1.00  0.00     0.001 C 
HETATM   16  C10 UNL     1      27.949  -1.128  53.078  1.00  0.00     0.017 C 
HETATM   17  C11 UNL     1      29.048  -0.560  53.487  1.00  0.00     0.087 C 
HETATM   18  N4  UNL     1      29.687   0.678  53.489  1.00  0.00    -0.374 N 
HETATM   19  C12 UNL     1      29.280   1.693  54.371  1.00  0.00     0.104 C 
HETATM   20  H12 UNL     1      30.446   1.142  52.997  1.00  0.00     0.164 HD
HETATM   21  C13 UNL     1      28.379   2.491  53.834  1.00  0.00     0.102 C 
HETATM   22  N5  UNL     1      27.879   2.350  52.532  1.00  0.00    -0.374 N 
HETATM   23  H15 UNL     1      28.759   2.701  52.045  1.00  0.00     0.161 HD
ENDBRANCH  11  13
ENDBRANCH   7  11
BRANCH  10  24
HETATM   24  O2  UNL     1      21.366   0.649  50.336  1.00  0.00    -0.353 OA
HETATM   25  C17 UNL     1      20.627   0.767  51.540  1.00  0.00     0.210 C 
ENDBRANCH  10  24
BRANCH   1  26
HETATM   26  O1  UNL     1      20.455   2.039  48.200  1.00  0.00    -0.353 OA
HETATM   27  C1  UNL     1      19.398   2.861  47.839  1.00  0.00     0.210 C 
ENDBRANCH   1  26
TORSDOF 4
ENDMDL
