MODEL 1
REMARK VINA RESULT:      -8.9      0.000      0.000
REMARK  8 active torsions:
REMARK  status: ('A' for Active; 'I' for Inactive)
REMARK    1  A    between atoms: O1_2  and  C2_3 
REMARK    2  A    between atoms: C7_8  and  N1_9 
REMARK    3  A    between atoms: N1_9  and  C8_10 
REMARK    4  A    between atoms: C9_11  and  C10_12 
REMARK    5  A    between atoms: C10_12  and  N2_13 
REMARK    6  A    between atoms: N2_13  and  C11_14 
REMARK    7  A    between atoms: C14_17  and  N3_18 
REMARK    8  A    between atoms: N3_18  and  C15_19 
ROOT
HETATM    1  C10 UNL     1      25.211   2.274  51.530  1.00  0.00     0.158 C 
ENDROOT
BRANCH   1   2
HETATM    2  C9  UNL     1      24.114   1.362  51.918  1.00  0.00    -0.018 A 
HETATM    3  C8  UNL     1      24.352   0.530  52.937  1.00  0.00     0.039 A 
HETATM    4  C25 UNL     1      23.450  -0.440  53.535  1.00  0.00     0.046 A 
HETATM    5  C24 UNL     1      22.227  -0.559  53.057  1.00  0.00     0.085 A 
HETATM    6  N5  UNL     1      21.956   0.317  51.980  1.00  0.00    -0.395 N 
HETATM    7  C23 UNL     1      22.784   1.262  51.278  1.00  0.00     0.157 A 
HETATM    8  H31 UNL     1      20.981   0.334  51.560  1.00  0.00     0.159 HD
BRANCH   3   9
HETATM    9  N1  UNL     1      25.633   0.544  53.606  1.00  0.00    -0.354 N 
HETATM   10  H8  UNL     1      26.009   1.163  54.385  1.00  0.00     0.166 HD
BRANCH   9  11
HETATM   11  C7  UNL     1      26.841  -0.228  53.494  1.00  0.00     0.066 A 
HETATM   12  C2  UNL     1      28.098   0.145  53.922  1.00  0.00     0.094 A 
HETATM   13  C3  UNL     1      29.158  -0.730  53.733  1.00  0.00     0.039 A 
HETATM   14  C4  UNL     1      28.987  -1.958  53.127  1.00  0.00     0.003 A 
HETATM   15  C5  UNL     1      27.750  -2.375  52.683  1.00  0.00     0.002 A 
HETATM   16  C6  UNL     1      26.714  -1.465  52.894  1.00  0.00     0.032 A 
BRANCH  12  17
HETATM   17  O1  UNL     1      28.192   1.393  54.521  1.00  0.00    -0.354 OA
HETATM   18  C1  UNL     1      28.691   2.454  53.716  1.00  0.00     0.210 C 
ENDBRANCH  12  17
ENDBRANCH   9  11
ENDBRANCH   3   9
ENDBRANCH   1   2
BRANCH   1  19
HETATM   19  N2  UNL     1      24.867   3.281  50.578  1.00  0.00    -0.386 N 
HETATM   20  H11 UNL     1      23.826   3.358  50.354  1.00  0.00     0.160 HD
BRANCH  19  21
HETATM   21  C11 UNL     1      25.677   4.207  49.873  1.00  0.00     0.028 A 
HETATM   22  C12 UNL     1      26.909   3.932  49.320  1.00  0.00     0.031 A 
HETATM   23  C13 UNL     1      27.704   4.827  48.645  1.00  0.00     0.031 A 
HETATM   24  C14 UNL     1      27.268   6.104  48.492  1.00  0.00     0.028 A 
HETATM   25  C21 UNL     1      26.043   6.440  49.023  1.00  0.00     0.031 A 
HETATM   26  C22 UNL     1      25.280   5.513  49.690  1.00  0.00     0.031 A 
BRANCH  24  27
HETATM   27  N3  UNL     1      28.072   7.047  47.800  1.00  0.00    -0.384 N 
HETATM   28  H14 UNL     1      28.094   7.069  46.766  1.00  0.00     0.160 HD
BRANCH  27  29
HETATM   29  C15 UNL     1      28.906   8.029  48.464  1.00  0.00     0.110 C 
HETATM   30  C16 UNL     1      28.750   9.413  47.908  1.00  0.00     0.028 C 
HETATM   31  C17 UNL     1      30.039   9.886  47.234  1.00  0.00     0.032 C 
HETATM   32  C18 UNL     1      30.595   8.691  46.496  1.00  0.00     0.272 C 
HETATM   33  N4  UNL     1      31.138   7.772  47.456  1.00  0.00     0.086 N 
HETATM   34  C19 UNL     1      32.429   8.270  47.893  1.00  0.00     0.310 C 
HETATM   35  C20 UNL     1      30.315   7.589  48.622  1.00  0.00     0.296 C 
ENDBRANCH  27  29
ENDBRANCH  24  27
ENDBRANCH  19  21
ENDBRANCH   1  19
TORSDOF 8
ENDMDL
MODEL 2
REMARK VINA RESULT:      -8.8      1.657      2.943
REMARK  8 active torsions:
REMARK  status: ('A' for Active; 'I' for Inactive)
REMARK    1  A    between atoms: O1_2  and  C2_3 
REMARK    2  A    between atoms: C7_8  and  N1_9 
REMARK    3  A    between atoms: N1_9  and  C8_10 
REMARK    4  A    between atoms: C9_11  and  C10_12 
REMARK    5  A    between atoms: C10_12  and  N2_13 
REMARK    6  A    between atoms: N2_13  and  C11_14 
REMARK    7  A    between atoms: C14_17  and  N3_18 
REMARK    8  A    between atoms: N3_18  and  C15_19 
ROOT
HETATM    1  C10 UNL     1      22.760   1.018  51.639  1.00  0.00     0.158 C 
ENDROOT
BRANCH   1   2
HETATM    2  C9  UNL     1      22.732   0.252  52.902  1.00  0.00    -0.018 A 
HETATM    3  C8  UNL     1      23.907  -0.177  53.376  1.00  0.00     0.039 A 
HETATM    4  C25 UNL     1      24.168  -0.919  54.597  1.00  0.00     0.046 A 
HETATM    5  C24 UNL     1      23.158  -1.239  55.382  1.00  0.00     0.085 A 
HETATM    6  N5  UNL     1      21.906  -0.789  54.899  1.00  0.00    -0.395 N 
HETATM    7  C23 UNL     1      21.531  -0.108  53.689  1.00  0.00     0.157 A 
HETATM    8  H31 UNL     1      21.038  -0.952  55.487  1.00  0.00     0.159 HD
BRANCH   3   9
HETATM    9  N1  UNL     1      25.129   0.110  52.659  1.00  0.00    -0.354 N 
HETATM   10  H8  UNL     1      25.332   0.167  51.617  1.00  0.00     0.166 HD
BRANCH   9  11
HETATM   11  C7  UNL     1      26.479   0.419  53.045  1.00  0.00     0.066 A 
HETATM   12  C2  UNL     1      27.489  -0.484  53.301  1.00  0.00     0.094 A 
HETATM   13  C3  UNL     1      28.741  -0.007  53.665  1.00  0.00     0.039 A 
HETATM   14  C4  UNL     1      28.997   1.344  53.777  1.00  0.00     0.003 A 
HETATM   15  C5  UNL     1      28.021   2.285  53.531  1.00  0.00     0.002 A 
HETATM   16  C6  UNL     1      26.780   1.761  53.169  1.00  0.00     0.032 A 
BRANCH  12  17
HETATM   17  O1  UNL     1      27.155  -1.824  53.168  1.00  0.00    -0.354 OA
HETATM   18  C1  UNL     1      28.223  -2.730  52.920  1.00  0.00     0.210 C 
ENDBRANCH  12  17
ENDBRANCH   9  11
ENDBRANCH   3   9
ENDBRANCH   1   2
BRANCH   1  19
HETATM   19  N2  UNL     1      22.814   2.438  51.782  1.00  0.00    -0.386 N 
HETATM   20  H11 UNL     1      22.048   2.863  52.392  1.00  0.00     0.160 HD
BRANCH  19  21
HETATM   21  C11 UNL     1      23.720   3.390  51.248  1.00  0.00     0.028 A 
HETATM   22  C12 UNL     1      24.834   3.097  50.494  1.00  0.00     0.031 A 
HETATM   23  C13 UNL     1      25.722   4.013  49.983  1.00  0.00     0.031 A 
HETATM   24  C14 UNL     1      25.513   5.333  50.226  1.00  0.00     0.028 A 
HETATM   25  C21 UNL     1      24.414   5.689  50.975  1.00  0.00     0.031 A 
HETATM   26  C22 UNL     1      23.551   4.740  51.466  1.00  0.00     0.031 A 
BRANCH  24  27
HETATM   27  N3  UNL     1      26.416   6.299  49.711  1.00  0.00    -0.384 N 
HETATM   28  H14 UNL     1      26.731   7.094  50.292  1.00  0.00     0.160 HD
BRANCH  27  29
HETATM   29  C15 UNL     1      26.957   6.254  48.367  1.00  0.00     0.110 C 
HETATM   30  C16 UNL     1      28.353   5.711  48.306  1.00  0.00     0.028 C 
HETATM   31  C17 UNL     1      29.344   6.786  47.858  1.00  0.00     0.032 C 
HETATM   32  C18 UNL     1      28.919   8.066  48.536  1.00  0.00     0.272 C 
HETATM   33  N4  UNL     1      27.725   8.547  47.900  1.00  0.00     0.086 N 
HETATM   34  C19 UNL     1      28.092   9.178  46.647  1.00  0.00     0.310 C 
HETATM   35  C20 UNL     1      26.760   7.520  47.615  1.00  0.00     0.296 C 
ENDBRANCH  27  29
ENDBRANCH  24  27
ENDBRANCH  19  21
ENDBRANCH   1  19
TORSDOF 8
ENDMDL
MODEL 3
REMARK VINA RESULT:      -8.6      1.144      1.942
REMARK  8 active torsions:
REMARK  status: ('A' for Active; 'I' for Inactive)
REMARK    1  A    between atoms: O1_2  and  C2_3 
REMARK    2  A    between atoms: C7_8  and  N1_9 
REMARK    3  A    between atoms: N1_9  and  C8_10 
REMARK    4  A    between atoms: C9_11  and  C10_12 
REMARK    5  A    between atoms: C10_12  and  N2_13 
REMARK    6  A    between atoms: N2_13  and  C11_14 
REMARK    7  A    between atoms: C14_17  and  N3_18 
REMARK    8  A    between atoms: N3_18  and  C15_19 
ROOT
HETATM    1  C10 UNL     1      24.488   2.641  50.195  1.00  0.00     0.158 C 
ENDROOT
BRANCH   1   2
HETATM    2  C9  UNL     1      23.647   2.049  51.255  1.00  0.00    -0.018 A 
HETATM    3  C8  UNL     1      24.234   1.168  52.074  1.00  0.00     0.039 A 
HETATM    4  C25 UNL     1      23.654   0.466  53.205  1.00  0.00     0.046 A 
HETATM    5  C24 UNL     1      22.391   0.683  53.516  1.00  0.00     0.085 A 
HETATM    6  N5  UNL     1      21.754   1.615  52.663  1.00  0.00    -0.395 N 
HETATM    7  C23 UNL     1      22.211   2.315  51.492  1.00  0.00     0.157 A 
HETATM    8  H31 UNL     1      20.750   1.897  52.864  1.00  0.00     0.159 HD
BRANCH   3   9
HETATM    9  N1  UNL     1      25.629   0.832  51.900  1.00  0.00    -0.354 N 
HETATM   10  H8  UNL     1      26.155   0.436  51.064  1.00  0.00     0.166 HD
BRANCH   9  11
HETATM   11  C7  UNL     1      26.797   0.897  52.735  1.00  0.00     0.066 A 
HETATM   12  C2  UNL     1      27.327  -0.129  53.490  1.00  0.00     0.094 A 
HETATM   13  C3  UNL     1      28.467   0.112  54.243  1.00  0.00     0.039 A 
HETATM   14  C4  UNL     1      29.080   1.348  54.258  1.00  0.00     0.003 A 
HETATM   15  C5  UNL     1      28.588   2.404  53.521  1.00  0.00     0.002 A 
HETATM   16  C6  UNL     1      27.442   2.117  52.779  1.00  0.00     0.032 A 
BRANCH  12  17
HETATM   17  O1  UNL     1      26.657  -1.341  53.425  1.00  0.00    -0.354 OA
HETATM   18  C1  UNL     1      27.176  -2.314  52.527  1.00  0.00     0.210 C 
ENDBRANCH  12  17
ENDBRANCH   9  11
ENDBRANCH   3   9
ENDBRANCH   1   2
BRANCH   1  19
HETATM   19  N2  UNL     1      24.958   3.965  50.450  1.00  0.00    -0.386 N 
HETATM   20  H11 UNL     1      24.539   4.438  51.309  1.00  0.00     0.160 HD
BRANCH  19  21
HETATM   21  C11 UNL     1      25.896   4.767  49.751  1.00  0.00     0.028 A 
HETATM   22  C12 UNL     1      27.052   4.310  49.157  1.00  0.00     0.031 A 
HETATM   23  C13 UNL     1      27.971   5.083  48.488  1.00  0.00     0.031 A 
HETATM   24  C14 UNL     1      27.751   6.419  48.385  1.00  0.00     0.028 A 
HETATM   25  C21 UNL     1      26.611   6.936  48.958  1.00  0.00     0.031 A 
HETATM   26  C22 UNL     1      25.719   6.126  49.618  1.00  0.00     0.031 A 
BRANCH  24  27
HETATM   27  N3  UNL     1      28.686   7.238  47.700  1.00  0.00    -0.384 N 
HETATM   28  H14 UNL     1      28.789   7.181  46.672  1.00  0.00     0.160 HD
BRANCH  27  29
HETATM   29  C15 UNL     1      29.549   8.196  48.362  1.00  0.00     0.110 C 
HETATM   30  C16 UNL     1      29.833   9.412  47.533  1.00  0.00     0.028 C 
HETATM   31  C17 UNL     1      31.311   9.485  47.148  1.00  0.00     0.032 C 
HETATM   32  C18 UNL     1      31.736   8.073  46.825  1.00  0.00     0.272 C 
HETATM   33  N4  UNL     1      31.834   7.332  48.052  1.00  0.00     0.086 N 
HETATM   34  C19 UNL     1      33.073   7.695  48.712  1.00  0.00     0.310 C 
HETATM   35  C20 UNL     1      30.754   7.575  48.969  1.00  0.00     0.296 C 
ENDBRANCH  27  29
ENDBRANCH  24  27
ENDBRANCH  19  21
ENDBRANCH   1  19
TORSDOF 8
ENDMDL
MODEL 4
REMARK VINA RESULT:      -8.4      2.164      3.565
REMARK  8 active torsions:
REMARK  status: ('A' for Active; 'I' for Inactive)
REMARK    1  A    between atoms: O1_2  and  C2_3 
REMARK    2  A    between atoms: C7_8  and  N1_9 
REMARK    3  A    between atoms: N1_9  and  C8_10 
REMARK    4  A    between atoms: C9_11  and  C10_12 
REMARK    5  A    between atoms: C10_12  and  N2_13 
REMARK    6  A    between atoms: N2_13  and  C11_14 
REMARK    7  A    between atoms: C14_17  and  N3_18 
REMARK    8  A    between atoms: N3_18  and  C15_19 
ROOT
HETATM    1  C10 UNL     1      24.371   4.612  50.070  1.00  0.00     0.158 C 
ENDROOT
BRANCH   1   2
HETATM    2  C9  UNL     1      23.413   3.639  49.503  1.00  0.00    -0.018 A 
HETATM    3  C8  UNL     1      23.161   2.545  50.230  1.00  0.00     0.039 A 
HETATM    4  C25 UNL     1      22.251   1.454  49.927  1.00  0.00     0.046 A 
HETATM    5  C24 UNL     1      21.555   1.491  48.807  1.00  0.00     0.085 A 
HETATM    6  N5  UNL     1      21.806   2.644  48.027  1.00  0.00    -0.395 N 
HETATM    7  C23 UNL     1      22.719   3.742  48.200  1.00  0.00     0.157 A 
HETATM    8  H31 UNL     1      21.255   2.792  47.132  1.00  0.00     0.159 HD
BRANCH   3   9
HETATM    9  N1  UNL     1      23.813   2.352  51.505  1.00  0.00    -0.354 N 
HETATM   10  H8  UNL     1      23.882   2.982  52.359  1.00  0.00     0.166 HD
BRANCH   9  11
HETATM   11  C7  UNL     1      24.583   1.292  52.097  1.00  0.00     0.066 A 
HETATM   12  C2  UNL     1      24.133   0.355  53.004  1.00  0.00     0.094 A 
HETATM   13  C3  UNL     1      25.020  -0.603  53.476  1.00  0.00     0.039 A 
HETATM   14  C4  UNL     1      26.336  -0.639  53.063  1.00  0.00     0.003 A 
HETATM   15  C5  UNL     1      26.832   0.275  52.159  1.00  0.00     0.002 A 
HETATM   16  C6  UNL     1      25.907   1.218  51.711  1.00  0.00     0.032 A 
BRANCH  12  17
HETATM   17  O1  UNL     1      22.799   0.456  53.371  1.00  0.00    -0.354 OA
HETATM   18  C1  UNL     1      22.039  -0.746  53.365  1.00  0.00     0.210 C 
ENDBRANCH  12  17
ENDBRANCH   9  11
ENDBRANCH   3   9
ENDBRANCH   1   2
BRANCH   1  19
HETATM   19  N2  UNL     1      24.955   5.518  49.133  1.00  0.00    -0.386 N 
HETATM   20  H11 UNL     1      24.260   6.100  48.570  1.00  0.00     0.160 HD
BRANCH  19  21
HETATM   21  C11 UNL     1      26.313   5.781  48.820  1.00  0.00     0.028 A 
HETATM   22  C12 UNL     1      27.304   4.832  48.701  1.00  0.00     0.031 A 
HETATM   23  C13 UNL     1      28.624   5.081  48.409  1.00  0.00     0.031 A 
HETATM   24  C14 UNL     1      29.020   6.366  48.216  1.00  0.00     0.028 A 
HETATM   25  C21 UNL     1      28.073   7.361  48.321  1.00  0.00     0.031 A 
HETATM   26  C22 UNL     1      26.764   7.066  48.614  1.00  0.00     0.031 A 
BRANCH  24  27
HETATM   27  N3  UNL     1      30.378   6.649  47.915  1.00  0.00    -0.384 N 
HETATM   28  H14 UNL     1      30.682   6.812  46.939  1.00  0.00     0.160 HD
BRANCH  27  29
HETATM   29  C15 UNL     1      31.421   6.731  48.917  1.00  0.00     0.110 C 
HETATM   30  C16 UNL     1      32.074   8.079  48.986  1.00  0.00     0.028 C 
HETATM   31  C17 UNL     1      33.540   8.005  48.555  1.00  0.00     0.032 C 
HETATM   32  C18 UNL     1      33.590   7.053  47.383  1.00  0.00     0.272 C 
HETATM   33  N4  UNL     1      33.406   5.715  47.871  1.00  0.00     0.086 N 
HETATM   34  C19 UNL     1      34.651   5.264  48.462  1.00  0.00     0.310 C 
HETATM   35  C20 UNL     1      32.373   5.593  48.864  1.00  0.00     0.296 C 
ENDBRANCH  27  29
ENDBRANCH  24  27
ENDBRANCH  19  21
ENDBRANCH   1  19
TORSDOF 8
ENDMDL
MODEL 5
REMARK VINA RESULT:      -8.3      1.987      4.390
REMARK  8 active torsions:
REMARK  status: ('A' for Active; 'I' for Inactive)
REMARK    1  A    between atoms: O1_2  and  C2_3 
REMARK    2  A    between atoms: C7_8  and  N1_9 
REMARK    3  A    between atoms: N1_9  and  C8_10 
REMARK    4  A    between atoms: C9_11  and  C10_12 
REMARK    5  A    between atoms: C10_12  and  N2_13 
REMARK    6  A    between atoms: N2_13  and  C11_14 
REMARK    7  A    between atoms: C14_17  and  N3_18 
REMARK    8  A    between atoms: N3_18  and  C15_19 
ROOT
HETATM    1  C10 UNL     1      24.655   3.178  51.291  1.00  0.00     0.158 C 
ENDROOT
BRANCH   1   2
HETATM    2  C9  UNL     1      25.252   1.923  51.795  1.00  0.00    -0.018 A 
HETATM    3  C8  UNL     1      24.469   1.139  52.544  1.00  0.00     0.039 A 
HETATM    4  C25 UNL     1      24.788  -0.148  53.137  1.00  0.00     0.046 A 
HETATM    5  C24 UNL     1      25.987  -0.663  52.945  1.00  0.00     0.085 A 
HETATM    6  N5  UNL     1      26.828   0.151  52.151  1.00  0.00    -0.395 N 
HETATM    7  C23 UNL     1      26.637   1.454  51.572  1.00  0.00     0.157 A 
HETATM    8  H31 UNL     1      27.797  -0.202  51.896  1.00  0.00     0.159 HD
BRANCH   3   9
HETATM    9  N1  UNL     1      23.108   1.532  52.832  1.00  0.00    -0.354 N 
HETATM   10  H8  UNL     1      22.718   2.323  53.427  1.00  0.00     0.166 HD
BRANCH   9  11
HETATM   11  C7  UNL     1      21.811   1.042  52.449  1.00  0.00     0.066 A 
HETATM   12  C2  UNL     1      20.923   0.353  53.249  1.00  0.00     0.094 A 
HETATM   13  C3  UNL     1      19.708  -0.047  52.711  1.00  0.00     0.039 A 
HETATM   14  C4  UNL     1      19.368   0.224  51.401  1.00  0.00     0.003 A 
HETATM   15  C5  UNL     1      20.222   0.909  50.564  1.00  0.00     0.002 A 
HETATM   16  C6  UNL     1      21.431   1.293  51.146  1.00  0.00     0.032 A 
BRANCH  12  17
HETATM   17  O1  UNL     1      21.334   0.117  54.552  1.00  0.00    -0.354 OA
HETATM   18  C1  UNL     1      21.729  -1.212  54.870  1.00  0.00     0.210 C 
ENDBRANCH  12  17
ENDBRANCH   9  11
ENDBRANCH   3   9
ENDBRANCH   1   2
BRANCH   1  19
HETATM   19  N2  UNL     1      25.001   3.529  49.950  1.00  0.00    -0.386 N 
HETATM   20  H11 UNL     1      24.519   2.953  49.192  1.00  0.00     0.160 HD
BRANCH  19  21
HETATM   21  C11 UNL     1      25.880   4.522  49.449  1.00  0.00     0.028 A 
HETATM   22  C12 UNL     1      25.582   5.860  49.315  1.00  0.00     0.031 A 
HETATM   23  C13 UNL     1      26.426   6.826  48.821  1.00  0.00     0.031 A 
HETATM   24  C14 UNL     1      27.671   6.462  48.418  1.00  0.00     0.028 A 
HETATM   25  C21 UNL     1      28.028   5.137  48.527  1.00  0.00     0.031 A 
HETATM   26  C22 UNL     1      27.153   4.205  49.029  1.00  0.00     0.031 A 
BRANCH  24  27
HETATM   27  N3  UNL     1      28.560   7.441  47.902  1.00  0.00    -0.384 N 
HETATM   28  H14 UNL     1      28.425   7.834  46.954  1.00  0.00     0.160 HD
BRANCH  27  29
HETATM   29  C15 UNL     1      29.698   7.956  48.635  1.00  0.00     0.110 C 
HETATM   30  C16 UNL     1      29.423   9.263  49.318  1.00  0.00     0.028 C 
HETATM   31  C17 UNL     1      30.262  10.389  48.712  1.00  0.00     0.032 C 
HETATM   32  C18 UNL     1      30.277  10.153  47.221  1.00  0.00     0.272 C 
HETATM   33  N4  UNL     1      31.129   9.030  46.943  1.00  0.00     0.086 N 
HETATM   34  C19 UNL     1      32.510   9.468  47.021  1.00  0.00     0.310 C 
HETATM   35  C20 UNL     1      30.960   7.929  47.853  1.00  0.00     0.296 C 
ENDBRANCH  27  29
ENDBRANCH  24  27
ENDBRANCH  19  21
ENDBRANCH   1  19
TORSDOF 8
ENDMDL
MODEL 6
REMARK VINA RESULT:      -8.2      3.031      9.503
REMARK  8 active torsions:
REMARK  status: ('A' for Active; 'I' for Inactive)
REMARK    1  A    between atoms: O1_2  and  C2_3 
REMARK    2  A    between atoms: C7_8  and  N1_9 
REMARK    3  A    between atoms: N1_9  and  C8_10 
REMARK    4  A    between atoms: C9_11  and  C10_12 
REMARK    5  A    between atoms: C10_12  and  N2_13 
REMARK    6  A    between atoms: N2_13  and  C11_14 
REMARK    7  A    between atoms: C14_17  and  N3_18 
REMARK    8  A    between atoms: N3_18  and  C15_19 
ROOT
HETATM    1  C10 UNL     1      28.861   6.675  47.796  1.00  0.00     0.158 C 
ENDROOT
BRANCH   1   2
HETATM    2  C9  UNL     1      29.193   7.949  48.467  1.00  0.00    -0.018 A 
HETATM    3  C8  UNL     1      30.470   8.345  48.416  1.00  0.00     0.039 A 
HETATM    4  C25 UNL     1      31.059   9.556  48.960  1.00  0.00     0.046 A 
HETATM    5  C24 UNL     1      30.286  10.415  49.596  1.00  0.00     0.085 A 
HETATM    6  N5  UNL     1      28.931  10.015  49.656  1.00  0.00    -0.395 N 
HETATM    7  C23 UNL     1      28.259   8.823  49.210  1.00  0.00     0.157 A 
HETATM    8  H31 UNL     1      28.220  10.665  50.102  1.00  0.00     0.159 HD
BRANCH   3   9
HETATM    9  N1  UNL     1      31.454   7.539  47.729  1.00  0.00    -0.354 N 
HETATM   10  H8  UNL     1      31.449   7.101  46.760  1.00  0.00     0.166 HD
BRANCH   9  11
HETATM   11  C7  UNL     1      32.761   7.039  48.061  1.00  0.00     0.066 A 
HETATM   12  C2  UNL     1      33.082   5.744  48.412  1.00  0.00     0.094 A 
HETATM   13  C3  UNL     1      34.403   5.435  48.702  1.00  0.00     0.039 A 
HETATM   14  C4  UNL     1      35.400   6.388  48.650  1.00  0.00     0.003 A 
HETATM   15  C5  UNL     1      35.129   7.694  48.305  1.00  0.00     0.002 A 
HETATM   16  C6  UNL     1      33.789   7.960  48.021  1.00  0.00     0.032 A 
BRANCH  12  17
HETATM   17  O1  UNL     1      32.028   4.843  48.442  1.00  0.00    -0.354 OA
HETATM   18  C1  UNL     1      31.859   4.013  47.299  1.00  0.00     0.210 C 
ENDBRANCH  12  17
ENDBRANCH   9  11
ENDBRANCH   3   9
ENDBRANCH   1   2
BRANCH   1  19
HETATM   19  N2  UNL     1      28.417   5.624  48.655  1.00  0.00    -0.386 N 
HETATM   20  H11 UNL     1      29.187   5.125  49.198  1.00  0.00     0.160 HD
BRANCH  19  21
HETATM   21  C11 UNL     1      27.114   5.126  48.914  1.00  0.00     0.028 A 
HETATM   22  C12 UNL     1      25.948   5.852  48.818  1.00  0.00     0.031 A 
HETATM   23  C13 UNL     1      24.683   5.379  49.078  1.00  0.00     0.031 A 
HETATM   24  C14 UNL     1      24.536   4.086  49.466  1.00  0.00     0.028 A 
HETATM   25  C21 UNL     1      25.667   3.309  49.579  1.00  0.00     0.031 A 
HETATM   26  C22 UNL     1      26.911   3.822  49.309  1.00  0.00     0.031 A 
BRANCH  24  27
HETATM   27  N3  UNL     1      23.241   3.574  49.742  1.00  0.00    -0.384 N 
HETATM   28  H14 UNL     1      22.626   3.247  48.977  1.00  0.00     0.160 HD
BRANCH  27  29
HETATM   29  C15 UNL     1      22.687   3.471  51.077  1.00  0.00     0.110 C 
HETATM   30  C16 UNL     1      23.691   3.734  52.159  1.00  0.00     0.028 C 
HETATM   31  C17 UNL     1      23.953   2.475  52.987  1.00  0.00     0.032 C 
HETATM   32  C18 UNL     1      23.982   1.323  52.012  1.00  0.00     0.272 C 
HETATM   33  N4  UNL     1      22.639   1.059  51.575  1.00  0.00     0.086 N 
HETATM   34  C19 UNL     1      21.948   0.330  52.621  1.00  0.00     0.310 C 
HETATM   35  C20 UNL     1      21.877   2.243  51.280  1.00  0.00     0.296 C 
ENDBRANCH  27  29
ENDBRANCH  24  27
ENDBRANCH  19  21
ENDBRANCH   1  19
TORSDOF 8
ENDMDL
MODEL 7
REMARK VINA RESULT:      -8.1      2.156      3.503
REMARK  8 active torsions:
REMARK  status: ('A' for Active; 'I' for Inactive)
REMARK    1  A    between atoms: O1_2  and  C2_3 
REMARK    2  A    between atoms: C7_8  and  N1_9 
REMARK    3  A    between atoms: N1_9  and  C8_10 
REMARK    4  A    between atoms: C9_11  and  C10_12 
REMARK    5  A    between atoms: C10_12  and  N2_13 
REMARK    6  A    between atoms: N2_13  and  C11_14 
REMARK    7  A    between atoms: C14_17  and  N3_18 
REMARK    8  A    between atoms: N3_18  and  C15_19 
ROOT
HETATM    1  C10 UNL     1      21.668   4.611  51.958  1.00  0.00     0.158 C 
ENDROOT
BRANCH   1   2
HETATM    2  C9  UNL     1      21.206   3.429  51.201  1.00  0.00    -0.018 A 
HETATM    3  C8  UNL     1      21.968   2.331  51.270  1.00  0.00     0.039 A 
HETATM    4  C25 UNL     1      21.737   1.036  50.655  1.00  0.00     0.046 A 
HETATM    5  C24 UNL     1      20.654   0.857  49.923  1.00  0.00     0.085 A 
HETATM    6  N5  UNL     1      19.834   2.006  49.842  1.00  0.00    -0.395 N 
HETATM    7  C23 UNL     1      19.996   3.341  50.355  1.00  0.00     0.157 A 
HETATM    8  H31 UNL     1      18.912   1.947  49.319  1.00  0.00     0.159 HD
BRANCH   3   9
HETATM    9  N1  UNL     1      23.181   2.336  52.056  1.00  0.00    -0.354 N 
HETATM   10  H8  UNL     1      23.641   3.104  52.630  1.00  0.00     0.166 HD
BRANCH   9  11
HETATM   11  C7  UNL     1      24.192   1.360  52.362  1.00  0.00     0.066 A 
HETATM   12  C2  UNL     1      24.071   0.295  53.231  1.00  0.00     0.094 A 
HETATM   13  C3  UNL     1      25.156  -0.553  53.407  1.00  0.00     0.039 A 
HETATM   14  C4  UNL     1      26.347  -0.357  52.739  1.00  0.00     0.003 A 
HETATM   15  C5  UNL     1      26.515   0.692  51.861  1.00  0.00     0.002 A 
HETATM   16  C6  UNL     1      25.400   1.518  51.714  1.00  0.00     0.032 A 
BRANCH  12  17
HETATM   17  O1  UNL     1      22.845   0.163  53.865  1.00  0.00    -0.354 OA
HETATM   18  C1  UNL     1      22.271  -1.138  53.887  1.00  0.00     0.210 C 
ENDBRANCH  12  17
ENDBRANCH   9  11
ENDBRANCH   3   9
ENDBRANCH   1   2
BRANCH   1  19
HETATM   19  N2  UNL     1      22.122   5.710  51.166  1.00  0.00    -0.386 N 
HETATM   20  H11 UNL     1      21.367   6.407  50.882  1.00  0.00     0.160 HD
BRANCH  19  21
HETATM   21  C11 UNL     1      23.418   6.036  50.690  1.00  0.00     0.028 A 
HETATM   22  C12 UNL     1      24.267   5.176  50.031  1.00  0.00     0.031 A 
HETATM   23  C13 UNL     1      25.528   5.483  49.576  1.00  0.00     0.031 A 
HETATM   24  C14 UNL     1      26.009   6.736  49.780  1.00  0.00     0.028 A 
HETATM   25  C21 UNL     1      25.205   7.643  50.433  1.00  0.00     0.031 A 
HETATM   26  C22 UNL     1      23.951   7.294  50.870  1.00  0.00     0.031 A 
BRANCH  24  27
HETATM   27  N3  UNL     1      27.308   7.078  49.321  1.00  0.00    -0.384 N 
HETATM   28  H14 UNL     1      27.907   7.728  49.859  1.00  0.00     0.160 HD
BRANCH  27  29
HETATM   29  C15 UNL     1      27.888   6.561  48.098  1.00  0.00     0.110 C 
HETATM   30  C16 UNL     1      28.855   5.438  48.327  1.00  0.00     0.028 C 
HETATM   31  C17 UNL     1      30.277   5.845  47.937  1.00  0.00     0.032 C 
HETATM   32  C18 UNL     1      30.451   7.273  48.397  1.00  0.00     0.272 C 
HETATM   33  N4  UNL     1      29.697   8.130  47.525  1.00  0.00     0.086 N 
HETATM   34  C19 UNL     1      30.439   8.297  46.289  1.00  0.00     0.310 C 
HETATM   35  C20 UNL     1      28.392   7.626  47.194  1.00  0.00     0.296 C 
ENDBRANCH  27  29
ENDBRANCH  24  27
ENDBRANCH  19  21
ENDBRANCH   1  19
TORSDOF 8
ENDMDL
MODEL 8
REMARK VINA RESULT:      -8.0      3.189      9.496
REMARK  8 active torsions:
REMARK  status: ('A' for Active; 'I' for Inactive)
REMARK    1  A    between atoms: O1_2  and  C2_3 
REMARK    2  A    between atoms: C7_8  and  N1_9 
REMARK    3  A    between atoms: N1_9  and  C8_10 
REMARK    4  A    between atoms: C9_11  and  C10_12 
REMARK    5  A    between atoms: C10_12  and  N2_13 
REMARK    6  A    between atoms: N2_13  and  C11_14 
REMARK    7  A    between atoms: C14_17  and  N3_18 
REMARK    8  A    between atoms: N3_18  and  C15_19 
ROOT
HETATM    1  C10 UNL     1      28.444   6.978  47.771  1.00  0.00     0.158 C 
ENDROOT
BRANCH   1   2
HETATM    2  C9  UNL     1      29.132   8.086  48.466  1.00  0.00    -0.018 A 
HETATM    3  C8  UNL     1      30.420   8.281  48.165  1.00  0.00     0.039 A 
HETATM    4  C25 UNL     1      31.318   9.304  48.673  1.00  0.00     0.046 A 
HETATM    5  C24 UNL     1      30.861  10.183  49.544  1.00  0.00     0.085 A 
HETATM    6  N5  UNL     1      29.498   9.995  49.871  1.00  0.00    -0.395 N 
HETATM    7  C23 UNL     1      28.545   8.991  49.479  1.00  0.00     0.157 A 
HETATM    8  H31 UNL     1      29.024  10.684  50.524  1.00  0.00     0.159 HD
BRANCH   3   9
HETATM    9  N1  UNL     1      31.080   7.428  47.203  1.00  0.00    -0.354 N 
HETATM   10  H8  UNL     1      30.974   7.350  46.148  1.00  0.00     0.166 HD
BRANCH   9  11
HETATM   11  C7  UNL     1      32.088   6.405  47.281  1.00  0.00     0.066 A 
HETATM   12  C2  UNL     1      33.436   6.556  47.029  1.00  0.00     0.094 A 
HETATM   13  C3  UNL     1      34.269   5.454  47.153  1.00  0.00     0.039 A 
HETATM   14  C4  UNL     1      33.785   4.215  47.519  1.00  0.00     0.003 A 
HETATM   15  C5  UNL     1      32.447   4.014  47.781  1.00  0.00     0.002 A 
HETATM   16  C6  UNL     1      31.646   5.148  47.644  1.00  0.00     0.032 A 
BRANCH  12  17
HETATM   17  O1  UNL     1      33.847   7.830  46.667  1.00  0.00    -0.354 OA
HETATM   18  C1  UNL     1      34.805   8.459  47.510  1.00  0.00     0.210 C 
ENDBRANCH  12  17
ENDBRANCH   9  11
ENDBRANCH   3   9
ENDBRANCH   1   2
BRANCH   1  19
HETATM   19  N2  UNL     1      28.186   5.819  48.565  1.00  0.00    -0.386 N 
HETATM   20  H11 UNL     1      29.051   5.350  48.978  1.00  0.00     0.160 HD
BRANCH  19  21
HETATM   21  C11 UNL     1      26.966   5.179  48.905  1.00  0.00     0.028 A 
HETATM   22  C12 UNL     1      25.722   5.770  48.885  1.00  0.00     0.031 A 
HETATM   23  C13 UNL     1      24.538   5.160  49.222  1.00  0.00     0.031 A 
HETATM   24  C14 UNL     1      24.561   3.860  49.616  1.00  0.00     0.028 A 
HETATM   25  C21 UNL     1      25.776   3.215  49.656  1.00  0.00     0.031 A 
HETATM   26  C22 UNL     1      26.936   3.863  49.309  1.00  0.00     0.031 A 
BRANCH  24  27
HETATM   27  N3  UNL     1      23.351   3.208  49.972  1.00  0.00    -0.384 N 
HETATM   28  H14 UNL     1      22.770   2.740  49.255  1.00  0.00     0.160 HD
BRANCH  27  29
HETATM   29  C15 UNL     1      22.843   3.144  51.327  1.00  0.00     0.110 C 
HETATM   30  C16 UNL     1      23.805   3.675  52.348  1.00  0.00     0.028 C 
HETATM   31  C17 UNL     1      24.288   2.563  53.281  1.00  0.00     0.032 C 
HETATM   32  C18 UNL     1      24.495   1.343  52.417  1.00  0.00     0.272 C 
HETATM   33  N4  UNL     1      23.210   0.818  52.049  1.00  0.00     0.086 N 
HETATM   34  C19 UNL     1      22.668   0.089  53.180  1.00  0.00     0.310 C 
HETATM   35  C20 UNL     1      22.255   1.824  51.670  1.00  0.00     0.296 C 
ENDBRANCH  27  29
ENDBRANCH  24  27
ENDBRANCH  19  21
ENDBRANCH   1  19
TORSDOF 8
ENDMDL
MODEL 9
REMARK VINA RESULT:      -8.0      2.215      4.296
REMARK  8 active torsions:
REMARK  status: ('A' for Active; 'I' for Inactive)
REMARK    1  A    between atoms: O1_2  and  C2_3 
REMARK    2  A    between atoms: C7_8  and  N1_9 
REMARK    3  A    between atoms: N1_9  and  C8_10 
REMARK    4  A    between atoms: C9_11  and  C10_12 
REMARK    5  A    between atoms: C10_12  and  N2_13 
REMARK    6  A    between atoms: N2_13  and  C11_14 
REMARK    7  A    between atoms: C14_17  and  N3_18 
REMARK    8  A    between atoms: N3_18  and  C15_19 
ROOT
HETATM    1  C10 UNL     1      25.563   2.593  52.686  1.00  0.00     0.158 C 
ENDROOT
BRANCH   1   2
HETATM    2  C9  UNL     1      26.780   1.815  53.002  1.00  0.00    -0.018 A 
HETATM    3  C8  UNL     1      26.668   0.483  52.980  1.00  0.00     0.039 A 
HETATM    4  C25 UNL     1      27.700  -0.511  53.221  1.00  0.00     0.046 A 
HETATM    5  C24 UNL     1      28.925  -0.108  53.499  1.00  0.00     0.085 A 
HETATM    6  N5  UNL     1      29.063   1.299  53.522  1.00  0.00    -0.395 N 
HETATM    7  C23 UNL     1      28.107   2.362  53.361  1.00  0.00     0.157 A 
HETATM    8  H31 UNL     1      30.024   1.721  53.686  1.00  0.00     0.159 HD
BRANCH   3   9
HETATM    9  N1  UNL     1      25.401  -0.136  52.661  1.00  0.00    -0.354 N 
HETATM   10  H8  UNL     1      25.068  -0.637  51.785  1.00  0.00     0.166 HD
BRANCH   9  11
HETATM   11  C7  UNL     1      24.158  -0.315  53.362  1.00  0.00     0.066 A 
HETATM   12  C2  UNL     1      22.914   0.118  52.954  1.00  0.00     0.094 A 
HETATM   13  C3  UNL     1      21.815  -0.143  53.760  1.00  0.00     0.039 A 
HETATM   14  C4  UNL     1      21.936  -0.821  54.955  1.00  0.00     0.003 A 
HETATM   15  C5  UNL     1      23.157  -1.273  55.405  1.00  0.00     0.002 A 
HETATM   16  C6  UNL     1      24.234  -0.990  54.564  1.00  0.00     0.032 A 
BRANCH  12  17
HETATM   17  O1  UNL     1      22.872   0.792  51.742  1.00  0.00    -0.354 OA
HETATM   18  C1  UNL     1      21.643   1.423  51.401  1.00  0.00     0.210 C 
ENDBRANCH  12  17
ENDBRANCH   9  11
ENDBRANCH   3   9
ENDBRANCH   1   2
BRANCH   1  19
HETATM   19  N2  UNL     1      25.322   2.821  51.297  1.00  0.00    -0.386 N 
HETATM   20  H11 UNL     1      24.707   2.093  50.817  1.00  0.00     0.160 HD
BRANCH  19  21
HETATM   21  C11 UNL     1      25.761   3.861  50.437  1.00  0.00     0.028 A 
HETATM   22  C12 UNL     1      25.155   5.088  50.294  1.00  0.00     0.031 A 
HETATM   23  C13 UNL     1      25.569   6.096  49.455  1.00  0.00     0.031 A 
HETATM   24  C14 UNL     1      26.670   5.895  48.686  1.00  0.00     0.028 A 
HETATM   25  C21 UNL     1      27.321   4.686  48.785  1.00  0.00     0.031 A 
HETATM   26  C22 UNL     1      26.872   3.707  49.637  1.00  0.00     0.031 A 
BRANCH  24  27
HETATM   27  N3  UNL     1      27.117   6.919  47.810  1.00  0.00    -0.384 N 
HETATM   28  H14 UNL     1      27.982   6.803  47.255  1.00  0.00     0.160 HD
BRANCH  27  29
HETATM   29  C15 UNL     1      26.421   8.177  47.627  1.00  0.00     0.110 C 
HETATM   30  C16 UNL     1      25.631   8.239  46.354  1.00  0.00     0.028 C 
HETATM   31  C17 UNL     1      26.207   9.285  45.398  1.00  0.00     0.032 C 
HETATM   32  C18 UNL     1      27.709   9.179  45.506  1.00  0.00     0.272 C 
HETATM   33  N4  UNL     1      28.119   9.738  46.763  1.00  0.00     0.086 N 
HETATM   34  C19 UNL     1      28.097  11.184  46.655  1.00  0.00     0.310 C 
HETATM   35  C20 UNL     1      27.282   9.362  47.871  1.00  0.00     0.296 C 
ENDBRANCH  27  29
ENDBRANCH  24  27
ENDBRANCH  19  21
ENDBRANCH   1  19
TORSDOF 8
ENDMDL
