MODEL 1
REMARK VINA RESULT:      -9.0      0.000      0.000
REMARK  3 active torsions:
REMARK  status: ('A' for Active; 'I' for Inactive)
REMARK    1  A    between atoms: N1_1  and  C1_2 
REMARK    2  A    between atoms: C5_7  and  N3_8 
REMARK    3  A    between atoms: N3_8  and  C6_9 
ROOT
HETATM    1  C1  UNL     1      22.054  -0.629  54.474  1.00  0.00     0.004 C 
HETATM    2  C2  UNL     1      22.847   0.004  53.590  1.00  0.00     0.029 C 
HETATM    3  C3  UNL     1      24.234  -0.514  53.434  1.00  0.00     0.164 C 
HETATM    4  N2  UNL     1      25.038   0.403  52.687  1.00  0.00    -0.369 N 
HETATM    5  C4  UNL     1      26.325   0.890  53.034  1.00  0.00     0.129 A 
HETATM    6  C5  UNL     1      27.111   1.654  52.203  1.00  0.00     0.160 A 
HETATM    7  N4  UNL     1      28.298   2.030  52.697  1.00  0.00    -0.222 NA
HETATM    8  C12 UNL     1      28.757   1.716  53.916  1.00  0.00     0.238 A 
HETATM    9  N5  UNL     1      27.961   0.964  54.705  1.00  0.00    -0.215 NA
HETATM   10  C13 UNL     1      26.752   0.540  54.297  1.00  0.00     0.201 A 
HETATM   11  O1  UNL     1      25.998  -0.226  55.171  1.00  0.00    -0.292 OA
HETATM   12  C14 UNL     1      24.743  -0.700  54.827  1.00  0.00     0.078 C 
HETATM   13  C15 UNL     1      23.976  -1.320  55.706  1.00  0.00     0.014 C 
HETATM   14  C16 UNL     1      22.638  -1.786  55.214  1.00  0.00     0.086 C 
HETATM   15  H5  UNL     1      24.587   0.712  51.812  1.00  0.00     0.161 HD
ENDROOT
BRANCH   6  16
HETATM   16  N3  UNL     1      26.653   1.983  50.906  1.00  0.00    -0.339 N 
HETATM   17  H6  UNL     1      26.625   1.270  50.151  1.00  0.00     0.167 HD
BRANCH  16  18
HETATM   18  C6  UNL     1      26.192   3.241  50.443  1.00  0.00     0.035 A 
HETATM   19  C7  UNL     1      26.836   3.980  49.478  1.00  0.00     0.029 A 
HETATM   20  C8  UNL     1      26.396   5.202  49.006  1.00  0.00     0.004 A 
HETATM   21  C9  UNL     1      25.246   5.748  49.505  1.00  0.00     0.019 A 
HETATM   22  C10 UNL     1      24.560   5.049  50.473  1.00  0.00     0.013 A 
HETATM   23 BR1  UNL     1      22.930   5.726  51.238  1.00  0.00    -0.051 Br
HETATM   24  C11 UNL     1      25.043   3.839  50.906  1.00  0.00     0.048 A 
ENDBRANCH  16  18
ENDBRANCH   6  16
BRANCH   1  25
HETATM   25  N1  UNL     1      20.702  -0.276  54.757  1.00  0.00    -0.402 N 
HETATM   26  H1  UNL     1      20.549   0.708  55.087  1.00  0.00     0.156 HD
HETATM   27  H2  UNL     1      19.971  -1.030  54.612  1.00  0.00     0.156 HD
ENDBRANCH   1  25
TORSDOF 3
ENDMDL
MODEL 2
REMARK VINA RESULT:      -8.3      2.643      4.606
REMARK  3 active torsions:
REMARK  status: ('A' for Active; 'I' for Inactive)
REMARK    1  A    between atoms: N1_1  and  C1_2 
REMARK    2  A    between atoms: C5_7  and  N3_8 
REMARK    3  A    between atoms: N3_8  and  C6_9 
ROOT
HETATM    1  C1  UNL     1      28.713   0.859  53.728  1.00  0.00     0.004 C 
HETATM    2  C2  UNL     1      28.075   1.845  53.071  1.00  0.00     0.029 C 
HETATM    3  C3  UNL     1      26.631   2.039  53.380  1.00  0.00     0.164 C 
HETATM    4  N2  UNL     1      26.021   2.915  52.429  1.00  0.00    -0.369 N 
HETATM    5  C4  UNL     1      24.814   2.694  51.716  1.00  0.00     0.129 A 
HETATM    6  C5  UNL     1      24.201   3.639  50.926  1.00  0.00     0.160 A 
HETATM    7  N4  UNL     1      23.068   3.256  50.324  1.00  0.00    -0.222 NA
HETATM    8  C12 UNL     1      22.507   2.045  50.439  1.00  0.00     0.238 A 
HETATM    9  N5  UNL     1      23.134   1.143  51.223  1.00  0.00    -0.215 NA
HETATM   10  C13 UNL     1      24.278   1.435  51.868  1.00  0.00     0.201 A 
HETATM   11  O1  UNL     1      24.857   0.449  52.651  1.00  0.00    -0.292 OA
HETATM   12  C14 UNL     1      26.034   0.670  53.346  1.00  0.00     0.078 C 
HETATM   13  C15 UNL     1      26.649  -0.308  53.987  1.00  0.00     0.014 C 
HETATM   14  C16 UNL     1      27.916   0.055  54.701  1.00  0.00     0.086 C 
HETATM   15  H5  UNL     1      26.556   3.785  52.282  1.00  0.00     0.161 HD
ENDROOT
BRANCH   6  16
HETATM   16  N3  UNL     1      24.767   4.930  50.803  1.00  0.00    -0.339 N 
HETATM   17  H6  UNL     1      24.433   5.718  51.390  1.00  0.00     0.167 HD
BRANCH  16  18
HETATM   18  C6  UNL     1      25.801   5.342  49.926  1.00  0.00     0.035 A 
HETATM   19  C7  UNL     1      26.764   4.494  49.432  1.00  0.00     0.029 A 
HETATM   20  C8  UNL     1      27.772   4.874  48.566  1.00  0.00     0.004 A 
HETATM   21  C9  UNL     1      27.853   6.173  48.148  1.00  0.00     0.019 A 
HETATM   22  C10 UNL     1      26.913   7.066  48.612  1.00  0.00     0.013 A 
HETATM   23 BR1  UNL     1      26.934   8.915  48.082  1.00  0.00    -0.051 Br
HETATM   24  C11 UNL     1      25.933   6.633  49.471  1.00  0.00     0.048 A 
ENDBRANCH  16  18
ENDBRANCH   6  16
BRANCH   1  25
HETATM   25  N1  UNL     1      30.089   0.526  53.563  1.00  0.00    -0.402 N 
HETATM   26  H1  UNL     1      30.309  -0.501  53.544  1.00  0.00     0.156 HD
HETATM   27  H2  UNL     1      30.770   1.333  53.474  1.00  0.00     0.156 HD
ENDBRANCH   1  25
TORSDOF 3
ENDMDL
MODEL 3
REMARK VINA RESULT:      -8.0      3.046      4.611
REMARK  3 active torsions:
REMARK  status: ('A' for Active; 'I' for Inactive)
REMARK    1  A    between atoms: N1_1  and  C1_2 
REMARK    2  A    between atoms: C5_7  and  N3_8 
REMARK    3  A    between atoms: N3_8  and  C6_9 
ROOT
HETATM    1  C1  UNL     1      28.273  -0.464  53.568  1.00  0.00     0.004 C 
HETATM    2  C2  UNL     1      27.922   0.303  52.520  1.00  0.00     0.029 C 
HETATM    3  C3  UNL     1      27.343   1.640  52.825  1.00  0.00     0.164 C 
HETATM    4  N2  UNL     1      26.766   2.224  51.655  1.00  0.00    -0.369 N 
HETATM    5  C4  UNL     1      25.475   2.799  51.533  1.00  0.00     0.129 A 
HETATM    6  C5  UNL     1      25.033   3.477  50.421  1.00  0.00     0.160 A 
HETATM    7  N4  UNL     1      23.782   3.951  50.480  1.00  0.00    -0.222 NA
HETATM    8  C12 UNL     1      22.955   3.812  51.525  1.00  0.00     0.238 A 
HETATM    9  N5  UNL     1      23.421   3.141  52.600  1.00  0.00    -0.215 NA
HETATM   10  C13 UNL     1      24.664   2.628  52.634  1.00  0.00     0.201 A 
HETATM   11  O1  UNL     1      25.061   1.952  53.776  1.00  0.00    -0.292 OA
HETATM   12  C14 UNL     1      26.324   1.394  53.890  1.00  0.00     0.078 C 
HETATM   13  C15 UNL     1      26.654   0.643  54.925  1.00  0.00     0.014 C 
HETATM   14  C16 UNL     1      28.050   0.095  54.933  1.00  0.00     0.086 C 
HETATM   15  H5  UNL     1      27.399   2.198  50.839  1.00  0.00     0.161 HD
ENDROOT
BRANCH   6  16
HETATM   16  N3  UNL     1      25.895   3.651  49.314  1.00  0.00    -0.339 N 
HETATM   17  H6  UNL     1      26.063   2.880  48.639  1.00  0.00     0.167 HD
BRANCH  16  18
HETATM   18  C6  UNL     1      26.626   4.814  48.960  1.00  0.00     0.035 A 
HETATM   19  C7  UNL     1      26.082   6.076  48.931  1.00  0.00     0.029 A 
HETATM   20  C8  UNL     1      26.780   7.222  48.601  1.00  0.00     0.004 A 
HETATM   21  C9  UNL     1      28.106   7.138  48.275  1.00  0.00     0.019 A 
HETATM   22  C10 UNL     1      28.702   5.897  48.288  1.00  0.00     0.013 A 
HETATM   23 BR1  UNL     1      30.561   5.670  47.849  1.00  0.00    -0.051 Br
HETATM   24  C11 UNL     1      27.959   4.792  48.624  1.00  0.00     0.048 A 
ENDBRANCH  16  18
ENDBRANCH   6  16
BRANCH   1  25
HETATM   25  N1  UNL     1      28.839  -1.769  53.471  1.00  0.00    -0.402 N 
HETATM   26  H1  UNL     1      29.853  -1.806  53.201  1.00  0.00     0.156 HD
HETATM   27  H2  UNL     1      28.197  -2.586  53.678  1.00  0.00     0.156 HD
ENDBRANCH   1  25
TORSDOF 3
ENDMDL
MODEL 4
REMARK VINA RESULT:      -8.0      3.755      5.746
REMARK  3 active torsions:
REMARK  status: ('A' for Active; 'I' for Inactive)
REMARK    1  A    between atoms: N1_1  and  C1_2 
REMARK    2  A    between atoms: C5_7  and  N3_8 
REMARK    3  A    between atoms: N3_8  and  C6_9 
ROOT
HETATM    1  C1  UNL     1      18.790   1.732  50.633  1.00  0.00     0.004 C 
HETATM    2  C2  UNL     1      20.099   1.614  50.921  1.00  0.00     0.029 C 
HETATM    3  C3  UNL     1      20.585   0.263  51.319  1.00  0.00     0.164 C 
HETATM    4  N2  UNL     1      21.907   0.337  51.857  1.00  0.00    -0.369 N 
HETATM    5  C4  UNL     1      22.370  -0.235  53.071  1.00  0.00     0.129 A 
HETATM    6  C5  UNL     1      23.688  -0.255  53.461  1.00  0.00     0.160 A 
HETATM    7  N4  UNL     1      23.944  -0.834  54.641  1.00  0.00    -0.222 NA
HETATM    8  C12 UNL     1      23.021  -1.381  55.444  1.00  0.00     0.238 A 
HETATM    9  N5  UNL     1      21.737  -1.344  55.030  1.00  0.00    -0.215 NA
HETATM   10  C13 UNL     1      21.383  -0.783  53.860  1.00  0.00     0.201 A 
HETATM   11  O1  UNL     1      20.042  -0.786  53.513  1.00  0.00    -0.292 OA
HETATM   12  C14 UNL     1      19.596  -0.229  52.326  1.00  0.00     0.078 C 
HETATM   13  C15 UNL     1      18.307  -0.120  52.058  1.00  0.00     0.014 C 
HETATM   14  C16 UNL     1      17.950   0.503  50.741  1.00  0.00     0.086 C 
HETATM   15  H5  UNL     1      22.555   0.875  51.259  1.00  0.00     0.161 HD
ENDROOT
BRANCH   6  16
HETATM   16  N3  UNL     1      24.681   0.301  52.620  1.00  0.00    -0.339 N 
HETATM   17  H6  UNL     1      24.486   0.497  51.620  1.00  0.00     0.167 HD
BRANCH  16  18
HETATM   18  C6  UNL     1      26.009   0.655  52.966  1.00  0.00     0.035 A 
HETATM   19  C7  UNL     1      26.402   1.937  53.270  1.00  0.00     0.029 A 
HETATM   20  C8  UNL     1      27.688   2.299  53.622  1.00  0.00     0.004 A 
HETATM   21  C9  UNL     1      28.668   1.347  53.683  1.00  0.00     0.019 A 
HETATM   22  C10 UNL     1      28.330   0.045  53.389  1.00  0.00     0.013 A 
HETATM   23 BR1  UNL     1      29.631  -1.369  53.449  1.00  0.00    -0.051 Br
HETATM   24  C11 UNL     1      27.035  -0.258  53.045  1.00  0.00     0.048 A 
ENDBRANCH  16  18
ENDBRANCH   6  16
BRANCH   1  25
HETATM   25  N1  UNL     1      18.147   2.941  50.236  1.00  0.00    -0.402 N 
HETATM   26  H1  UNL     1      17.597   3.430  50.985  1.00  0.00     0.156 HD
HETATM   27  H2  UNL     1      18.277   3.243  49.229  1.00  0.00     0.156 HD
ENDBRANCH   1  25
TORSDOF 3
ENDMDL
MODEL 5
REMARK VINA RESULT:      -7.9      2.475      2.979
REMARK  3 active torsions:
REMARK  status: ('A' for Active; 'I' for Inactive)
REMARK    1  A    between atoms: N1_1  and  C1_2 
REMARK    2  A    between atoms: C5_7  and  N3_8 
REMARK    3  A    between atoms: N3_8  and  C6_9 
ROOT
HETATM    1  C1  UNL     1      20.594   1.531  52.017  1.00  0.00     0.004 C 
HETATM    2  C2  UNL     1      21.717   1.924  51.390  1.00  0.00     0.029 C 
HETATM    3  C3  UNL     1      22.926   1.075  51.571  1.00  0.00     0.164 C 
HETATM    4  N2  UNL     1      24.094   1.743  51.091  1.00  0.00    -0.369 N 
HETATM    5  C4  UNL     1      25.329   1.904  51.773  1.00  0.00     0.129 A 
HETATM    6  C5  UNL     1      26.464   2.428  51.200  1.00  0.00     0.160 A 
HETATM    7  N4  UNL     1      27.540   2.509  51.994  1.00  0.00    -0.222 NA
HETATM    8  C12 UNL     1      27.580   2.122  53.276  1.00  0.00     0.238 A 
HETATM    9  N5  UNL     1      26.448   1.612  53.806  1.00  0.00    -0.215 NA
HETATM   10  C13 UNL     1      25.318   1.492  53.087  1.00  0.00     0.201 A 
HETATM   11  O1  UNL     1      24.200   0.959  53.710  1.00  0.00    -0.292 OA
HETATM   12  C14 UNL     1      22.999   0.803  53.039  1.00  0.00     0.078 C 
HETATM   13  C15 UNL     1      21.904   0.416  53.669  1.00  0.00     0.014 C 
HETATM   14  C16 UNL     1      20.665   0.284  52.835  1.00  0.00     0.086 C 
HETATM   15  H5  UNL     1      23.974   2.133  50.143  1.00  0.00     0.161 HD
ENDROOT
BRANCH   6  16
HETATM   16  N3  UNL     1      26.449   2.827  49.843  1.00  0.00    -0.339 N 
HETATM   17  H6  UNL     1      26.422   2.125  49.079  1.00  0.00     0.167 HD
BRANCH  16  18
HETATM   18  C6  UNL     1      26.471   4.148  49.328  1.00  0.00     0.035 A 
HETATM   19  C7  UNL     1      25.368   4.968  49.288  1.00  0.00     0.029 A 
HETATM   20  C8  UNL     1      25.372   6.262  48.802  1.00  0.00     0.004 A 
HETATM   21  C9  UNL     1      26.532   6.801  48.320  1.00  0.00     0.019 A 
HETATM   22  C10 UNL     1      27.668   6.024  48.338  1.00  0.00     0.013 A 
HETATM   23 BR1  UNL     1      29.352   6.688  47.686  1.00  0.00    -0.051 Br
HETATM   24  C11 UNL     1      27.606   4.744  48.832  1.00  0.00     0.048 A 
ENDBRANCH  16  18
ENDBRANCH   6  16
BRANCH   1  25
HETATM   25  N1  UNL     1      19.344   2.215  51.961  1.00  0.00    -0.402 N 
HETATM   26  H1  UNL     1      19.099   2.638  51.032  1.00  0.00     0.156 HD
HETATM   27  H2  UNL     1      18.772   2.241  52.853  1.00  0.00     0.156 HD
ENDBRANCH   1  25
TORSDOF 3
ENDMDL
MODEL 6
REMARK VINA RESULT:      -7.8      3.134      4.685
REMARK  3 active torsions:
REMARK  status: ('A' for Active; 'I' for Inactive)
REMARK    1  A    between atoms: N1_1  and  C1_2 
REMARK    2  A    between atoms: C5_7  and  N3_8 
REMARK    3  A    between atoms: N3_8  and  C6_9 
ROOT
HETATM    1  C1  UNL     1      24.297  -0.345  54.116  1.00  0.00     0.004 C 
HETATM    2  C2  UNL     1      24.315   0.732  53.311  1.00  0.00     0.029 C 
HETATM    3  C3  UNL     1      22.999   1.248  52.842  1.00  0.00     0.164 C 
HETATM    4  N2  UNL     1      23.171   2.201  51.792  1.00  0.00    -0.369 N 
HETATM    5  C4  UNL     1      22.502   2.225  50.540  1.00  0.00     0.129 A 
HETATM    6  C5  UNL     1      22.602   3.252  49.631  1.00  0.00     0.160 A 
HETATM    7  N4  UNL     1      21.902   3.106  48.499  1.00  0.00    -0.222 NA
HETATM    8  C12 UNL     1      21.131   2.051  48.203  1.00  0.00     0.238 A 
HETATM    9  N5  UNL     1      21.055   1.062  49.118  1.00  0.00    -0.215 NA
HETATM   10  C13 UNL     1      21.722   1.119  50.284  1.00  0.00     0.201 A 
HETATM   11  O1  UNL     1      21.590   0.058  51.166  1.00  0.00    -0.292 OA
HETATM   12  C14 UNL     1      22.244   0.041  52.387  1.00  0.00     0.078 C 
HETATM   13  C15 UNL     1      22.218  -1.025  53.167  1.00  0.00     0.014 C 
HETATM   14  C16 UNL     1      22.965  -0.922  54.463  1.00  0.00     0.086 C 
HETATM   15  H5  UNL     1      23.869   2.928  52.018  1.00  0.00     0.161 HD
ENDROOT
BRANCH   6  16
HETATM   16  N3  UNL     1      23.397   4.384  49.931  1.00  0.00    -0.339 N 
HETATM   17  H6  UNL     1      23.028   5.158  50.515  1.00  0.00     0.167 HD
BRANCH  16  18
HETATM   18  C6  UNL     1      24.728   4.640  49.516  1.00  0.00     0.035 A 
HETATM   19  C7  UNL     1      25.748   3.724  49.617  1.00  0.00     0.029 A 
HETATM   20  C8  UNL     1      27.048   3.951  49.206  1.00  0.00     0.004 A 
HETATM   21  C9  UNL     1      27.384   5.157  48.656  1.00  0.00     0.019 A 
HETATM   22  C10 UNL     1      26.401   6.112  48.530  1.00  0.00     0.013 A 
HETATM   23 BR1  UNL     1      26.768   7.839  47.767  1.00  0.00    -0.051 Br
HETATM   24  C11 UNL     1      25.126   5.832  48.955  1.00  0.00     0.048 A 
ENDBRANCH  16  18
ENDBRANCH   6  16
BRANCH   1  25
HETATM   25  N1  UNL     1      25.454  -0.977  54.661  1.00  0.00    -0.402 N 
HETATM   26  H1  UNL     1      25.802  -1.817  54.136  1.00  0.00     0.156 HD
HETATM   27  H2  UNL     1      25.863  -0.551  55.541  1.00  0.00     0.156 HD
ENDBRANCH   1  25
TORSDOF 3
ENDMDL
MODEL 7
REMARK VINA RESULT:      -7.8      3.089      5.066
REMARK  3 active torsions:
REMARK  status: ('A' for Active; 'I' for Inactive)
REMARK    1  A    between atoms: N1_1  and  C1_2 
REMARK    2  A    between atoms: C5_7  and  N3_8 
REMARK    3  A    between atoms: N3_8  and  C6_9 
ROOT
HETATM    1  C1  UNL     1      20.815  -0.651  53.701  1.00  0.00     0.004 C 
HETATM    2  C2  UNL     1      22.010  -0.034  53.651  1.00  0.00     0.029 C 
HETATM    3  C3  UNL     1      22.039   1.335  53.066  1.00  0.00     0.164 C 
HETATM    4  N2  UNL     1      23.384   1.755  52.821  1.00  0.00    -0.369 N 
HETATM    5  C4  UNL     1      23.901   2.312  51.623  1.00  0.00     0.129 A 
HETATM    6  C5  UNL     1      25.168   2.833  51.498  1.00  0.00     0.160 A 
HETATM    7  N4  UNL     1      25.489   3.315  50.290  1.00  0.00    -0.222 NA
HETATM    8  C12 UNL     1      24.676   3.324  49.225  1.00  0.00     0.238 A 
HETATM    9  N5  UNL     1      23.440   2.805  49.383  1.00  0.00    -0.215 NA
HETATM   10  C13 UNL     1      23.027   2.297  50.558  1.00  0.00     0.201 A 
HETATM   11  O1  UNL     1      21.742   1.784  50.633  1.00  0.00    -0.292 OA
HETATM   12  C14 UNL     1      21.242   1.242  51.805  1.00  0.00     0.078 C 
HETATM   13  C15 UNL     1      20.067   0.639  51.839  1.00  0.00     0.014 C 
HETATM   14  C16 UNL     1      19.636   0.092  53.167  1.00  0.00     0.086 C 
HETATM   15  H5  UNL     1      24.004   1.614  53.635  1.00  0.00     0.161 HD
ENDROOT
BRANCH   6  16
HETATM   16  N3  UNL     1      26.036   2.850  52.614  1.00  0.00    -0.339 N 
HETATM   17  H6  UNL     1      26.010   3.627  53.301  1.00  0.00     0.167 HD
BRANCH  16  18
HETATM   18  C6  UNL     1      27.019   1.889  52.961  1.00  0.00     0.035 A 
HETATM   19  C7  UNL     1      28.200   2.201  53.593  1.00  0.00     0.029 A 
HETATM   20  C8  UNL     1      29.164   1.277  53.950  1.00  0.00     0.004 A 
HETATM   21  C9  UNL     1      28.969  -0.048  53.674  1.00  0.00     0.019 A 
HETATM   22  C10 UNL     1      27.803  -0.417  53.043  1.00  0.00     0.013 A 
HETATM   23 BR1  UNL     1      27.429  -2.254  52.613  1.00  0.00    -0.051 Br
HETATM   24  C11 UNL     1      26.879   0.544  52.711  1.00  0.00     0.048 A 
ENDBRANCH  16  18
ENDBRANCH   6  16
BRANCH   1  25
HETATM   25  N1  UNL     1      20.593  -1.959  54.224  1.00  0.00    -0.402 N 
HETATM   26  H1  UNL     1      20.516  -2.024  55.268  1.00  0.00     0.156 HD
HETATM   27  H2  UNL     1      20.524  -2.749  53.521  1.00  0.00     0.156 HD
ENDBRANCH   1  25
TORSDOF 3
ENDMDL
MODEL 8
REMARK VINA RESULT:      -7.7      2.754      4.530
REMARK  3 active torsions:
REMARK  status: ('A' for Active; 'I' for Inactive)
REMARK    1  A    between atoms: N1_1  and  C1_2 
REMARK    2  A    between atoms: C5_7  and  N3_8 
REMARK    3  A    between atoms: N3_8  and  C6_9 
ROOT
HETATM    1  C1  UNL     1      26.611  -0.931  53.021  1.00  0.00     0.004 C 
HETATM    2  C2  UNL     1      26.939   0.082  52.198  1.00  0.00     0.029 C 
HETATM    3  C3  UNL     1      26.220   1.371  52.393  1.00  0.00     0.164 C 
HETATM    4  N2  UNL     1      26.457   2.257  51.297  1.00  0.00    -0.369 N 
HETATM    5  C4  UNL     1      25.486   2.975  50.552  1.00  0.00     0.129 A 
HETATM    6  C5  UNL     1      25.788   3.926  49.604  1.00  0.00     0.160 A 
HETATM    7  N4  UNL     1      24.743   4.502  48.996  1.00  0.00    -0.222 NA
HETATM    8  C12 UNL     1      23.457   4.221  49.245  1.00  0.00     0.238 A 
HETATM    9  N5  UNL     1      23.197   3.283  50.181  1.00  0.00    -0.215 NA
HETATM   10  C13 UNL     1      24.180   2.650  50.845  1.00  0.00     0.201 A 
HETATM   11  O1  UNL     1      23.824   1.699  51.789  1.00  0.00    -0.292 OA
HETATM   12  C14 UNL     1      24.776   1.002  52.513  1.00  0.00     0.078 C 
HETATM   13  C15 UNL     1      24.439   0.010  53.318  1.00  0.00     0.014 C 
HETATM   14  C16 UNL     1      25.560  -0.669  54.047  1.00  0.00     0.086 C 
HETATM   15  H5  UNL     1      27.459   2.347  51.062  1.00  0.00     0.161 HD
ENDROOT
BRANCH   6  16
HETATM   16  N3  UNL     1      27.139   4.251  49.338  1.00  0.00    -0.339 N 
HETATM   17  H6  UNL     1      27.910   3.624  49.638  1.00  0.00     0.167 HD
BRANCH  16  18
HETATM   18  C6  UNL     1      27.637   5.400  48.673  1.00  0.00     0.035 A 
HETATM   19  C7  UNL     1      28.937   5.527  48.243  1.00  0.00     0.029 A 
HETATM   20  C8  UNL     1      29.438   6.632  47.583  1.00  0.00     0.004 A 
HETATM   21  C9  UNL     1      28.618   7.694  47.319  1.00  0.00     0.019 A 
HETATM   22  C10 UNL     1      27.306   7.620  47.727  1.00  0.00     0.013 A 
HETATM   23 BR1  UNL     1      26.069   9.056  47.402  1.00  0.00    -0.051 Br
HETATM   24  C11 UNL     1      26.861   6.496  48.379  1.00  0.00     0.048 A 
ENDBRANCH  16  18
ENDBRANCH   6  16
BRANCH   1  25
HETATM   25  N1  UNL     1      27.190  -2.234  52.983  1.00  0.00    -0.402 N 
HETATM   26  H1  UNL     1      27.148  -2.723  52.055  1.00  0.00     0.156 HD
HETATM   27  H2  UNL     1      27.610  -2.597  53.886  1.00  0.00     0.156 HD
ENDBRANCH   1  25
TORSDOF 3
ENDMDL
MODEL 9
REMARK VINA RESULT:      -7.6      6.344      9.817
REMARK  3 active torsions:
REMARK  status: ('A' for Active; 'I' for Inactive)
REMARK    1  A    between atoms: N1_1  and  C1_2 
REMARK    2  A    between atoms: C5_7  and  N3_8 
REMARK    3  A    between atoms: N3_8  and  C6_9 
ROOT
HETATM    1  C1  UNL     1      33.874   4.543  47.978  1.00  0.00     0.004 C 
HETATM    2  C2  UNL     1      32.553   4.797  47.957  1.00  0.00     0.029 C 
HETATM    3  C3  UNL     1      32.130   6.137  47.466  1.00  0.00     0.164 C 
HETATM    4  N2  UNL     1      30.749   6.372  47.754  1.00  0.00    -0.369 N 
HETATM    5  C4  UNL     1      30.187   7.523  48.366  1.00  0.00     0.129 A 
HETATM    6  C5  UNL     1      28.836   7.753  48.481  1.00  0.00     0.160 A 
HETATM    7  N4  UNL     1      28.483   8.892  49.091  1.00  0.00    -0.222 NA
HETATM    8  C12 UNL     1      29.340   9.798  49.583  1.00  0.00     0.238 A 
HETATM    9  N5  UNL     1      30.658   9.540  49.452  1.00  0.00    -0.215 NA
HETATM   10  C13 UNL     1      31.109   8.422  48.854  1.00  0.00     0.201 A 
HETATM   11  O1  UNL     1      32.479   8.236  48.764  1.00  0.00    -0.292 OA
HETATM   12  C14 UNL     1      33.022   7.112  48.164  1.00  0.00     0.078 C 
HETATM   13  C15 UNL     1      34.321   6.876  48.193  1.00  0.00     0.014 C 
HETATM   14  C16 UNL     1      34.788   5.625  47.510  1.00  0.00     0.086 C 
HETATM   15  H5  UNL     1      30.140   5.590  47.466  1.00  0.00     0.161 HD
ENDROOT
BRANCH   6  16
HETATM   16  N3  UNL     1      27.914   6.818  47.954  1.00  0.00    -0.339 N 
HETATM   17  H6  UNL     1      27.744   6.752  46.932  1.00  0.00     0.167 HD
BRANCH  16  18
HETATM   18  C6  UNL     1      27.121   5.886  48.669  1.00  0.00     0.035 A 
HETATM   19  C7  UNL     1      27.421   4.548  48.767  1.00  0.00     0.029 A 
HETATM   20  C8  UNL     1      26.668   3.627  49.470  1.00  0.00     0.004 A 
HETATM   21  C9  UNL     1      25.540   4.033  50.128  1.00  0.00     0.019 A 
HETATM   22  C10 UNL     1      25.193   5.364  50.064  1.00  0.00     0.013 A 
HETATM   23 BR1  UNL     1      23.629   6.039  50.956  1.00  0.00    -0.051 Br
HETATM   24  C11 UNL     1      25.979   6.235  49.350  1.00  0.00     0.048 A 
ENDBRANCH  16  18
ENDBRANCH   6  16
BRANCH   1  25
HETATM   25  N1  UNL     1      34.463   3.321  48.416  1.00  0.00    -0.402 N 
HETATM   26  H1  UNL     1      34.125   2.454  47.930  1.00  0.00     0.156 HD
HETATM   27  H2  UNL     1      35.187   3.388  49.187  1.00  0.00     0.156 HD
ENDBRANCH   1  25
TORSDOF 3
ENDMDL
