MODEL 1
REMARK VINA RESULT:      -9.2      0.000      0.000
REMARK  6 active torsions:
REMARK  status: ('A' for Active; 'I' for Inactive)
REMARK    1  A    between atoms: N1_7  and  C7_8 
REMARK    2  A    between atoms: C11_12  and  C12_13 
REMARK    3  A    between atoms: C12_13  and  N2_14 
REMARK       I    between atoms: N2_14  and  C13_15 
REMARK    4  A    between atoms: C13_15  and  C14_17 
REMARK    5  A    between atoms: C15_18  and  C16_19 
REMARK    6  A    between atoms: C16_19  and  C17_20 
ROOT
HETATM    1  C12 UNL     1      23.887   4.486  50.756  1.00  0.00     0.161 C 
ENDROOT
BRANCH   1   2
HETATM    2  C11 UNL     1      24.277   3.224  51.422  1.00  0.00    -0.044 C 
HETATM    3  C10 UNL     1      23.662   2.478  52.323  1.00  0.00    -0.014 C 
HETATM    4  C9  UNL     1      23.878   1.222  53.085  1.00  0.00     0.057 C 
HETATM    5  C8  UNL     1      25.282   0.815  53.192  1.00  0.00     0.007 C 
HETATM    6  C7  UNL     1      26.393   1.071  52.518  1.00  0.00     0.035 C 
HETATM    7  C22 UNL     1      26.499   1.938  51.351  1.00  0.00     0.030 C 
HETATM    8  C21 UNL     1      25.610   2.838  50.894  1.00  0.00     0.011 C 
BRANCH   6   9
HETATM    9  N1  UNL     1      27.607   0.461  52.949  1.00  0.00    -0.324 N 
HETATM   10  C2  UNL     1      28.739   1.080  53.494  1.00  0.00     0.029 A 
HETATM   11  C1  UNL     1      28.680   2.376  53.625  1.00  0.00     0.043 C 
HETATM   12  C3  UNL     1      29.853   0.224  53.854  1.00  0.00     0.029 A 
HETATM   13  C4  UNL     1      29.776  -1.103  53.662  1.00  0.00     0.004 A 
HETATM   14  C5  UNL     1      28.596  -1.738  53.095  1.00  0.00     0.018 A 
HETATM   15  C6  UNL     1      27.567  -0.958  52.762  1.00  0.00     0.097 A 
ENDBRANCH   6   9
ENDBRANCH   1   2
BRANCH   1  16
HETATM   16  N2  UNL     1      24.775   4.973  49.762  1.00  0.00    -0.353 N 
HETATM   17  C13 UNL     1      25.316   6.286  49.702  1.00  0.00     0.241 C 
HETATM   18  O1  UNL     1      24.891   7.009  50.669  1.00  0.00    -0.269 OA
HETATM   19  H13 UNL     1      25.065   4.332  49.005  1.00  0.00     0.163 HD
BRANCH  17  20
HETATM   20  C14 UNL     1      26.234   6.851  48.726  1.00  0.00     0.070 C 
HETATM   21  C15 UNL     1      27.421   6.522  48.252  1.00  0.00    -0.019 C 
BRANCH  21  22
HETATM   22  C16 UNL     1      28.518   5.530  48.322  1.00  0.00     0.065 C 
BRANCH  22  23
HETATM   23  C17 UNL     1      29.824   6.257  48.037  1.00  0.00     0.247 C 
HETATM   24  C18 UNL     1      30.943   5.269  47.774  1.00  0.00     0.203 C 
HETATM   25  O2  UNL     1      31.524   4.908  49.002  1.00  0.00    -0.387 OA
HETATM   26  C19 UNL     1      32.340   5.940  49.463  1.00  0.00     0.197 C 
HETATM   27  C20 UNL     1      31.623   7.253  49.173  1.00  0.00     0.296 C 
HETATM   28  N3  UNL     1      30.186   7.023  49.213  1.00  0.00     0.092 N 
HETATM   29  H25 UNL     1      29.758   7.974  49.215  1.00  0.00     0.316 HD
ENDBRANCH  22  23
ENDBRANCH  21  22
ENDBRANCH  17  20
ENDBRANCH   1  16
TORSDOF 6
ENDMDL
MODEL 2
REMARK VINA RESULT:      -8.7      1.019      1.114
REMARK  6 active torsions:
REMARK  status: ('A' for Active; 'I' for Inactive)
REMARK    1  A    between atoms: N1_7  and  C7_8 
REMARK    2  A    between atoms: C11_12  and  C12_13 
REMARK    3  A    between atoms: C12_13  and  N2_14 
REMARK       I    between atoms: N2_14  and  C13_15 
REMARK    4  A    between atoms: C13_15  and  C14_17 
REMARK    5  A    between atoms: C15_18  and  C16_19 
REMARK    6  A    between atoms: C16_19  and  C17_20 
ROOT
HETATM    1  C12 UNL     1      24.458   5.151  50.684  1.00  0.00     0.161 C 
ENDROOT
BRANCH   1   2
HETATM    2  C11 UNL     1      24.612   3.843  51.356  1.00  0.00    -0.044 C 
HETATM    3  C10 UNL     1      23.889   3.239  52.284  1.00  0.00    -0.014 C 
HETATM    4  C9  UNL     1      23.878   1.972  53.058  1.00  0.00     0.057 C 
HETATM    5  C8  UNL     1      25.177   1.298  53.132  1.00  0.00     0.007 C 
HETATM    6  C7  UNL     1      26.296   1.325  52.424  1.00  0.00     0.035 C 
HETATM    7  C22 UNL     1      26.535   2.145  51.243  1.00  0.00     0.030 C 
HETATM    8  C21 UNL     1      25.827   3.199  50.798  1.00  0.00     0.011 C 
BRANCH   6   9
HETATM    9  N1  UNL     1      27.379   0.493  52.830  1.00  0.00    -0.324 N 
HETATM   10  C2  UNL     1      28.583   0.875  53.436  1.00  0.00     0.029 A 
HETATM   11  C1  UNL     1      28.736   2.150  53.658  1.00  0.00     0.043 C 
HETATM   12  C3  UNL     1      29.529  -0.179  53.752  1.00  0.00     0.029 A 
HETATM   13  C4  UNL     1      29.237  -1.457  53.466  1.00  0.00     0.004 A 
HETATM   14  C5  UNL     1      27.984  -1.846  52.836  1.00  0.00     0.018 A 
HETATM   15  C6  UNL     1      27.109  -0.884  52.542  1.00  0.00     0.097 A 
ENDBRANCH   6   9
ENDBRANCH   1   2
BRANCH   1  16
HETATM   16  N2  UNL     1      25.652   5.773  50.237  1.00  0.00    -0.353 N 
HETATM   17  C13 UNL     1      25.872   6.315  48.942  1.00  0.00     0.241 C 
HETATM   18  O1  UNL     1      24.844   6.163  48.193  1.00  0.00    -0.269 OA
HETATM   19  H13 UNL     1      26.444   5.849  50.896  1.00  0.00     0.163 HD
BRANCH  17  20
HETATM   20  C14 UNL     1      27.057   6.973  48.417  1.00  0.00     0.070 C 
HETATM   21  C15 UNL     1      28.297   6.606  48.152  1.00  0.00    -0.019 C 
BRANCH  21  22
HETATM   22  C16 UNL     1      29.254   5.476  48.174  1.00  0.00     0.065 C 
BRANCH  22  23
HETATM   23  C17 UNL     1      30.619   6.013  47.768  1.00  0.00     0.247 C 
HETATM   24  C18 UNL     1      31.632   5.796  48.873  1.00  0.00     0.203 C 
HETATM   25  O2  UNL     1      31.575   6.886  49.758  1.00  0.00    -0.387 OA
HETATM   26  C19 UNL     1      32.206   7.993  49.191  1.00  0.00     0.197 C 
HETATM   27  C20 UNL     1      31.827   8.027  47.715  1.00  0.00     0.296 C 
HETATM   28  N3  UNL     1      30.503   7.442  47.556  1.00  0.00     0.092 N 
HETATM   29  H25 UNL     1      30.217   7.677  46.582  1.00  0.00     0.316 HD
ENDBRANCH  22  23
ENDBRANCH  21  22
ENDBRANCH  17  20
ENDBRANCH   1  16
TORSDOF 6
ENDMDL
MODEL 3
REMARK VINA RESULT:      -8.6      2.469      3.814
REMARK  6 active torsions:
REMARK  status: ('A' for Active; 'I' for Inactive)
REMARK    1  A    between atoms: N1_7  and  C7_8 
REMARK    2  A    between atoms: C11_12  and  C12_13 
REMARK    3  A    between atoms: C12_13  and  N2_14 
REMARK       I    between atoms: N2_14  and  C13_15 
REMARK    4  A    between atoms: C13_15  and  C14_17 
REMARK    5  A    between atoms: C15_18  and  C16_19 
REMARK    6  A    between atoms: C16_19  and  C17_20 
ROOT
HETATM    1  C12 UNL     1      21.489   2.519  51.840  1.00  0.00     0.161 C 
ENDROOT
BRANCH   1   2
HETATM    2  C11 UNL     1      22.410   1.499  52.387  1.00  0.00    -0.044 C 
HETATM    3  C10 UNL     1      22.266   0.614  53.358  1.00  0.00    -0.014 C 
HETATM    4  C9  UNL     1      23.043  -0.459  54.031  1.00  0.00     0.057 C 
HETATM    5  C8  UNL     1      24.496  -0.338  53.879  1.00  0.00     0.007 C 
HETATM    6  C7  UNL     1      25.308   0.272  53.030  1.00  0.00     0.035 C 
HETATM    7  C22 UNL     1      24.895   1.081  51.890  1.00  0.00     0.030 C 
HETATM    8  C21 UNL     1      23.680   1.593  51.624  1.00  0.00     0.011 C 
BRANCH   6   9
HETATM    9  N1  UNL     1      26.714   0.147  53.223  1.00  0.00    -0.324 N 
HETATM   10  C2  UNL     1      27.521  -0.976  52.999  1.00  0.00     0.029 A 
HETATM   11  C1  UNL     1      26.914  -2.043  52.558  1.00  0.00     0.043 C 
HETATM   12  C3  UNL     1      28.938  -0.840  53.277  1.00  0.00     0.029 A 
HETATM   13  C4  UNL     1      29.429   0.324  53.729  1.00  0.00     0.004 A 
HETATM   14  C5  UNL     1      28.585   1.486  53.960  1.00  0.00     0.018 A 
HETATM   15  C6  UNL     1      27.281   1.370  53.707  1.00  0.00     0.097 A 
ENDBRANCH   6   9
ENDBRANCH   1   2
BRANCH   1  16
HETATM   16  N2  UNL     1      22.045   3.801  51.593  1.00  0.00    -0.353 N 
HETATM   17  C13 UNL     1      21.337   4.935  51.112  1.00  0.00     0.241 C 
HETATM   18  O1  UNL     1      20.103   4.660  50.906  1.00  0.00    -0.269 OA
HETATM   19  H13 UNL     1      23.053   3.943  51.773  1.00  0.00     0.163 HD
BRANCH  17  20
HETATM   20  C14 UNL     1      21.832   6.276  50.847  1.00  0.00     0.070 C 
HETATM   21  C15 UNL     1      23.020   6.851  50.820  1.00  0.00    -0.019 C 
BRANCH  21  22
HETATM   22  C16 UNL     1      24.473   6.632  51.000  1.00  0.00     0.065 C 
BRANCH  22  23
HETATM   23  C17 UNL     1      25.070   6.320  49.635  1.00  0.00     0.247 C 
HETATM   24  C18 UNL     1      24.916   4.848  49.305  1.00  0.00     0.203 C 
HETATM   25  O2  UNL     1      26.013   4.150  49.837  1.00  0.00    -0.387 OA
HETATM   26  C19 UNL     1      27.142   4.363  49.046  1.00  0.00     0.197 C 
HETATM   27  C20 UNL     1      27.139   5.831  48.635  1.00  0.00     0.296 C 
HETATM   28  N3  UNL     1      26.489   6.610  49.679  1.00  0.00     0.092 N 
HETATM   29  H25 UNL     1      26.698   7.605  49.447  1.00  0.00     0.316 HD
ENDBRANCH  22  23
ENDBRANCH  21  22
ENDBRANCH  17  20
ENDBRANCH   1  16
TORSDOF 6
ENDMDL
MODEL 4
REMARK VINA RESULT:      -8.6      2.325      2.795
REMARK  6 active torsions:
REMARK  status: ('A' for Active; 'I' for Inactive)
REMARK    1  A    between atoms: N1_7  and  C7_8 
REMARK    2  A    between atoms: C11_12  and  C12_13 
REMARK    3  A    between atoms: C12_13  and  N2_14 
REMARK       I    between atoms: N2_14  and  C13_15 
REMARK    4  A    between atoms: C13_15  and  C14_17 
REMARK    5  A    between atoms: C15_18  and  C16_19 
REMARK    6  A    between atoms: C16_19  and  C17_20 
ROOT
HETATM    1  C12 UNL     1      22.566   2.860  51.750  1.00  0.00     0.161 C 
ENDROOT
BRANCH   1   2
HETATM    2  C11 UNL     1      23.365   1.724  52.260  1.00  0.00    -0.044 C 
HETATM    3  C10 UNL     1      23.095   0.790  53.156  1.00  0.00    -0.014 C 
HETATM    4  C9  UNL     1      23.739  -0.393  53.782  1.00  0.00     0.057 C 
HETATM    5  C8  UNL     1      25.203  -0.395  53.701  1.00  0.00     0.007 C 
HETATM    6  C7  UNL     1      26.107   0.195  52.936  1.00  0.00     0.035 C 
HETATM    7  C22 UNL     1      25.824   1.115  51.841  1.00  0.00     0.030 C 
HETATM    8  C21 UNL     1      24.674   1.754  51.561  1.00  0.00     0.011 C 
BRANCH   6   9
HETATM    9  N1  UNL     1      27.485  -0.073  53.180  1.00  0.00    -0.324 N 
HETATM   10  C2  UNL     1      28.494   0.835  53.528  1.00  0.00     0.029 A 
HETATM   11  C1  UNL     1      28.130   2.082  53.644  1.00  0.00     0.043 C 
HETATM   12  C3  UNL     1      29.828   0.300  53.722  1.00  0.00     0.029 A 
HETATM   13  C4  UNL     1      30.059  -1.013  53.568  1.00  0.00     0.004 A 
HETATM   14  C5  UNL     1      29.006  -1.950  53.206  1.00  0.00     0.018 A 
HETATM   15  C6  UNL     1      27.776  -1.467  53.025  1.00  0.00     0.097 A 
ENDBRANCH   6   9
ENDBRANCH   1   2
BRANCH   1  16
HETATM   16  N2  UNL     1      23.246   3.782  50.913  1.00  0.00    -0.353 N 
HETATM   17  C13 UNL     1      22.845   4.171  49.607  1.00  0.00     0.241 C 
HETATM   18  O1  UNL     1      21.771   3.570  49.251  1.00  0.00    -0.269 OA
HETATM   19  H13 UNL     1      24.114   4.219  51.266  1.00  0.00     0.163 HD
BRANCH  17  20
HETATM   20  C14 UNL     1      23.480   5.113  48.699  1.00  0.00     0.070 C 
HETATM   21  C15 UNL     1      24.590   5.827  48.711  1.00  0.00    -0.019 C 
BRANCH  21  22
HETATM   22  C16 UNL     1      25.805   6.159  49.489  1.00  0.00     0.065 C 
BRANCH  22  23
HETATM   23  C17 UNL     1      26.076   7.647  49.318  1.00  0.00     0.247 C 
HETATM   24  C18 UNL     1      27.030   7.890  48.165  1.00  0.00     0.203 C 
HETATM   25  O2  UNL     1      28.348   7.803  48.644  1.00  0.00    -0.387 OA
HETATM   26  C19 UNL     1      28.674   8.958  49.353  1.00  0.00     0.197 C 
HETATM   27  C20 UNL     1      27.453   9.344  50.180  1.00  0.00     0.296 C 
HETATM   28  N3  UNL     1      26.716   8.136  50.523  1.00  0.00     0.092 N 
HETATM   29  H25 UNL     1      26.026   8.434  51.246  1.00  0.00     0.316 HD
ENDBRANCH  22  23
ENDBRANCH  21  22
ENDBRANCH  17  20
ENDBRANCH   1  16
TORSDOF 6
ENDMDL
MODEL 5
REMARK VINA RESULT:      -8.3      3.919      7.110
REMARK  6 active torsions:
REMARK  status: ('A' for Active; 'I' for Inactive)
REMARK    1  A    between atoms: N1_7  and  C7_8 
REMARK    2  A    between atoms: C11_12  and  C12_13 
REMARK    3  A    between atoms: C12_13  and  N2_14 
REMARK       I    between atoms: N2_14  and  C13_15 
REMARK    4  A    between atoms: C13_15  and  C14_17 
REMARK    5  A    between atoms: C15_18  and  C16_19 
REMARK    6  A    between atoms: C16_19  and  C17_20 
ROOT
HETATM    1  C12 UNL     1      22.395   4.587  51.086  1.00  0.00     0.161 C 
ENDROOT
BRANCH   1   2
HETATM    2  C11 UNL     1      23.793   4.112  50.999  1.00  0.00    -0.044 C 
HETATM    3  C10 UNL     1      24.666   4.123  50.006  1.00  0.00    -0.014 C 
HETATM    4  C9  UNL     1      26.066   3.711  49.730  1.00  0.00     0.057 C 
HETATM    5  C8  UNL     1      26.584   2.688  50.643  1.00  0.00     0.007 C 
HETATM    6  C7  UNL     1      26.273   2.259  51.856  1.00  0.00     0.035 C 
HETATM    7  C22 UNL     1      25.190   2.772  52.686  1.00  0.00     0.030 C 
HETATM    8  C21 UNL     1      24.153   3.549  52.324  1.00  0.00     0.011 C 
BRANCH   6   9
HETATM    9  N1  UNL     1      27.043   1.205  52.424  1.00  0.00    -0.324 N 
HETATM   10  C2  UNL     1      28.161   1.305  53.263  1.00  0.00     0.029 A 
HETATM   11  C1  UNL     1      28.549   2.513  53.562  1.00  0.00     0.043 C 
HETATM   12  C3  UNL     1      28.769   0.066  53.708  1.00  0.00     0.029 A 
HETATM   13  C4  UNL     1      28.261  -1.114  53.319  1.00  0.00     0.004 A 
HETATM   14  C5  UNL     1      27.100  -1.211  52.447  1.00  0.00     0.018 A 
HETATM   15  C6  UNL     1      26.535  -0.076  52.033  1.00  0.00     0.097 A 
ENDBRANCH   6   9
ENDBRANCH   1   2
BRANCH   1  16
HETATM   16  N2  UNL     1      21.487   3.746  51.781  1.00  0.00    -0.353 N 
HETATM   17  C13 UNL     1      20.379   3.066  51.207  1.00  0.00     0.241 C 
HETATM   18  O1  UNL     1      20.279   3.314  49.954  1.00  0.00    -0.269 OA
HETATM   19  H13 UNL     1      21.626   3.603  52.795  1.00  0.00     0.163 HD
BRANCH  17  20
HETATM   20  C14 UNL     1      19.417   2.184  51.847  1.00  0.00     0.070 C 
HETATM   21  C15 UNL     1      19.435   0.944  52.300  1.00  0.00    -0.019 C 
BRANCH  21  22
HETATM   22  C16 UNL     1      20.270  -0.266  52.476  1.00  0.00     0.065 C 
BRANCH  22  23
HETATM   23  C17 UNL     1      21.037  -0.118  53.782  1.00  0.00     0.247 C 
HETATM   24  C18 UNL     1      22.320   0.661  53.566  1.00  0.00     0.203 C 
HETATM   25  O2  UNL     1      23.333  -0.235  53.184  1.00  0.00    -0.387 OA
HETATM   26  C19 UNL     1      23.778  -0.951  54.295  1.00  0.00     0.197 C 
HETATM   27  C20 UNL     1      22.553  -1.301  55.132  1.00  0.00     0.296 C 
HETATM   28  N3  UNL     1      21.404  -1.440  54.249  1.00  0.00     0.092 N 
HETATM   29  H25 UNL     1      20.660  -1.874  54.836  1.00  0.00     0.316 HD
ENDBRANCH  22  23
ENDBRANCH  21  22
ENDBRANCH  17  20
ENDBRANCH   1  16
TORSDOF 6
ENDMDL
MODEL 6
REMARK VINA RESULT:      -8.3      1.656      1.955
REMARK  6 active torsions:
REMARK  status: ('A' for Active; 'I' for Inactive)
REMARK    1  A    between atoms: N1_7  and  C7_8 
REMARK    2  A    between atoms: C11_12  and  C12_13 
REMARK    3  A    between atoms: C12_13  and  N2_14 
REMARK       I    between atoms: N2_14  and  C13_15 
REMARK    4  A    between atoms: C13_15  and  C14_17 
REMARK    5  A    between atoms: C15_18  and  C16_19 
REMARK    6  A    between atoms: C16_19  and  C17_20 
ROOT
HETATM    1  C12 UNL     1      24.721   5.674  50.223  1.00  0.00     0.161 C 
ENDROOT
BRANCH   1   2
HETATM    2  C11 UNL     1      24.752   4.398  50.970  1.00  0.00    -0.044 C 
HETATM    3  C10 UNL     1      23.971   3.917  51.923  1.00  0.00    -0.014 C 
HETATM    4  C9  UNL     1      23.840   2.702  52.768  1.00  0.00     0.057 C 
HETATM    5  C8  UNL     1      25.073   1.919  52.894  1.00  0.00     0.007 C 
HETATM    6  C7  UNL     1      26.193   1.803  52.199  1.00  0.00     0.035 C 
HETATM    7  C22 UNL     1      26.513   2.529  50.975  1.00  0.00     0.030 C 
HETATM    8  C21 UNL     1      25.906   3.615  50.463  1.00  0.00     0.011 C 
BRANCH   6   9
HETATM    9  N1  UNL     1      27.193   0.901  52.663  1.00  0.00    -0.324 N 
HETATM   10  C2  UNL     1      28.381   1.202  53.342  1.00  0.00     0.029 A 
HETATM   11  C1  UNL     1      28.603   2.464  53.582  1.00  0.00     0.043 C 
HETATM   12  C3  UNL     1      29.236   0.088  53.707  1.00  0.00     0.029 A 
HETATM   13  C4  UNL     1      28.879  -1.168  53.395  1.00  0.00     0.004 A 
HETATM   14  C5  UNL     1      27.644  -1.472  52.689  1.00  0.00     0.018 A 
HETATM   15  C6  UNL     1      26.852  -0.454  52.349  1.00  0.00     0.097 A 
ENDBRANCH   6   9
ENDBRANCH   1   2
BRANCH   1  16
HETATM   16  N2  UNL     1      25.695   6.639  50.588  1.00  0.00    -0.353 N 
HETATM   17  C13 UNL     1      26.132   7.724  49.781  1.00  0.00     0.241 C 
HETATM   18  O1  UNL     1      25.540   7.728  48.645  1.00  0.00    -0.269 OA
HETATM   19  H13 UNL     1      26.137   6.565  51.519  1.00  0.00     0.163 HD
BRANCH  17  20
HETATM   20  C14 UNL     1      27.111   8.754  50.088  1.00  0.00     0.070 C 
HETATM   21  C15 UNL     1      27.989   9.454  49.393  1.00  0.00    -0.019 C 
BRANCH  21  22
HETATM   22  C16 UNL     1      28.548   9.692  48.043  1.00  0.00     0.065 C 
BRANCH  22  23
HETATM   23  C17 UNL     1      29.650   8.669  47.808  1.00  0.00     0.247 C 
HETATM   24  C18 UNL     1      29.181   7.582  46.862  1.00  0.00     0.203 C 
HETATM   25  O2  UNL     1      28.542   6.578  47.609  1.00  0.00    -0.387 OA
HETATM   26  C19 UNL     1      29.492   5.801  48.272  1.00  0.00     0.197 C 
HETATM   27  C20 UNL     1      30.570   6.744  48.793  1.00  0.00     0.296 C 
HETATM   28  N3  UNL     1      29.966   8.038  49.075  1.00  0.00     0.092 N 
HETATM   29  H25 UNL     1      30.688   8.565  49.611  1.00  0.00     0.316 HD
ENDBRANCH  22  23
ENDBRANCH  21  22
ENDBRANCH  17  20
ENDBRANCH   1  16
TORSDOF 6
ENDMDL
MODEL 7
REMARK VINA RESULT:      -8.2      2.741      3.250
REMARK  6 active torsions:
REMARK  status: ('A' for Active; 'I' for Inactive)
REMARK    1  A    between atoms: N1_7  and  C7_8 
REMARK    2  A    between atoms: C11_12  and  C12_13 
REMARK    3  A    between atoms: C12_13  and  N2_14 
REMARK       I    between atoms: N2_14  and  C13_15 
REMARK    4  A    between atoms: C13_15  and  C14_17 
REMARK    5  A    between atoms: C15_18  and  C16_19 
REMARK    6  A    between atoms: C16_19  and  C17_20 
ROOT
HETATM    1  C12 UNL     1      24.500   5.116  50.130  1.00  0.00     0.161 C 
ENDROOT
BRANCH   1   2
HETATM    2  C11 UNL     1      24.649   3.914  50.979  1.00  0.00    -0.044 C 
HETATM    3  C10 UNL     1      23.940   3.463  52.000  1.00  0.00    -0.014 C 
HETATM    4  C9  UNL     1      23.926   2.319  52.946  1.00  0.00     0.057 C 
HETATM    5  C8  UNL     1      25.216   1.637  53.086  1.00  0.00     0.007 C 
HETATM    6  C7  UNL     1      26.317   1.541  52.358  1.00  0.00     0.035 C 
HETATM    7  C22 UNL     1      26.540   2.179  51.066  1.00  0.00     0.030 C 
HETATM    8  C21 UNL     1      25.839   3.173  50.491  1.00  0.00     0.011 C 
BRANCH   6   9
HETATM    9  N1  UNL     1      27.396   0.754  52.854  1.00  0.00    -0.324 N 
HETATM   10  C2  UNL     1      27.538  -0.640  52.817  1.00  0.00     0.029 A 
HETATM   11  C1  UNL     1      26.564  -1.303  52.261  1.00  0.00     0.043 C 
HETATM   12  C3  UNL     1      28.745  -1.198  53.398  1.00  0.00     0.029 A 
HETATM   13  C4  UNL     1      29.670  -0.391  53.940  1.00  0.00     0.004 A 
HETATM   14  C5  UNL     1      29.515   1.056  53.975  1.00  0.00     0.018 A 
HETATM   15  C6  UNL     1      28.409   1.577  53.444  1.00  0.00     0.097 A 
ENDBRANCH   6   9
ENDBRANCH   1   2
BRANCH   1  16
HETATM   16  N2  UNL     1      25.133   6.297  50.597  1.00  0.00    -0.353 N 
HETATM   17  C13 UNL     1      25.967   7.152  49.827  1.00  0.00     0.241 C 
HETATM   18  O1  UNL     1      26.100   6.718  48.629  1.00  0.00    -0.269 OA
HETATM   19  H13 UNL     1      24.987   6.578  51.581  1.00  0.00     0.163 HD
BRANCH  17  20
HETATM   20  C14 UNL     1      26.638   8.378  50.229  1.00  0.00     0.070 C 
HETATM   21  C15 UNL     1      27.705   9.042  49.825  1.00  0.00    -0.019 C 
BRANCH  21  22
HETATM   22  C16 UNL     1      28.821   9.058  48.852  1.00  0.00     0.065 C 
BRANCH  22  23
HETATM   23  C17 UNL     1      28.900  10.456  48.256  1.00  0.00     0.247 C 
HETATM   24  C18 UNL     1      30.323  10.791  47.858  1.00  0.00     0.203 C 
HETATM   25  O2  UNL     1      30.988  11.333  48.971  1.00  0.00    -0.387 OA
HETATM   26  C19 UNL     1      30.577  12.649  49.177  1.00  0.00     0.197 C 
HETATM   27  C20 UNL     1      29.074  12.701  48.930  1.00  0.00     0.296 C 
HETATM   28  N3  UNL     1      28.496  11.409  49.272  1.00  0.00     0.092 N 
HETATM   29  H25 UNL     1      27.465  11.565  49.283  1.00  0.00     0.316 HD
ENDBRANCH  22  23
ENDBRANCH  21  22
ENDBRANCH  17  20
ENDBRANCH   1  16
TORSDOF 6
ENDMDL
MODEL 8
REMARK VINA RESULT:      -8.1      2.649      8.288
REMARK  6 active torsions:
REMARK  status: ('A' for Active; 'I' for Inactive)
REMARK    1  A    between atoms: N1_7  and  C7_8 
REMARK    2  A    between atoms: C11_12  and  C12_13 
REMARK    3  A    between atoms: C12_13  and  N2_14 
REMARK       I    between atoms: N2_14  and  C13_15 
REMARK    4  A    between atoms: C13_15  and  C14_17 
REMARK    5  A    between atoms: C15_18  and  C16_19 
REMARK    6  A    between atoms: C16_19  and  C17_20 
ROOT
HETATM    1  C12 UNL     1      25.052   5.327  49.490  1.00  0.00     0.161 C 
ENDROOT
BRANCH   1   2
HETATM    2  C11 UNL     1      26.369   5.653  48.901  1.00  0.00    -0.044 C 
HETATM    3  C10 UNL     1      27.476   4.940  48.770  1.00  0.00    -0.014 C 
HETATM    4  C9  UNL     1      28.851   5.082  48.227  1.00  0.00     0.057 C 
HETATM    5  C8  UNL     1      29.307   6.468  48.094  1.00  0.00     0.007 C 
HETATM    6  C7  UNL     1      28.720   7.652  48.009  1.00  0.00     0.035 C 
HETATM    7  C22 UNL     1      27.282   7.891  48.032  1.00  0.00     0.030 C 
HETATM    8  C21 UNL     1      26.300   7.050  48.406  1.00  0.00     0.011 C 
BRANCH   6   9
HETATM    9  N1  UNL     1      29.538   8.811  47.885  1.00  0.00    -0.324 N 
HETATM   10  C2  UNL     1      30.031   9.401  46.713  1.00  0.00     0.029 A 
HETATM   11  C1  UNL     1      29.701   8.819  45.594  1.00  0.00     0.043 C 
HETATM   12  C3  UNL     1      30.850  10.589  46.864  1.00  0.00     0.029 A 
HETATM   13  C4  UNL     1      31.109  11.081  48.085  1.00  0.00     0.004 A 
HETATM   14  C5  UNL     1      30.595  10.462  49.298  1.00  0.00     0.018 A 
HETATM   15  C6  UNL     1      29.841   9.370  49.169  1.00  0.00     0.097 A 
ENDBRANCH   6   9
ENDBRANCH   1   2
BRANCH   1  16
HETATM   16  N2  UNL     1      25.062   4.848  50.825  1.00  0.00    -0.353 N 
HETATM   17  C13 UNL     1      24.293   3.763  51.324  1.00  0.00     0.241 C 
HETATM   18  O1  UNL     1      23.556   3.254  50.408  1.00  0.00    -0.269 OA
HETATM   19  H13 UNL     1      25.675   5.318  51.512  1.00  0.00     0.163 HD
BRANCH  17  20
HETATM   20  C14 UNL     1      24.258   3.211  52.669  1.00  0.00     0.070 C 
HETATM   21  C15 UNL     1      24.626   2.073  53.228  1.00  0.00    -0.019 C 
BRANCH  21  22
HETATM   22  C16 UNL     1      25.236   0.747  52.980  1.00  0.00     0.065 C 
BRANCH  22  23
HETATM   23  C17 UNL     1      26.735   0.947  52.810  1.00  0.00     0.247 C 
HETATM   24  C18 UNL     1      27.461  -0.383  52.827  1.00  0.00     0.203 C 
HETATM   25  O2  UNL     1      27.755  -0.720  54.159  1.00  0.00    -0.387 OA
HETATM   26  C19 UNL     1      28.829   0.042  54.617  1.00  0.00     0.197 C 
HETATM   27  C20 UNL     1      28.646   1.457  54.079  1.00  0.00     0.296 C 
HETATM   28  N3  UNL     1      27.223   1.724  53.933  1.00  0.00     0.092 N 
HETATM   29  H25 UNL     1      27.153   2.751  53.766  1.00  0.00     0.316 HD
ENDBRANCH  22  23
ENDBRANCH  21  22
ENDBRANCH  17  20
ENDBRANCH   1  16
TORSDOF 6
ENDMDL
MODEL 9
REMARK VINA RESULT:      -7.8      2.445      7.734
REMARK  6 active torsions:
REMARK  status: ('A' for Active; 'I' for Inactive)
REMARK    1  A    between atoms: N1_7  and  C7_8 
REMARK    2  A    between atoms: C11_12  and  C12_13 
REMARK    3  A    between atoms: C12_13  and  N2_14 
REMARK       I    between atoms: N2_14  and  C13_15 
REMARK    4  A    between atoms: C13_15  and  C14_17 
REMARK    5  A    between atoms: C15_18  and  C16_19 
REMARK    6  A    between atoms: C16_19  and  C17_20 
ROOT
HETATM    1  C12 UNL     1      24.986   4.899  49.120  1.00  0.00     0.161 C 
ENDROOT
BRANCH   1   2
HETATM    2  C11 UNL     1      26.045   5.926  49.218  1.00  0.00    -0.044 C 
HETATM    3  C10 UNL     1      26.030   7.165  49.680  1.00  0.00    -0.014 C 
HETATM    4  C9  UNL     1      26.955   8.312  49.861  1.00  0.00     0.057 C 
HETATM    5  C8  UNL     1      28.142   8.272  49.001  1.00  0.00     0.007 C 
HETATM    6  C7  UNL     1      28.796   7.331  48.339  1.00  0.00     0.035 C 
HETATM    7  C22 UNL     1      28.444   5.917  48.300  1.00  0.00     0.030 C 
HETATM    8  C21 UNL     1      27.290   5.332  48.670  1.00  0.00     0.011 C 
BRANCH   6   9
HETATM    9  N1  UNL     1      29.948   7.703  47.588  1.00  0.00    -0.324 N 
HETATM   10  C2  UNL     1      31.244   7.951  48.058  1.00  0.00     0.029 A 
HETATM   11  C1  UNL     1      31.423   7.828  49.344  1.00  0.00     0.043 C 
HETATM   12  C3  UNL     1      32.247   8.317  47.075  1.00  0.00     0.029 A 
HETATM   13  C4  UNL     1      31.919   8.405  45.776  1.00  0.00     0.004 A 
HETATM   14  C5  UNL     1      30.571   8.146  45.296  1.00  0.00     0.018 A 
HETATM   15  C6  UNL     1      29.643   7.810  46.192  1.00  0.00     0.097 A 
ENDBRANCH   6   9
ENDBRANCH   1   2
BRANCH   1  16
HETATM   16  N2  UNL     1      24.881   3.997  50.211  1.00  0.00    -0.353 N 
HETATM   17  C13 UNL     1      23.964   2.915  50.309  1.00  0.00     0.241 C 
HETATM   18  O1  UNL     1      23.210   2.849  49.276  1.00  0.00    -0.269 OA
HETATM   19  H13 UNL     1      25.518   4.121  51.015  1.00  0.00     0.163 HD
BRANCH  17  20
HETATM   20  C14 UNL     1      23.806   1.948  51.383  1.00  0.00     0.070 C 
HETATM   21  C15 UNL     1      24.331   1.780  52.582  1.00  0.00    -0.019 C 
BRANCH  21  22
HETATM   22  C16 UNL     1      25.289   2.328  53.569  1.00  0.00     0.065 C 
BRANCH  22  23
HETATM   23  C17 UNL     1      26.694   2.113  53.025  1.00  0.00     0.247 C 
HETATM   24  C18 UNL     1      27.032   0.636  52.980  1.00  0.00     0.203 C 
HETATM   25  O2  UNL     1      27.560   0.255  54.225  1.00  0.00    -0.387 OA
HETATM   26  C19 UNL     1      28.875   0.706  54.342  1.00  0.00     0.197 C 
HETATM   27  C20 UNL     1      28.930   2.108  53.745  1.00  0.00     0.296 C 
HETATM   28  N3  UNL     1      27.635   2.748  53.926  1.00  0.00     0.092 N 
HETATM   29  H25 UNL     1      27.792   3.752  53.693  1.00  0.00     0.316 HD
ENDBRANCH  22  23
ENDBRANCH  21  22
ENDBRANCH  17  20
ENDBRANCH   1  16
TORSDOF 6
ENDMDL
