MODEL 1
REMARK VINA RESULT:      -9.5      0.000      0.000
REMARK  6 active torsions:
REMARK  status: ('A' for Active; 'I' for Inactive)
REMARK    1  A    between atoms: C2_3  and  C24_26 
REMARK    2  A    between atoms: C3_4  and  C4_5 
REMARK    3  A    between atoms: C8_10  and  C9_11 
REMARK    4  A    between atoms: C9_11  and  C10_12 
REMARK    5  A    between atoms: C15_17  and  C16_18 
REMARK    6  A    between atoms: C16_18  and  C17_19 
REMARK       I    between atoms: C24_26  and  N2_27 
ROOT
HETATM    1  N1  UNL     1      27.187   2.102  54.187  1.00  0.00    -0.191 NA
HETATM    2  C1  UNL     1      26.880   1.016  53.876  1.00  0.00     0.104 C 
HETATM    3  C2  UNL     1      26.493  -0.298  53.487  1.00  0.00     0.107 C 
HETATM    4  C3  UNL     1      25.356  -0.871  53.305  1.00  0.00     0.039 C 
ENDROOT
BRANCH   3   5
HETATM    5  C24 UNL     1      27.677  -1.146  53.253  1.00  0.00     0.239 C 
HETATM    6  N2  UNL     1      27.998  -2.498  53.060  1.00  0.00    -0.268 NA
HETATM    7  H21 UNL     1      27.379  -2.804  53.900  1.00  0.00     0.127 HD
HETATM    8  H22 UNL     1      27.469  -2.956  53.806  1.00  0.00     0.127 HD
HETATM    9  O2  UNL     1      28.864  -0.703  53.172  1.00  0.00    -0.273 OA
ENDBRANCH   3   5
BRANCH   4  10
HETATM   10  C4  UNL     1      23.981  -0.452  53.408  1.00  0.00    -0.036 C 
HETATM   11  C5  UNL     1      23.078  -1.160  54.083  1.00  0.00    -0.013 C 
HETATM   12  C6  UNL     1      21.638  -1.062  54.400  1.00  0.00     0.054 C 
HETATM   13  C7  UNL     1      21.146   0.346  54.571  1.00  0.00     0.179 C 
HETATM   14  O1  UNL     1      21.301   1.153  53.429  1.00  0.00    -0.355 OA
HETATM   15  C8  UNL     1      22.458   1.500  52.698  1.00  0.00     0.051 C 
HETATM   16  C23 UNL     1      23.549   0.764  52.747  1.00  0.00     0.043 C 
BRANCH  15  17
HETATM   17  C9  UNL     1      22.283   2.723  51.922  1.00  0.00     0.103 C 
BRANCH  17  18
HETATM   18  C10 UNL     1      22.259   2.593  50.468  1.00  0.00    -0.045 A 
HETATM   19  C11 UNL     1      21.680   1.500  49.851  1.00  0.00     0.008 A 
HETATM   20  C12 UNL     1      21.525   1.186  48.522  1.00  0.00     0.001 A 
HETATM   21  C13 UNL     1      22.053   2.157  47.681  1.00  0.00     0.001 A 
HETATM   22  C14 UNL     1      22.668   3.311  48.167  1.00  0.00     0.008 A 
HETATM   23  C15 UNL     1      22.758   3.503  49.535  1.00  0.00    -0.047 A 
BRANCH  23  24
HETATM   24  C16 UNL     1      23.452   4.725  49.964  1.00  0.00     0.077 C 
BRANCH  24  25
HETATM   25  C17 UNL     1      24.848   4.739  49.559  1.00  0.00    -0.054 A 
HETATM   26  C18 UNL     1      25.893   3.859  49.604  1.00  0.00     0.007 A 
HETATM   27  C19 UNL     1      27.171   4.057  49.163  1.00  0.00     0.001 A 
HETATM   28  C20 UNL     1      27.335   5.312  48.631  1.00  0.00     0.000 A 
HETATM   29  C21 UNL     1      26.406   6.350  48.492  1.00  0.00     0.001 A 
HETATM   30  C22 UNL     1      25.135   5.985  48.994  1.00  0.00     0.007 A 
ENDBRANCH  24  25
ENDBRANCH  23  24
ENDBRANCH  17  18
ENDBRANCH  15  17
ENDBRANCH   4  10
TORSDOF 6
ENDMDL
MODEL 2
REMARK VINA RESULT:      -8.9      1.608      2.465
REMARK  6 active torsions:
REMARK  status: ('A' for Active; 'I' for Inactive)
REMARK    1  A    between atoms: C2_3  and  C24_26 
REMARK    2  A    between atoms: C3_4  and  C4_5 
REMARK    3  A    between atoms: C8_10  and  C9_11 
REMARK    4  A    between atoms: C9_11  and  C10_12 
REMARK    5  A    between atoms: C15_17  and  C16_18 
REMARK    6  A    between atoms: C16_18  and  C17_19 
REMARK       I    between atoms: C24_26  and  N2_27 
ROOT
HETATM    1  N1  UNL     1      29.097   1.972  54.331  1.00  0.00    -0.191 NA
HETATM    2  C1  UNL     1      28.644   0.976  53.915  1.00  0.00     0.104 C 
HETATM    3  C2  UNL     1      28.084  -0.225  53.395  1.00  0.00     0.107 C 
HETATM    4  C3  UNL     1      26.945  -0.523  52.878  1.00  0.00     0.039 C 
ENDROOT
BRANCH   3   5
HETATM    5  C24 UNL     1      29.050  -1.337  53.489  1.00  0.00     0.239 C 
HETATM    6  N2  UNL     1      29.100  -2.724  53.287  1.00  0.00    -0.268 NA
HETATM    7  H21 UNL     1      28.178  -2.877  53.841  1.00  0.00     0.127 HD
HETATM    8  H22 UNL     1      28.257  -3.045  53.768  1.00  0.00     0.127 HD
HETATM    9  O2  UNL     1      30.260  -1.199  53.847  1.00  0.00    -0.273 OA
ENDBRANCH   3   5
BRANCH   4  10
HETATM   10  C4  UNL     1      25.738   0.211  52.593  1.00  0.00    -0.036 C 
HETATM   11  C5  UNL     1      24.563  -0.137  53.113  1.00  0.00    -0.013 C 
HETATM   12  C6  UNL     1      23.167   0.344  53.058  1.00  0.00     0.054 C 
HETATM   13  C7  UNL     1      23.040   1.834  52.928  1.00  0.00     0.179 C 
HETATM   14  O1  UNL     1      23.630   2.362  51.765  1.00  0.00    -0.355 OA
HETATM   15  C8  UNL     1      24.961   2.297  51.298  1.00  0.00     0.051 C 
HETATM   16  C23 UNL     1      25.786   1.353  51.700  1.00  0.00     0.043 C 
BRANCH  15  17
HETATM   17  C9  UNL     1      25.276   3.366  50.356  1.00  0.00     0.103 C 
BRANCH  17  18
HETATM   18  C10 UNL     1      24.252   3.715  49.375  1.00  0.00    -0.045 A 
HETATM   19  C11 UNL     1      23.524   2.743  48.716  1.00  0.00     0.008 A 
HETATM   20  C12 UNL     1      22.515   2.840  47.787  1.00  0.00     0.001 A 
HETATM   21  C13 UNL     1      22.197   4.157  47.482  1.00  0.00     0.001 A 
HETATM   22  C14 UNL     1      22.853   5.239  48.072  1.00  0.00     0.008 A 
HETATM   23  C15 UNL     1      23.855   4.998  48.996  1.00  0.00    -0.047 A 
BRANCH  23  24
HETATM   24  C16 UNL     1      24.520   6.190  49.541  1.00  0.00     0.077 C 
BRANCH  24  25
HETATM   25  C17 UNL     1      25.443   6.791  48.593  1.00  0.00    -0.054 A 
HETATM   26  C18 UNL     1      25.348   7.680  47.558  1.00  0.00     0.007 A 
HETATM   27  C19 UNL     1      26.356   8.138  46.756  1.00  0.00     0.001 A 
HETATM   28  C20 UNL     1      27.566   7.589  47.100  1.00  0.00     0.000 A 
HETATM   29  C21 UNL     1      27.874   6.673  48.112  1.00  0.00     0.001 A 
HETATM   30  C22 UNL     1      26.727   6.301  48.850  1.00  0.00     0.007 A 
ENDBRANCH  24  25
ENDBRANCH  23  24
ENDBRANCH  17  18
ENDBRANCH  15  17
ENDBRANCH   4  10
TORSDOF 6
ENDMDL
MODEL 3
REMARK VINA RESULT:      -8.8      3.306      6.591
REMARK  6 active torsions:
REMARK  status: ('A' for Active; 'I' for Inactive)
REMARK    1  A    between atoms: C2_3  and  C24_26 
REMARK    2  A    between atoms: C3_4  and  C4_5 
REMARK    3  A    between atoms: C8_10  and  C9_11 
REMARK    4  A    between atoms: C9_11  and  C10_12 
REMARK    5  A    between atoms: C15_17  and  C16_18 
REMARK    6  A    between atoms: C16_18  and  C17_19 
REMARK       I    between atoms: C24_26  and  N2_27 
ROOT
HETATM    1  N1  UNL     1      26.644   8.645  48.716  1.00  0.00    -0.191 NA
HETATM    2  C1  UNL     1      26.935   7.512  48.681  1.00  0.00     0.104 C 
HETATM    3  C2  UNL     1      27.272   6.130  48.631  1.00  0.00     0.107 C 
HETATM    4  C3  UNL     1      26.629   5.049  48.903  1.00  0.00     0.039 C 
ENDROOT
BRANCH   3   5
HETATM    5  C24 UNL     1      28.658   5.944  48.163  1.00  0.00     0.239 C 
HETATM    6  N2  UNL     1      29.708   6.698  47.616  1.00  0.00    -0.268 NA
HETATM    7  H21 UNL     1      29.045   7.169  46.895  1.00  0.00     0.127 HD
HETATM    8  H22 UNL     1      29.234   7.231  46.884  1.00  0.00     0.127 HD
HETATM    9  O2  UNL     1      29.271   4.833  48.175  1.00  0.00    -0.273 OA
ENDBRANCH   3   5
BRANCH   4  10
HETATM   10  C4  UNL     1      25.299   4.750  49.372  1.00  0.00    -0.036 C 
HETATM   11  C5  UNL     1      24.220   5.007  48.636  1.00  0.00    -0.013 C 
HETATM   12  C6  UNL     1      22.756   4.853  48.766  1.00  0.00     0.054 C 
HETATM   13  C7  UNL     1      22.338   3.644  49.550  1.00  0.00     0.179 C 
HETATM   14  O1  UNL     1      22.803   3.630  50.878  1.00  0.00    -0.355 OA
HETATM   15  C8  UNL     1      24.116   3.680  51.393  1.00  0.00     0.051 C 
HETATM   16  C23 UNL     1      25.114   4.170  50.687  1.00  0.00     0.043 C 
BRANCH  15  17
HETATM   17  C9  UNL     1      24.208   3.141  52.746  1.00  0.00     0.103 C 
BRANCH  17  18
HETATM   18  C10 UNL     1      23.869   1.732  52.928  1.00  0.00    -0.045 A 
HETATM   19  C11 UNL     1      22.676   1.346  53.509  1.00  0.00     0.008 A 
HETATM   20  C12 UNL     1      22.148   0.101  53.755  1.00  0.00     0.001 A 
HETATM   21  C13 UNL     1      22.986  -0.924  53.335  1.00  0.00     0.001 A 
HETATM   22  C14 UNL     1      24.221  -0.679  52.734  1.00  0.00     0.008 A 
HETATM   23  C15 UNL     1      24.633   0.628  52.545  1.00  0.00    -0.047 A 
BRANCH  23  24
HETATM   24  C16 UNL     1      25.962   0.798  51.941  1.00  0.00     0.077 C 
BRANCH  24  25
HETATM   25  C17 UNL     1      27.023   0.811  52.933  1.00  0.00    -0.054 A 
HETATM   26  C18 UNL     1      27.506  -0.063  53.867  1.00  0.00     0.007 A 
HETATM   27  C19 UNL     1      28.541   0.133  54.737  1.00  0.00     0.001 A 
HETATM   28  C20 UNL     1      29.102   1.377  54.587  1.00  0.00     0.000 A 
HETATM   29  C21 UNL     1      28.761   2.406  53.702  1.00  0.00     0.001 A 
HETATM   30  C22 UNL     1      27.675   2.046  52.872  1.00  0.00     0.007 A 
ENDBRANCH  24  25
ENDBRANCH  23  24
ENDBRANCH  17  18
ENDBRANCH  15  17
ENDBRANCH   4  10
TORSDOF 6
ENDMDL
MODEL 4
REMARK VINA RESULT:      -8.7      1.460      2.571
REMARK  6 active torsions:
REMARK  status: ('A' for Active; 'I' for Inactive)
REMARK    1  A    between atoms: C2_3  and  C24_26 
REMARK    2  A    between atoms: C3_4  and  C4_5 
REMARK    3  A    between atoms: C8_10  and  C9_11 
REMARK    4  A    between atoms: C9_11  and  C10_12 
REMARK    5  A    between atoms: C15_17  and  C16_18 
REMARK    6  A    between atoms: C16_18  and  C17_19 
REMARK       I    between atoms: C24_26  and  N2_27 
ROOT
HETATM    1  N1  UNL     1      27.053  -2.281  52.329  1.00  0.00    -0.191 NA
HETATM    2  C1  UNL     1      26.687  -1.292  52.836  1.00  0.00     0.104 C 
HETATM    3  C2  UNL     1      26.226  -0.099  53.463  1.00  0.00     0.107 C 
HETATM    4  C3  UNL     1      25.059   0.356  53.757  1.00  0.00     0.039 C 
ENDROOT
BRANCH   3   5
HETATM    5  C24 UNL     1      27.360   0.767  53.837  1.00  0.00     0.239 C 
HETATM    6  N2  UNL     1      27.658   2.131  53.976  1.00  0.00    -0.268 NA
HETATM    7  H21 UNL     1      27.204   2.367  53.017  1.00  0.00     0.127 HD
HETATM    8  H22 UNL     1      27.277   2.526  53.113  1.00  0.00     0.127 HD
HETATM    9  O2  UNL     1      28.507   0.335  54.166  1.00  0.00    -0.273 OA
ENDBRANCH   3   5
BRANCH   4  10
HETATM   10  C4  UNL     1      23.712  -0.126  53.591  1.00  0.00    -0.036 C 
HETATM   11  C5  UNL     1      23.141  -0.937  54.479  1.00  0.00    -0.013 C 
HETATM   12  C6  UNL     1      21.838  -1.615  54.650  1.00  0.00     0.054 C 
HETATM   13  C7  UNL     1      20.671  -0.834  54.121  1.00  0.00     0.179 C 
HETATM   14  O1  UNL     1      20.737  -0.561  52.743  1.00  0.00    -0.355 OA
HETATM   15  C8  UNL     1      21.713   0.123  51.986  1.00  0.00     0.051 C 
HETATM   16  C23 UNL     1      22.949   0.261  52.421  1.00  0.00     0.043 C 
BRANCH  15  17
HETATM   17  C9  UNL     1      21.189   0.628  50.722  1.00  0.00     0.103 C 
BRANCH  17  18
HETATM   18  C10 UNL     1      20.911   2.059  50.637  1.00  0.00    -0.045 A 
HETATM   19  C11 UNL     1      19.909   2.645  51.388  1.00  0.00     0.008 A 
HETATM   20  C12 UNL     1      19.495   3.952  51.484  1.00  0.00     0.001 A 
HETATM   21  C13 UNL     1      20.231   4.805  50.673  1.00  0.00     0.001 A 
HETATM   22  C14 UNL     1      21.271   4.349  49.860  1.00  0.00     0.008 A 
HETATM   23  C15 UNL     1      21.585   3.002  49.859  1.00  0.00    -0.047 A 
BRANCH  23  24
HETATM   24  C16 UNL     1      22.667   2.599  48.949  1.00  0.00     0.077 C 
BRANCH  24  25
HETATM   25  C17 UNL     1      23.929   3.243  49.270  1.00  0.00    -0.054 A 
HETATM   26  C18 UNL     1      24.573   4.388  48.889  1.00  0.00     0.007 A 
HETATM   27  C19 UNL     1      25.792   4.839  49.311  1.00  0.00     0.001 A 
HETATM   28  C20 UNL     1      26.364   3.982  50.219  1.00  0.00     0.000 A 
HETATM   29  C21 UNL     1      25.877   2.776  50.735  1.00  0.00     0.001 A 
HETATM   30  C22 UNL     1      24.609   2.452  50.201  1.00  0.00     0.007 A 
ENDBRANCH  24  25
ENDBRANCH  23  24
ENDBRANCH  17  18
ENDBRANCH  15  17
ENDBRANCH   4  10
TORSDOF 6
ENDMDL
MODEL 5
REMARK VINA RESULT:      -8.7      3.687      6.499
REMARK  6 active torsions:
REMARK  status: ('A' for Active; 'I' for Inactive)
REMARK    1  A    between atoms: C2_3  and  C24_26 
REMARK    2  A    between atoms: C3_4  and  C4_5 
REMARK    3  A    between atoms: C8_10  and  C9_11 
REMARK    4  A    between atoms: C9_11  and  C10_12 
REMARK    5  A    between atoms: C15_17  and  C16_18 
REMARK    6  A    between atoms: C16_18  and  C17_19 
REMARK       I    between atoms: C24_26  and  N2_27 
ROOT
HETATM    1  N1  UNL     1      17.405  -2.164  53.350  1.00  0.00    -0.191 NA
HETATM    2  C1  UNL     1      17.878  -1.335  52.673  1.00  0.00     0.104 C 
HETATM    3  C2  UNL     1      18.471  -0.336  51.850  1.00  0.00     0.107 C 
HETATM    4  C3  UNL     1      19.618   0.246  51.847  1.00  0.00     0.039 C 
ENDROOT
BRANCH   3   5
HETATM    5  C24 UNL     1      17.538   0.093  50.791  1.00  0.00     0.239 C 
HETATM    6  N2  UNL     1      16.904  -0.430  49.654  1.00  0.00    -0.268 NA
HETATM    7  H21 UNL     1      17.831  -0.869  49.292  1.00  0.00     0.127 HD
HETATM    8  H22 UNL     1      17.673  -0.904  49.175  1.00  0.00     0.127 HD
HETATM    9  O2  UNL     1      17.044   1.259  50.708  1.00  0.00    -0.273 OA
ENDBRANCH   3   5
BRANCH   4  10
HETATM   10  C4  UNL     1      20.805   0.152  52.659  1.00  0.00    -0.036 C 
HETATM   11  C5  UNL     1      21.050  -0.908  53.426  1.00  0.00    -0.013 C 
HETATM   12  C6  UNL     1      22.107  -1.352  54.359  1.00  0.00     0.054 C 
HETATM   13  C7  UNL     1      23.486  -0.897  53.978  1.00  0.00     0.179 C 
HETATM   14  O1  UNL     1      23.638   0.500  53.928  1.00  0.00    -0.355 OA
HETATM   15  C8  UNL     1      22.957   1.473  53.163  1.00  0.00     0.051 C 
HETATM   16  C23 UNL     1      21.761   1.242  52.664  1.00  0.00     0.043 C 
BRANCH  15  17
HETATM   17  C9  UNL     1      23.725   2.705  53.014  1.00  0.00     0.103 C 
BRANCH  17  18
HETATM   18  C10 UNL     1      24.621   2.798  51.864  1.00  0.00    -0.045 A 
HETATM   19  C11 UNL     1      24.165   3.213  50.627  1.00  0.00     0.008 A 
HETATM   20  C12 UNL     1      24.823   3.394  49.433  1.00  0.00     0.001 A 
HETATM   21  C13 UNL     1      26.177   3.100  49.521  1.00  0.00     0.001 A 
HETATM   22  C14 UNL     1      26.771   2.668  50.708  1.00  0.00     0.008 A 
HETATM   23  C15 UNL     1      25.990   2.528  51.842  1.00  0.00    -0.047 A 
BRANCH  23  24
HETATM   24  C16 UNL     1      26.685   2.034  53.039  1.00  0.00     0.077 C 
BRANCH  24  25
HETATM   25  C17 UNL     1      27.069   0.637  52.918  1.00  0.00    -0.054 A 
HETATM   26  C18 UNL     1      26.503  -0.497  52.407  1.00  0.00     0.007 A 
HETATM   27  C19 UNL     1      27.031  -1.758  52.386  1.00  0.00     0.001 A 
HETATM   28  C20 UNL     1      28.274  -1.796  52.967  1.00  0.00     0.000 A 
HETATM   29  C21 UNL     1      29.021  -0.762  53.543  1.00  0.00     0.001 A 
HETATM   30  C22 UNL     1      28.337   0.474  53.484  1.00  0.00     0.007 A 
ENDBRANCH  24  25
ENDBRANCH  23  24
ENDBRANCH  17  18
ENDBRANCH  15  17
ENDBRANCH   4  10
TORSDOF 6
ENDMDL
MODEL 6
REMARK VINA RESULT:      -8.7      3.185      7.558
REMARK  6 active torsions:
REMARK  status: ('A' for Active; 'I' for Inactive)
REMARK    1  A    between atoms: C2_3  and  C24_26 
REMARK    2  A    between atoms: C3_4  and  C4_5 
REMARK    3  A    between atoms: C8_10  and  C9_11 
REMARK    4  A    between atoms: C9_11  and  C10_12 
REMARK    5  A    between atoms: C15_17  and  C16_18 
REMARK    6  A    between atoms: C16_18  and  C17_19 
REMARK       I    between atoms: C24_26  and  N2_27 
ROOT
HETATM    1  N1  UNL     1      24.645   8.528  49.967  1.00  0.00    -0.191 NA
HETATM    2  C1  UNL     1      25.334   7.646  49.625  1.00  0.00     0.104 C 
HETATM    3  C2  UNL     1      26.157   6.563  49.205  1.00  0.00     0.107 C 
HETATM    4  C3  UNL     1      26.040   5.283  49.266  1.00  0.00     0.039 C 
ENDROOT
BRANCH   3   5
HETATM    5  C24 UNL     1      27.392   7.059  48.569  1.00  0.00     0.239 C 
HETATM    6  N2  UNL     1      28.777   7.065  48.794  1.00  0.00    -0.268 NA
HETATM    7  H21 UNL     1      28.647   7.368  49.830  1.00  0.00     0.127 HD
HETATM    8  H22 UNL     1      28.837   7.342  49.776  1.00  0.00     0.127 HD
HETATM    9  O2  UNL     1      27.420   7.707  47.478  1.00  0.00    -0.273 OA
ENDBRANCH   3   5
BRANCH   4  10
HETATM   10  C4  UNL     1      25.041   4.379  49.777  1.00  0.00    -0.036 C 
HETATM   11  C5  UNL     1      23.932   4.099  49.096  1.00  0.00    -0.013 C 
HETATM   12  C6  UNL     1      22.728   3.262  49.280  1.00  0.00     0.054 C 
HETATM   13  C7  UNL     1      22.979   1.990  50.036  1.00  0.00     0.179 C 
HETATM   14  O1  UNL     1      23.465   2.183  51.342  1.00  0.00    -0.355 OA
HETATM   15  C8  UNL     1      24.622   2.847  51.804  1.00  0.00     0.051 C 
HETATM   16  C23 UNL     1      25.226   3.764  51.077  1.00  0.00     0.043 C 
BRANCH  15  17
HETATM   17  C9  UNL     1      25.032   2.400  53.131  1.00  0.00     0.103 C 
BRANCH  17  18
HETATM   18  C10 UNL     1      26.333   1.748  53.244  1.00  0.00    -0.045 A 
HETATM   19  C11 UNL     1      27.462   2.451  53.621  1.00  0.00     0.008 A 
HETATM   20  C12 UNL     1      28.762   2.044  53.811  1.00  0.00     0.001 A 
HETATM   21  C13 UNL     1      28.935   0.688  53.574  1.00  0.00     0.001 A 
HETATM   22  C14 UNL     1      27.883  -0.143  53.185  1.00  0.00     0.008 A 
HETATM   23  C15 UNL     1      26.618   0.398  53.030  1.00  0.00    -0.047 A 
BRANCH  23  24
HETATM   24  C16 UNL     1      25.575  -0.535  52.583  1.00  0.00     0.077 C 
BRANCH  24  25
HETATM   25  C17 UNL     1      24.588  -0.798  53.617  1.00  0.00    -0.054 A 
HETATM   26  C18 UNL     1      24.618  -1.102  54.950  1.00  0.00     0.007 A 
HETATM   27  C19 UNL     1      23.555  -1.322  55.779  1.00  0.00     0.001 A 
HETATM   28  C20 UNL     1      22.360  -1.207  55.114  1.00  0.00     0.000 A 
HETATM   29  C21 UNL     1      22.114  -0.906  53.769  1.00  0.00     0.001 A 
HETATM   30  C22 UNL     1      23.314  -0.706  53.049  1.00  0.00     0.007 A 
ENDBRANCH  24  25
ENDBRANCH  23  24
ENDBRANCH  17  18
ENDBRANCH  15  17
ENDBRANCH   4  10
TORSDOF 6
ENDMDL
MODEL 7
REMARK VINA RESULT:      -8.6      1.893      2.574
REMARK  6 active torsions:
REMARK  status: ('A' for Active; 'I' for Inactive)
REMARK    1  A    between atoms: C2_3  and  C24_26 
REMARK    2  A    between atoms: C3_4  and  C4_5 
REMARK    3  A    between atoms: C8_10  and  C9_11 
REMARK    4  A    between atoms: C9_11  and  C10_12 
REMARK    5  A    between atoms: C15_17  and  C16_18 
REMARK    6  A    between atoms: C16_18  and  C17_19 
REMARK       I    between atoms: C24_26  and  N2_27 
ROOT
HETATM    1  N1  UNL     1      26.671   2.365  50.700  1.00  0.00    -0.191 NA
HETATM    2  C1  UNL     1      26.818   1.941  51.780  1.00  0.00     0.104 C 
HETATM    3  C2  UNL     1      26.985   1.409  53.091  1.00  0.00     0.107 C 
HETATM    4  C3  UNL     1      26.201   0.801  53.909  1.00  0.00     0.039 C 
ENDROOT
BRANCH   3   5
HETATM    5  C24 UNL     1      28.363   1.623  53.571  1.00  0.00     0.239 C 
HETATM    6  N2  UNL     1      29.602   0.965  53.581  1.00  0.00    -0.268 NA
HETATM    7  H21 UNL     1      29.147   0.033  53.907  1.00  0.00     0.127 HD
HETATM    8  H22 UNL     1      29.345   0.021  53.879  1.00  0.00     0.127 HD
HETATM    9  O2  UNL     1      28.747   2.661  54.193  1.00  0.00    -0.273 OA
ENDBRANCH   3   5
BRANCH   4  10
HETATM   10  C4  UNL     1      24.821   0.386  53.873  1.00  0.00    -0.036 C 
HETATM   11  C5  UNL     1      24.406  -0.729  54.468  1.00  0.00    -0.013 C 
HETATM   12  C6  UNL     1      23.131  -1.457  54.643  1.00  0.00     0.054 C 
HETATM   13  C7  UNL     1      21.929  -0.565  54.745  1.00  0.00     0.179 C 
HETATM   14  O1  UNL     1      21.712   0.240  53.611  1.00  0.00    -0.355 OA
HETATM   15  C8  UNL     1      22.542   1.198  52.990  1.00  0.00     0.051 C 
HETATM   16  C23 UNL     1      23.849   1.187  53.155  1.00  0.00     0.043 C 
BRANCH  15  17
HETATM   17  C9  UNL     1      21.789   2.152  52.182  1.00  0.00     0.103 C 
BRANCH  17  18
HETATM   18  C10 UNL     1      22.117   2.229  50.762  1.00  0.00    -0.045 A 
HETATM   19  C11 UNL     1      21.542   1.374  49.841  1.00  0.00     0.008 A 
HETATM   20  C12 UNL     1      21.683   1.284  48.477  1.00  0.00     0.001 A 
HETATM   21  C13 UNL     1      22.563   2.229  47.969  1.00  0.00     0.001 A 
HETATM   22  C14 UNL     1      23.217   3.154  48.784  1.00  0.00     0.008 A 
HETATM   23  C15 UNL     1      22.983   3.135  50.148  1.00  0.00    -0.047 A 
BRANCH  23  24
HETATM   24  C16 UNL     1      23.739   4.117  50.939  1.00  0.00     0.077 C 
BRANCH  24  25
HETATM   25  C17 UNL     1      23.242   5.471  50.760  1.00  0.00    -0.054 A 
HETATM   26  C18 UNL     1      22.023   6.087  50.818  1.00  0.00     0.007 A 
HETATM   27  C19 UNL     1      21.744   7.409  50.612  1.00  0.00     0.001 A 
HETATM   28  C20 UNL     1      22.877   8.126  50.317  1.00  0.00     0.000 A 
HETATM   29  C21 UNL     1      24.204   7.692  50.210  1.00  0.00     0.001 A 
HETATM   30  C22 UNL     1      24.322   6.304  50.452  1.00  0.00     0.007 A 
ENDBRANCH  24  25
ENDBRANCH  23  24
ENDBRANCH  17  18
ENDBRANCH  15  17
ENDBRANCH   4  10
TORSDOF 6
ENDMDL
MODEL 8
REMARK VINA RESULT:      -8.6      2.908      5.537
REMARK  6 active torsions:
REMARK  status: ('A' for Active; 'I' for Inactive)
REMARK    1  A    between atoms: C2_3  and  C24_26 
REMARK    2  A    between atoms: C3_4  and  C4_5 
REMARK    3  A    between atoms: C8_10  and  C9_11 
REMARK    4  A    between atoms: C9_11  and  C10_12 
REMARK    5  A    between atoms: C15_17  and  C16_18 
REMARK    6  A    between atoms: C16_18  and  C17_19 
REMARK       I    between atoms: C24_26  and  N2_27 
ROOT
HETATM    1  N1  UNL     1      27.010   2.466  51.441  1.00  0.00    -0.191 NA
HETATM    2  C1  UNL     1      27.196   1.799  52.384  1.00  0.00     0.104 C 
HETATM    3  C2  UNL     1      27.410   0.975  53.525  1.00  0.00     0.107 C 
HETATM    4  C3  UNL     1      26.649   0.205  54.220  1.00  0.00     0.039 C 
ENDROOT
BRANCH   3   5
HETATM    5  C24 UNL     1      28.815   1.050  53.969  1.00  0.00     0.239 C 
HETATM    6  N2  UNL     1      30.072   0.534  53.618  1.00  0.00    -0.268 NA
HETATM    7  H21 UNL     1      29.676  -0.475  53.532  1.00  0.00     0.127 HD
HETATM    8  H22 UNL     1      29.871  -0.461  53.491  1.00  0.00     0.127 HD
HETATM    9  O2  UNL     1      29.213   1.739  54.958  1.00  0.00    -0.273 OA
ENDBRANCH   3   5
BRANCH   4  10
HETATM   10  C4  UNL     1      25.259  -0.169  54.161  1.00  0.00    -0.036 C 
HETATM   11  C5  UNL     1      24.679  -0.880  55.126  1.00  0.00    -0.013 C 
HETATM   12  C6  UNL     1      23.339  -1.434  55.410  1.00  0.00     0.054 C 
HETATM   13  C7  UNL     1      22.209  -0.585  54.904  1.00  0.00     0.179 C 
HETATM   14  O1  UNL     1      22.212  -0.395  53.510  1.00  0.00    -0.355 OA
HETATM   15  C8  UNL     1      23.193   0.162  52.660  1.00  0.00     0.051 C 
HETATM   16  C23 UNL     1      24.460   0.217  53.015  1.00  0.00     0.043 C 
BRANCH  15  17
HETATM   17  C9  UNL     1      22.634   0.640  51.400  1.00  0.00     0.103 C 
BRANCH  17  18
HETATM   18  C10 UNL     1      21.760   1.809  51.457  1.00  0.00    -0.045 A 
HETATM   19  C11 UNL     1      22.178   2.993  52.033  1.00  0.00     0.008 A 
HETATM   20  C12 UNL     1      21.544   4.205  52.175  1.00  0.00     0.001 A 
HETATM   21  C13 UNL     1      20.265   4.203  51.636  1.00  0.00     0.001 A 
HETATM   22  C14 UNL     1      19.714   3.075  51.026  1.00  0.00     0.008 A 
HETATM   23  C15 UNL     1      20.464   1.915  50.950  1.00  0.00    -0.047 A 
BRANCH  23  24
HETATM   24  C16 UNL     1      19.798   0.763  50.326  1.00  0.00     0.077 C 
BRANCH  24  25
HETATM   25  C17 UNL     1      18.885   0.092  51.236  1.00  0.00    -0.054 A 
HETATM   26  C18 UNL     1      18.964  -0.434  52.496  1.00  0.00     0.007 A 
HETATM   27  C19 UNL     1      17.970  -1.046  53.208  1.00  0.00     0.001 A 
HETATM   28  C20 UNL     1      16.795  -1.094  52.501  1.00  0.00     0.000 A 
HETATM   29  C21 UNL     1      16.508  -0.619  51.215  1.00  0.00     0.001 A 
HETATM   30  C22 UNL     1      17.637  -0.015  50.616  1.00  0.00     0.007 A 
ENDBRANCH  24  25
ENDBRANCH  23  24
ENDBRANCH  17  18
ENDBRANCH  15  17
ENDBRANCH   4  10
TORSDOF 6
ENDMDL
MODEL 9
REMARK VINA RESULT:      -8.5      2.718      5.451
REMARK  6 active torsions:
REMARK  status: ('A' for Active; 'I' for Inactive)
REMARK    1  A    between atoms: C2_3  and  C24_26 
REMARK    2  A    between atoms: C3_4  and  C4_5 
REMARK    3  A    between atoms: C8_10  and  C9_11 
REMARK    4  A    between atoms: C9_11  and  C10_12 
REMARK    5  A    between atoms: C15_17  and  C16_18 
REMARK    6  A    between atoms: C16_18  and  C17_19 
REMARK       I    between atoms: C24_26  and  N2_27 
ROOT
HETATM    1  N1  UNL     1      22.117  -1.895  55.294  1.00  0.00    -0.191 NA
HETATM    2  C1  UNL     1      21.624  -1.199  54.493  1.00  0.00     0.104 C 
HETATM    3  C2  UNL     1      21.040  -0.353  53.508  1.00  0.00     0.107 C 
HETATM    4  C3  UNL     1      21.496   0.593  52.765  1.00  0.00     0.039 C 
ENDROOT
BRANCH   3   5
HETATM    5  C24 UNL     1      19.608  -0.663  53.334  1.00  0.00     0.239 C 
HETATM    6  N2  UNL     1      18.605  -1.439  53.935  1.00  0.00    -0.268 NA
HETATM    7  H21 UNL     1      19.255  -2.309  53.984  1.00  0.00     0.127 HD
HETATM    8  H22 UNL     1      19.073  -2.339  54.061  1.00  0.00     0.127 HD
HETATM    9  O2  UNL     1      18.882  -0.178  52.413  1.00  0.00    -0.273 OA
ENDBRANCH   3   5
BRANCH   4  10
HETATM   10  C4  UNL     1      22.785   1.215  52.594  1.00  0.00    -0.036 C 
HETATM   11  C5  UNL     1      23.917   0.518  52.663  1.00  0.00    -0.013 C 
HETATM   12  C6  UNL     1      25.366   0.787  52.548  1.00  0.00     0.054 C 
HETATM   13  C7  UNL     1      25.708   1.873  51.571  1.00  0.00     0.179 C 
HETATM   14  O1  UNL     1      25.151   3.126  51.884  1.00  0.00    -0.355 OA
HETATM   15  C8  UNL     1      23.806   3.517  52.057  1.00  0.00     0.051 C 
HETATM   16  C23 UNL     1      22.868   2.642  52.357  1.00  0.00     0.043 C 
BRANCH  15  17
HETATM   17  C9  UNL     1      23.611   4.951  51.869  1.00  0.00     0.103 C 
BRANCH  17  18
HETATM   18  C10 UNL     1      23.981   5.511  50.572  1.00  0.00    -0.045 A 
HETATM   19  C11 UNL     1      25.259   5.975  50.325  1.00  0.00     0.008 A 
HETATM   20  C12 UNL     1      25.826   6.511  49.193  1.00  0.00     0.001 A 
HETATM   21  C13 UNL     1      24.931   6.584  48.134  1.00  0.00     0.001 A 
HETATM   22  C14 UNL     1      23.608   6.153  48.243  1.00  0.00     0.008 A 
HETATM   23  C15 UNL     1      23.166   5.631  49.446  1.00  0.00    -0.047 A 
BRANCH  23  24
HETATM   24  C16 UNL     1      21.751   5.235  49.488  1.00  0.00     0.077 C 
BRANCH  24  25
HETATM   25  C17 UNL     1      21.569   3.810  49.269  1.00  0.00    -0.054 A 
HETATM   26  C18 UNL     1      22.273   2.812  48.653  1.00  0.00     0.007 A 
HETATM   27  C19 UNL     1      21.930   1.494  48.545  1.00  0.00     0.001 A 
HETATM   28  C20 UNL     1      20.727   1.231  49.151  1.00  0.00     0.000 A 
HETATM   29  C21 UNL     1      19.861   2.098  49.827  1.00  0.00     0.001 A 
HETATM   30  C22 UNL     1      20.359   3.421  49.851  1.00  0.00     0.007 A 
ENDBRANCH  24  25
ENDBRANCH  23  24
ENDBRANCH  17  18
ENDBRANCH  15  17
ENDBRANCH   4  10
TORSDOF 6
ENDMDL
