MODEL 1
REMARK VINA RESULT:      -8.6      0.000      0.000
REMARK  1 active torsions:
REMARK  status: ('A' for Active; 'I' for Inactive)
REMARK    1  A    between atoms: N2_5  and  C4_6 
ROOT
HETATM    1  N1  UNL     1      28.665  -3.073  53.031  1.00  0.00    -0.192 NA
HETATM    2  C1  UNL     1      28.530  -1.917  53.144  1.00  0.00     0.097 C 
HETATM    3  C2  UNL     1      28.389  -0.494  53.290  1.00  0.00     0.042 A 
HETATM    4  C3  UNL     1      27.533   0.138  52.483  1.00  0.00     0.116 A 
HETATM    5  N2  UNL     1      27.263   1.557  52.486  1.00  0.00    -0.316 N 
HETATM    6  C14 UNL     1      28.014   2.265  53.461  1.00  0.00     0.094 A 
HETATM    7  C15 UNL     1      28.871   1.719  54.281  1.00  0.00    -0.004 A 
HETATM    8  C16 UNL     1      29.163   0.266  54.280  1.00  0.00     0.080 A 
ENDROOT
BRANCH   5   9
HETATM    9  C4  UNL     1      26.349   2.130  51.573  1.00  0.00     0.150 A 
HETATM   10  N3  UNL     1      26.968   2.850  50.618  1.00  0.00    -0.223 NA
HETATM   11  C5  UNL     1      26.288   3.485  49.654  1.00  0.00     0.236 A 
HETATM   12  N4  UNL     1      24.930   3.405  49.633  1.00  0.00    -0.241 NA
HETATM   13  C6  UNL     1      24.273   2.705  50.557  1.00  0.00     0.075 A 
HETATM   14  C7  UNL     1      22.882   2.602  50.586  1.00  0.00     0.035 A 
HETATM   15  C11 UNL     1      24.977   2.061  51.538  1.00  0.00     0.075 A 
HETATM   16  C8  UNL     1      22.235   1.869  51.576  1.00  0.00     0.042 A 
HETATM   17  C9  UNL     1      23.034   1.251  52.526  1.00  0.00     0.103 A 
HETATM   18  C10 UNL     1      24.437   1.307  52.565  1.00  0.00     0.118 A 
HETATM   19  O2  UNL     1      22.428   0.508  53.535  1.00  0.00    -0.346 OA
HETATM   20  O1  UNL     1      25.128   0.644  53.568  1.00  0.00    -0.345 OA
HETATM   21  C12 UNL     1      24.571  -0.598  54.001  1.00  0.00     0.202 C 
HETATM   22  C13 UNL     1      23.102  -0.539  54.208  1.00  0.00     0.202 C 
ENDBRANCH   5   9
TORSDOF 1
ENDMDL
MODEL 2
REMARK VINA RESULT:      -8.1      1.843      2.527
REMARK  1 active torsions:
REMARK  status: ('A' for Active; 'I' for Inactive)
REMARK    1  A    between atoms: N2_5  and  C4_6 
ROOT
HETATM    1  N1  UNL     1      27.630  -2.594  52.657  1.00  0.00    -0.192 NA
HETATM    2  C1  UNL     1      27.113  -1.559  52.821  1.00  0.00     0.097 C 
HETATM    3  C2  UNL     1      26.500  -0.275  53.029  1.00  0.00     0.042 A 
HETATM    4  C3  UNL     1      25.481   0.070  52.237  1.00  0.00     0.116 A 
HETATM    5  N2  UNL     1      24.750   1.314  52.300  1.00  0.00    -0.316 N 
HETATM    6  C14 UNL     1      25.217   2.185  53.319  1.00  0.00     0.094 A 
HETATM    7  C15 UNL     1      26.207   1.921  54.127  1.00  0.00    -0.004 A 
HETATM    8  C16 UNL     1      26.972   0.652  54.065  1.00  0.00     0.080 A 
ENDROOT
BRANCH   5   9
HETATM    9  C4  UNL     1      23.696   1.590  51.399  1.00  0.00     0.150 A 
HETATM   10  N3  UNL     1      24.102   2.335  50.354  1.00  0.00    -0.223 NA
HETATM   11  C5  UNL     1      23.261   2.717  49.383  1.00  0.00     0.236 A 
HETATM   12  N4  UNL     1      21.955   2.342  49.448  1.00  0.00    -0.241 NA
HETATM   13  C6  UNL     1      21.506   1.606  50.463  1.00  0.00     0.075 A 
HETATM   14  C7  UNL     1      20.174   1.207  50.582  1.00  0.00     0.035 A 
HETATM   15  C11 UNL     1      22.373   1.222  51.450  1.00  0.00     0.075 A 
HETATM   16  C8  UNL     1      19.745   0.446  51.665  1.00  0.00     0.042 A 
HETATM   17  C9  UNL     1      20.696   0.105  52.612  1.00  0.00     0.103 A 
HETATM   18  C10 UNL     1      22.053   0.467  52.565  1.00  0.00     0.118 A 
HETATM   19  O2  UNL     1      20.310  -0.655  53.712  1.00  0.00    -0.346 OA
HETATM   20  O1  UNL     1      22.913   0.064  53.576  1.00  0.00    -0.345 OA
HETATM   21  C12 UNL     1      22.661  -1.224  54.140  1.00  0.00     0.202 C 
HETATM   22  C13 UNL     1      21.225  -1.466  54.428  1.00  0.00     0.202 C 
ENDBRANCH   5   9
TORSDOF 1
ENDMDL
MODEL 3
REMARK VINA RESULT:      -7.9      2.896      4.367
REMARK  1 active torsions:
REMARK  status: ('A' for Active; 'I' for Inactive)
REMARK    1  A    between atoms: N2_5  and  C4_6 
ROOT
HETATM    1  N1  UNL     1      27.677  -2.568  52.651  1.00  0.00    -0.192 NA
HETATM    2  C1  UNL     1      27.029  -1.613  52.839  1.00  0.00     0.097 C 
HETATM    3  C2  UNL     1      26.251  -0.424  53.057  1.00  0.00     0.042 A 
HETATM    4  C3  UNL     1      24.920  -0.528  53.014  1.00  0.00     0.116 A 
HETATM    5  N2  UNL     1      23.984   0.555  53.208  1.00  0.00    -0.316 N 
HETATM    6  C14 UNL     1      24.617   1.799  53.464  1.00  0.00     0.094 A 
HETATM    7  C15 UNL     1      25.909   1.981  53.518  1.00  0.00    -0.004 A 
HETATM    8  C16 UNL     1      26.879   0.879  53.309  1.00  0.00     0.080 A 
ENDROOT
BRANCH   5   9
HETATM    9  C4  UNL     1      22.590   0.341  53.122  1.00  0.00     0.150 A 
HETATM   10  N3  UNL     1      22.094  -0.237  54.232  1.00  0.00    -0.223 NA
HETATM   11  C5  UNL     1      20.794  -0.535  54.359  1.00  0.00     0.236 A 
HETATM   12  N4  UNL     1      19.942  -0.246  53.338  1.00  0.00    -0.241 NA
HETATM   13  C6  UNL     1      20.385   0.324  52.219  1.00  0.00     0.075 A 
HETATM   14  C7  UNL     1      19.555   0.629  51.140  1.00  0.00     0.035 A 
HETATM   15  C11 UNL     1      21.716   0.624  52.100  1.00  0.00     0.075 A 
HETATM   16  C8  UNL     1      20.062   1.217  49.986  1.00  0.00     0.042 A 
HETATM   17  C9  UNL     1      21.421   1.483  49.959  1.00  0.00     0.103 A 
HETATM   18  C10 UNL     1      22.322   1.207  51.001  1.00  0.00     0.118 A 
HETATM   19  O2  UNL     1      21.971   2.069  48.823  1.00  0.00    -0.346 OA
HETATM   20  O1  UNL     1      23.666   1.522  50.857  1.00  0.00    -0.345 OA
HETATM   21  C12 UNL     1      23.958   2.708  50.117  1.00  0.00     0.202 C 
HETATM   22  C13 UNL     1      23.165   2.829  48.868  1.00  0.00     0.202 C 
ENDBRANCH   5   9
TORSDOF 1
ENDMDL
MODEL 4
REMARK VINA RESULT:      -7.8      2.461      5.526
REMARK  1 active torsions:
REMARK  status: ('A' for Active; 'I' for Inactive)
REMARK    1  A    between atoms: N2_5  and  C4_6 
ROOT
HETATM    1  N1  UNL     1      24.135   7.928  50.841  1.00  0.00    -0.192 NA
HETATM    2  C1  UNL     1      24.520   6.851  50.600  1.00  0.00     0.097 C 
HETATM    3  C2  UNL     1      25.020   5.536  50.303  1.00  0.00     0.042 A 
HETATM    4  C3  UNL     1      24.352   4.486  50.790  1.00  0.00     0.116 A 
HETATM    5  N2  UNL     1      24.705   3.100  50.596  1.00  0.00    -0.316 N 
HETATM    6  C14 UNL     1      25.873   2.927  49.808  1.00  0.00     0.094 A 
HETATM    7  C15 UNL     1      26.580   3.901  49.302  1.00  0.00    -0.004 A 
HETATM    8  C16 UNL     1      26.233   5.328  49.503  1.00  0.00     0.080 A 
ENDROOT
BRANCH   5   9
HETATM    9  C4  UNL     1      23.939   2.062  51.173  1.00  0.00     0.150 A 
HETATM   10  N3  UNL     1      22.763   1.885  50.540  1.00  0.00    -0.223 NA
HETATM   11  C5  UNL     1      21.879   0.956  50.928  1.00  0.00     0.236 A 
HETATM   12  N4  UNL     1      22.172   0.162  51.994  1.00  0.00    -0.241 NA
HETATM   13  C6  UNL     1      23.322   0.300  52.653  1.00  0.00     0.075 A 
HETATM   14  C7  UNL     1      23.663  -0.481  53.758  1.00  0.00     0.035 A 
HETATM   15  C11 UNL     1      24.217   1.253  52.248  1.00  0.00     0.075 A 
HETATM   16  C8  UNL     1      24.871  -0.296  54.423  1.00  0.00     0.042 A 
HETATM   17  C9  UNL     1      25.712   0.692  53.939  1.00  0.00     0.103 A 
HETATM   18  C10 UNL     1      25.442   1.518  52.835  1.00  0.00     0.118 A 
HETATM   19  O2  UNL     1      26.931   0.911  54.575  1.00  0.00    -0.346 OA
HETATM   20  O1  UNL     1      26.367   2.475  52.443  1.00  0.00    -0.345 OA
HETATM   21  C12 UNL     1      27.742   2.122  52.598  1.00  0.00     0.202 C 
HETATM   22  C13 UNL     1      28.039   1.486  53.906  1.00  0.00     0.202 C 
ENDBRANCH   5   9
TORSDOF 1
ENDMDL
MODEL 5
REMARK VINA RESULT:      -7.8      2.908      6.108
REMARK  1 active torsions:
REMARK  status: ('A' for Active; 'I' for Inactive)
REMARK    1  A    between atoms: N2_5  and  C4_6 
ROOT
HETATM    1  N1  UNL     1      24.097   6.323  51.840  1.00  0.00    -0.192 NA
HETATM    2  C1  UNL     1      23.744   5.266  51.488  1.00  0.00     0.097 C 
HETATM    3  C2  UNL     1      23.326   3.966  51.036  1.00  0.00     0.042 A 
HETATM    4  C3  UNL     1      22.935   3.078  51.954  1.00  0.00     0.116 A 
HETATM    5  N2  UNL     1      22.486   1.732  51.686  1.00  0.00    -0.316 N 
HETATM    6  C14 UNL     1      22.491   1.407  50.304  1.00  0.00     0.094 A 
HETATM    7  C15 UNL     1      22.862   2.218  49.351  1.00  0.00    -0.004 A 
HETATM    8  C16 UNL     1      23.335   3.598  49.615  1.00  0.00     0.080 A 
ENDROOT
BRANCH   5   9
HETATM    9  C4  UNL     1      22.111   0.862  52.735  1.00  0.00     0.150 A 
HETATM   10  N3  UNL     1      20.774   0.784  52.878  1.00  0.00    -0.223 NA
HETATM   11  C5  UNL     1      20.203   0.020  53.818  1.00  0.00     0.236 A 
HETATM   12  N4  UNL     1      20.992  -0.702  54.660  1.00  0.00    -0.241 NA
HETATM   13  C6  UNL     1      22.319  -0.656  54.559  1.00  0.00     0.075 A 
HETATM   14  C7  UNL     1      23.171  -1.367  55.405  1.00  0.00     0.035 A 
HETATM   15  C11 UNL     1      22.892   0.128  53.595  1.00  0.00     0.075 A 
HETATM   16  C8  UNL     1      24.554  -1.282  55.271  1.00  0.00     0.042 A 
HETATM   17  C9  UNL     1      25.040  -0.463  54.265  1.00  0.00     0.103 A 
HETATM   18  C10 UNL     1      24.250   0.284  53.374  1.00  0.00     0.118 A 
HETATM   19  O2  UNL     1      26.417  -0.348  54.095  1.00  0.00    -0.346 OA
HETATM   20  O1  UNL     1      24.855   1.069  52.404  1.00  0.00    -0.345 OA
HETATM   21  C12 UNL     1      26.061   0.554  51.839  1.00  0.00     0.202 C 
HETATM   22  C13 UNL     1      26.997   0.010  52.855  1.00  0.00     0.202 C 
ENDBRANCH   5   9
TORSDOF 1
ENDMDL
MODEL 6
REMARK VINA RESULT:      -7.8      3.325      5.933
REMARK  1 active torsions:
REMARK  status: ('A' for Active; 'I' for Inactive)
REMARK    1  A    between atoms: N2_5  and  C4_6 
ROOT
HETATM    1  N1  UNL     1      24.620   8.488  50.022  1.00  0.00    -0.192 NA
HETATM    2  C1  UNL     1      25.022   7.396  49.920  1.00  0.00     0.097 C 
HETATM    3  C2  UNL     1      25.541   6.061  49.792  1.00  0.00     0.042 A 
HETATM    4  C3  UNL     1      24.945   5.086  50.485  1.00  0.00     0.116 A 
HETATM    5  N2  UNL     1      25.329   3.694  50.480  1.00  0.00    -0.316 N 
HETATM    6  C14 UNL     1      26.441   3.425  49.640  1.00  0.00     0.094 A 
HETATM    7  C15 UNL     1      27.077   4.322  48.937  1.00  0.00    -0.004 A 
HETATM    8  C16 UNL     1      26.700   5.756  48.942  1.00  0.00     0.080 A 
ENDROOT
BRANCH   5   9
HETATM    9  C4  UNL     1      24.641   2.743  51.268  1.00  0.00     0.150 A 
HETATM   10  N3  UNL     1      25.233   2.548  52.462  1.00  0.00    -0.223 NA
HETATM   11  C5  UNL     1      24.748   1.682  53.362  1.00  0.00     0.236 A 
HETATM   12  N4  UNL     1      23.624   0.974  53.068  1.00  0.00    -0.241 NA
HETATM   13  C6  UNL     1      23.004   1.132  51.900  1.00  0.00     0.075 A 
HETATM   14  C7  UNL     1      21.856   0.422  51.546  1.00  0.00     0.035 A 
HETATM   15  C11 UNL     1      23.507   2.019  50.987  1.00  0.00     0.075 A 
HETATM   16  C8  UNL     1      21.245   0.612  50.310  1.00  0.00     0.042 A 
HETATM   17  C9  UNL     1      21.828   1.531  49.453  1.00  0.00     0.103 A 
HETATM   18  C10 UNL     1      22.981   2.284  49.735  1.00  0.00     0.118 A 
HETATM   19  O2  UNL     1      21.250   1.751  48.206  1.00  0.00    -0.346 OA
HETATM   20  O1  UNL     1      23.471   3.178  48.793  1.00  0.00    -0.345 OA
HETATM   21  C12 UNL     1      22.494   3.859  48.005  1.00  0.00     0.202 C 
HETATM   22  C13 UNL     1      21.424   2.964  47.497  1.00  0.00     0.202 C 
ENDBRANCH   5   9
TORSDOF 1
ENDMDL
MODEL 7
REMARK VINA RESULT:      -7.6      2.798      5.828
REMARK  1 active torsions:
REMARK  status: ('A' for Active; 'I' for Inactive)
REMARK    1  A    between atoms: N2_5  and  C4_6 
ROOT
HETATM    1  N1  UNL     1      22.528   2.280  47.087  1.00  0.00    -0.192 NA
HETATM    2  C1  UNL     1      22.778   2.530  48.201  1.00  0.00     0.097 C 
HETATM    3  C2  UNL     1      23.082   2.863  49.566  1.00  0.00     0.042 A 
HETATM    4  C3  UNL     1      22.664   2.031  50.524  1.00  0.00     0.116 A 
HETATM    5  N2  UNL     1      22.876   2.204  51.942  1.00  0.00    -0.316 N 
HETATM    6  C14 UNL     1      23.601   3.382  52.258  1.00  0.00     0.094 A 
HETATM    7  C15 UNL     1      24.039   4.245  51.380  1.00  0.00    -0.004 A 
HETATM    8  C16 UNL     1      23.817   4.083  49.923  1.00  0.00     0.080 A 
ENDROOT
BRANCH   5   9
HETATM    9  C4  UNL     1      22.373   1.270  52.876  1.00  0.00     0.150 A 
HETATM   10  N3  UNL     1      21.034   1.344  52.999  1.00  0.00    -0.223 NA
HETATM   11  C5  UNL     1      20.352   0.552  53.837  1.00  0.00     0.236 A 
HETATM   12  N4  UNL     1      21.026  -0.358  54.591  1.00  0.00    -0.241 NA
HETATM   13  C6  UNL     1      22.351  -0.467  54.505  1.00  0.00     0.075 A 
HETATM   14  C7  UNL     1      23.089  -1.376  55.266  1.00  0.00     0.035 A 
HETATM   15  C11 UNL     1      23.038   0.347  53.647  1.00  0.00     0.075 A 
HETATM   16  C8  UNL     1      24.474  -1.450  55.152  1.00  0.00     0.042 A 
HETATM   17  C9  UNL     1      25.080  -0.585  54.255  1.00  0.00     0.103 A 
HETATM   18  C10 UNL     1      24.409   0.356  53.456  1.00  0.00     0.118 A 
HETATM   19  O2  UNL     1      26.464  -0.625  54.111  1.00  0.00    -0.346 OA
HETATM   20  O1  UNL     1      25.128   1.168  52.591  1.00  0.00    -0.345 OA
HETATM   21  C12 UNL     1      26.273   0.576  51.977  1.00  0.00     0.202 C 
HETATM   22  C13 UNL     1      27.112  -0.198  52.926  1.00  0.00     0.202 C 
ENDBRANCH   5   9
TORSDOF 1
ENDMDL
MODEL 8
REMARK VINA RESULT:      -7.6      2.812      6.697
REMARK  1 active torsions:
REMARK  status: ('A' for Active; 'I' for Inactive)
REMARK    1  A    between atoms: N2_5  and  C4_6 
ROOT
HETATM    1  N1  UNL     1      19.620   2.876  47.513  1.00  0.00    -0.192 NA
HETATM    2  C1  UNL     1      20.138   3.159  48.521  1.00  0.00     0.097 C 
HETATM    3  C2  UNL     1      20.757   3.524  49.766  1.00  0.00     0.042 A 
HETATM    4  C3  UNL     1      21.450   2.588  50.421  1.00  0.00     0.116 A 
HETATM    5  N2  UNL     1      22.133   2.772  51.680  1.00  0.00    -0.316 N 
HETATM    6  C14 UNL     1      22.010   4.089  52.194  1.00  0.00     0.094 A 
HETATM    7  C15 UNL     1      21.348   5.055  51.615  1.00  0.00    -0.004 A 
HETATM    8  C16 UNL     1      20.634   4.875  50.329  1.00  0.00     0.080 A 
ENDROOT
BRANCH   5   9
HETATM    9  C4  UNL     1      22.824   1.706  52.300  1.00  0.00     0.150 A 
HETATM   10  N3  UNL     1      22.003   0.921  53.023  1.00  0.00    -0.223 NA
HETATM   11  C5  UNL     1      22.452  -0.145  53.700  1.00  0.00     0.236 A 
HETATM   12  N4  UNL     1      23.778  -0.449  53.659  1.00  0.00    -0.241 NA
HETATM   13  C6  UNL     1      24.629   0.299  52.959  1.00  0.00     0.075 A 
HETATM   14  C7  UNL     1      25.998   0.035  52.896  1.00  0.00     0.035 A 
HETATM   15  C11 UNL     1      24.160   1.385  52.272  1.00  0.00     0.075 A 
HETATM   16  C8  UNL     1      26.853   0.849  52.159  1.00  0.00     0.042 A 
HETATM   17  C9  UNL     1      26.285   1.925  51.497  1.00  0.00     0.103 A 
HETATM   18  C10 UNL     1      24.919   2.256  51.511  1.00  0.00     0.118 A 
HETATM   19  O2  UNL     1      27.105   2.765  50.749  1.00  0.00    -0.346 OA
HETATM   20  O1  UNL     1      24.468   3.362  50.805  1.00  0.00    -0.345 OA
HETATM   21  C12 UNL     1      25.133   3.634  49.570  1.00  0.00     0.202 C 
HETATM   22  C13 UNL     1      26.611   3.534  49.667  1.00  0.00     0.202 C 
ENDBRANCH   5   9
TORSDOF 1
ENDMDL
MODEL 9
REMARK VINA RESULT:      -7.5      2.547      6.241
REMARK  1 active torsions:
REMARK  status: ('A' for Active; 'I' for Inactive)
REMARK    1  A    between atoms: N2_5  and  C4_6 
ROOT
HETATM    1  N1  UNL     1      18.021   3.946  51.994  1.00  0.00    -0.192 NA
HETATM    2  C1  UNL     1      18.851   3.340  51.438  1.00  0.00     0.097 C 
HETATM    3  C2  UNL     1      19.862   2.603  50.730  1.00  0.00     0.042 A 
HETATM    4  C3  UNL     1      21.076   2.513  51.282  1.00  0.00     0.116 A 
HETATM    5  N2  UNL     1      22.209   1.817  50.718  1.00  0.00    -0.316 N 
HETATM    6  C14 UNL     1      21.921   1.203  49.471  1.00  0.00     0.094 A 
HETATM    7  C15 UNL     1      20.763   1.250  48.868  1.00  0.00    -0.004 A 
HETATM    8  C16 UNL     1      19.597   1.970  49.432  1.00  0.00     0.080 A 
ENDROOT
BRANCH   5   9
HETATM    9  C4  UNL     1      23.459   1.800  51.376  1.00  0.00     0.150 A 
HETATM   10  N3  UNL     1      24.316   2.705  50.865  1.00  0.00    -0.223 NA
HETATM   11  C5  UNL     1      25.560   2.851  51.339  1.00  0.00     0.236 A 
HETATM   12  N4  UNL     1      25.979   2.065  52.367  1.00  0.00    -0.241 NA
HETATM   13  C6  UNL     1      25.168   1.155  52.905  1.00  0.00     0.075 A 
HETATM   14  C7  UNL     1      25.554   0.317  53.952  1.00  0.00     0.035 A 
HETATM   15  C11 UNL     1      23.899   1.013  52.413  1.00  0.00     0.075 A 
HETATM   16  C8  UNL     1      24.677  -0.627  54.477  1.00  0.00     0.042 A 
HETATM   17  C9  UNL     1      23.413  -0.696  53.914  1.00  0.00     0.103 A 
HETATM   18  C10 UNL     1      22.950   0.110  52.861  1.00  0.00     0.118 A 
HETATM   19  O2  UNL     1      22.505  -1.627  54.409  1.00  0.00    -0.346 OA
HETATM   20  O1  UNL     1      21.658  -0.052  52.382  1.00  0.00    -0.345 OA
HETATM   21  C12 UNL     1      20.666  -0.391  53.351  1.00  0.00     0.202 C 
HETATM   22  C13 UNL     1      21.105  -1.452  54.292  1.00  0.00     0.202 C 
ENDBRANCH   5   9
TORSDOF 1
ENDMDL
