MODEL 1
REMARK VINA RESULT:      -9.0      0.000      0.000
REMARK  6 active torsions:
REMARK  status: ('A' for Active; 'I' for Inactive)
REMARK    1  A    between atoms: N2_5  and  C4_6 
REMARK    2  A    between atoms: C7_9  and  N3_10 
REMARK       I    between atoms: N3_10  and  C8_11 
REMARK    3  A    between atoms: C8_11  and  C9_13 
REMARK    4  A    between atoms: C10_14  and  C11_15 
REMARK    5  A    between atoms: C13_20  and  O2_21 
REMARK    6  A    between atoms: C15_23  and  N6_24 
ROOT
HETATM    1  N3  UNL     1      25.017   2.942  50.553  1.00  0.00    -0.323 N 
HETATM    2  C8  UNL     1      25.523   2.195  51.685  1.00  0.00     0.253 C 
HETATM    3  O1  UNL     1      26.667   2.615  51.868  1.00  0.00    -0.268 OA
HETATM    4  H10 UNL     1      24.066   2.851  50.084  1.00  0.00     0.169 HD
ENDROOT
BRANCH   2   5
HETATM    5  C9  UNL     1      24.601   1.225  52.250  1.00  0.00     0.028 A 
HETATM    6  C10 UNL     1      25.053   0.203  52.952  1.00  0.00     0.009 A 
HETATM    7  C14 UNL     1      23.911  -0.583  53.373  1.00  0.00     0.039 A 
HETATM    8  C15 UNL     1      22.801  -0.018  52.917  1.00  0.00     0.008 A 
HETATM    9  C16 UNL     1      23.126   1.211  52.158  1.00  0.00     0.101 A 
BRANCH   6  10
HETATM   10  C11 UNL     1      26.398  -0.255  53.348  1.00  0.00     0.103 A 
HETATM   11  N4  UNL     1      26.665  -1.351  52.614  1.00  0.00    -0.226 NA
HETATM   12  P1  UNL     1      28.194  -2.086  52.889  1.00  0.00     0.208 P 
HETATM   13  N5  UNL     1      29.075  -1.226  54.084  1.00  0.00    -0.239 NA
HETATM   14  C12 UNL     1      28.446  -0.152  54.592  1.00  0.00     0.157 A 
HETATM   15  C13 UNL     1      27.197   0.356  54.296  1.00  0.00     0.112 A 
BRANCH  15  16
HETATM   16  O2  UNL     1      26.627   1.476  54.876  1.00  0.00    -0.357 OA
HETATM   17  H12 UNL     1      25.746   1.427  55.366  1.00  0.00     0.218 HD
ENDBRANCH  15  16
ENDBRANCH   6  10
BRANCH   8  18
HETATM   18  N6  UNL     1      21.397  -0.303  52.989  1.00  0.00    -0.402 N 
HETATM   19  H14 UNL     1      20.786  -0.103  53.816  1.00  0.00     0.156 HD
HETATM   20  H15 UNL     1      20.789  -0.742  52.244  1.00  0.00     0.156 HD
ENDBRANCH   8  18
ENDBRANCH   2   5
BRANCH   1  21
HETATM   21  C7  UNL     1      25.802   3.940  49.909  1.00  0.00     0.035 A 
HETATM   22  C6  UNL     1      26.922   3.943  49.132  1.00  0.00     0.032 A 
HETATM   23  C5  UNL     1      27.423   5.134  48.654  1.00  0.00     0.031 A 
HETATM   24  C4  UNL     1      26.840   6.340  48.925  1.00  0.00     0.030 A 
HETATM   25  C18 UNL     1      25.707   6.377  49.706  1.00  0.00     0.031 A 
HETATM   26  C17 UNL     1      25.198   5.179  50.191  1.00  0.00     0.032 A 
BRANCH  24  27
HETATM   27  N2  UNL     1      27.426   7.519  48.392  1.00  0.00    -0.378 N 
HETATM   28  C3  UNL     1      27.019   8.860  48.770  1.00  0.00     0.142 C 
HETATM   29  C2  UNL     1      28.170   9.387  49.601  1.00  0.00     0.136 C 
HETATM   30  N1  UNL     1      29.439   9.176  49.058  1.00  0.00    -0.414 N 
HETATM   31  C1  UNL     1      30.370  10.260  49.127  1.00  0.00     0.143 C 
HETATM   32  C20 UNL     1      29.700   8.158  48.145  1.00  0.00     0.136 C 
HETATM   33  C19 UNL     1      28.507   7.567  47.428  1.00  0.00     0.142 C 
ENDBRANCH  24  27
ENDBRANCH   1  21
TORSDOF 6
ENDMDL
MODEL 2
REMARK VINA RESULT:      -8.3      1.552      1.854
REMARK  6 active torsions:
REMARK  status: ('A' for Active; 'I' for Inactive)
REMARK    1  A    between atoms: N2_5  and  C4_6 
REMARK    2  A    between atoms: C7_9  and  N3_10 
REMARK       I    between atoms: N3_10  and  C8_11 
REMARK    3  A    between atoms: C8_11  and  C9_13 
REMARK    4  A    between atoms: C10_14  and  C11_15 
REMARK    5  A    between atoms: C13_20  and  O2_21 
REMARK    6  A    between atoms: C15_23  and  N6_24 
ROOT
HETATM    1  N3  UNL     1      24.995   2.962  50.662  1.00  0.00    -0.323 N 
HETATM    2  C8  UNL     1      25.601   2.152  51.696  1.00  0.00     0.253 C 
HETATM    3  O1  UNL     1      26.768   2.538  51.772  1.00  0.00    -0.268 OA
HETATM    4  H10 UNL     1      23.997   2.914  50.295  1.00  0.00     0.169 HD
ENDROOT
BRANCH   2   5
HETATM    5  C9  UNL     1      24.720   1.175  52.314  1.00  0.00     0.028 A 
HETATM    6  C10 UNL     1      25.220   0.162  52.996  1.00  0.00     0.009 A 
HETATM    7  C14 UNL     1      24.109  -0.634  53.481  1.00  0.00     0.039 A 
HETATM    8  C15 UNL     1      22.971  -0.083  53.082  1.00  0.00     0.008 A 
HETATM    9  C16 UNL     1      23.242   1.146  52.302  1.00  0.00     0.101 A 
BRANCH   6  10
HETATM   10  C11 UNL     1      26.588  -0.280  53.322  1.00  0.00     0.103 A 
HETATM   11  N4  UNL     1      27.062   0.579  54.244  1.00  0.00    -0.226 NA
HETATM   12  P1  UNL     1      28.661   0.281  54.799  1.00  0.00     0.208 P 
HETATM   13  N5  UNL     1      29.323  -1.101  54.027  1.00  0.00    -0.239 NA
HETATM   14  C12 UNL     1      28.510  -1.704  53.143  1.00  0.00     0.157 A 
HETATM   15  C13 UNL     1      27.224  -1.373  52.765  1.00  0.00     0.112 A 
BRANCH  15  16
HETATM   16  O2  UNL     1      26.457  -2.059  51.839  1.00  0.00    -0.357 OA
HETATM   17  H12 UNL     1      26.003  -2.930  52.071  1.00  0.00     0.218 HD
ENDBRANCH  15  16
ENDBRANCH   6  10
BRANCH   8  18
HETATM   18  N6  UNL     1      21.576  -0.381  53.230  1.00  0.00    -0.402 N 
HETATM   19  H14 UNL     1      21.191  -1.213  53.737  1.00  0.00     0.156 HD
HETATM   20  H15 UNL     1      20.755   0.174  52.862  1.00  0.00     0.156 HD
ENDBRANCH   8  18
ENDBRANCH   2   5
BRANCH   1  21
HETATM   21  C7  UNL     1      25.732   3.974  49.981  1.00  0.00     0.035 A 
HETATM   22  C6  UNL     1      26.847   4.001  49.197  1.00  0.00     0.032 A 
HETATM   23  C5  UNL     1      27.291   5.198  48.679  1.00  0.00     0.031 A 
HETATM   24  C4  UNL     1      26.657   6.385  48.916  1.00  0.00     0.030 A 
HETATM   25  C18 UNL     1      25.528   6.396  49.704  1.00  0.00     0.031 A 
HETATM   26  C17 UNL     1      25.075   5.193  50.229  1.00  0.00     0.032 A 
BRANCH  24  27
HETATM   27  N2  UNL     1      27.188   7.571  48.343  1.00  0.00    -0.378 N 
HETATM   28  C3  UNL     1      26.745   8.117  47.073  1.00  0.00     0.142 C 
HETATM   29  C2  UNL     1      25.968   9.362  47.444  1.00  0.00     0.136 C 
HETATM   30  N1  UNL     1      26.592  10.195  48.376  1.00  0.00    -0.414 N 
HETATM   31  C1  UNL     1      26.546  11.604  48.131  1.00  0.00     0.143 C 
HETATM   32  C20 UNL     1      27.551   9.727  49.271  1.00  0.00     0.136 C 
HETATM   33  C19 UNL     1      28.212   8.411  48.929  1.00  0.00     0.142 C 
ENDBRANCH  24  27
ENDBRANCH   1  21
TORSDOF 6
ENDMDL
MODEL 3
REMARK VINA RESULT:      -8.2      3.757      8.434
REMARK  6 active torsions:
REMARK  status: ('A' for Active; 'I' for Inactive)
REMARK    1  A    between atoms: N2_5  and  C4_6 
REMARK    2  A    between atoms: C7_9  and  N3_10 
REMARK       I    between atoms: N3_10  and  C8_11 
REMARK    3  A    between atoms: C8_11  and  C9_13 
REMARK    4  A    between atoms: C10_14  and  C11_15 
REMARK    5  A    between atoms: C13_20  and  O2_21 
REMARK    6  A    between atoms: C15_23  and  N6_24 
ROOT
HETATM    1  N3  UNL     1      22.468   4.226  51.634  1.00  0.00    -0.323 N 
HETATM    2  C8  UNL     1      22.428   4.584  50.233  1.00  0.00     0.253 C 
HETATM    3  O1  UNL     1      23.050   3.695  49.650  1.00  0.00    -0.268 OA
HETATM    4  H10 UNL     1      22.054   4.759  52.456  1.00  0.00     0.169 HD
ENDROOT
BRANCH   2   5
HETATM    5  C9  UNL     1      21.711   5.810  49.927  1.00  0.00     0.028 A 
HETATM    6  C10 UNL     1      22.370   6.909  49.611  1.00  0.00     0.009 A 
HETATM    7  C14 UNL     1      21.396   7.954  49.368  1.00  0.00     0.039 A 
HETATM    8  C15 UNL     1      20.176   7.462  49.542  1.00  0.00     0.008 A 
HETATM    9  C16 UNL     1      20.249   6.029  49.906  1.00  0.00     0.101 A 
BRANCH   6  10
HETATM   10  C11 UNL     1      23.800   7.245  49.479  1.00  0.00     0.103 A 
HETATM   11  N4  UNL     1      24.048   7.366  48.161  1.00  0.00    -0.226 NA
HETATM   12  P1  UNL     1      25.665   7.759  47.733  1.00  0.00     0.208 P 
HETATM   13  N5  UNL     1      26.642   7.919  49.133  1.00  0.00    -0.239 NA
HETATM   14  C12 UNL     1      26.003   7.717  50.299  1.00  0.00     0.157 A 
HETATM   15  C13 UNL     1      24.681   7.397  50.532  1.00  0.00     0.112 A 
BRANCH  15  16
HETATM   16  O2  UNL     1      24.108   7.207  51.777  1.00  0.00    -0.357 OA
HETATM   17  H12 UNL     1      24.499   7.626  52.609  1.00  0.00     0.218 HD
ENDBRANCH  15  16
ENDBRANCH   6  10
BRANCH   8  18
HETATM   18  N6  UNL     1      18.839   7.973  49.456  1.00  0.00    -0.402 N 
HETATM   19  H14 UNL     1      18.074   7.555  48.874  1.00  0.00     0.156 HD
HETATM   20  H15 UNL     1      18.438   8.817  49.949  1.00  0.00     0.156 HD
ENDBRANCH   8  18
ENDBRANCH   2   5
BRANCH   1  21
HETATM   21  C7  UNL     1      23.120   3.040  52.081  1.00  0.00     0.035 A 
HETATM   22  C6  UNL     1      22.900   1.701  51.946  1.00  0.00     0.032 A 
HETATM   23  C5  UNL     1      23.768   0.802  52.523  1.00  0.00     0.031 A 
HETATM   24  C4  UNL     1      24.864   1.191  53.240  1.00  0.00     0.030 A 
HETATM   25  C18 UNL     1      25.119   2.535  53.397  1.00  0.00     0.031 A 
HETATM   26  C17 UNL     1      24.247   3.447  52.818  1.00  0.00     0.032 A 
BRANCH  24  27
HETATM   27  N2  UNL     1      25.705   0.194  53.803  1.00  0.00    -0.378 N 
HETATM   28  C3  UNL     1      25.878  -1.128  53.229  1.00  0.00     0.142 C 
HETATM   29  C2  UNL     1      27.282  -1.117  52.664  1.00  0.00     0.136 C 
HETATM   30  N1  UNL     1      28.260  -0.599  53.517  1.00  0.00    -0.414 N 
HETATM   31  C1  UNL     1      29.505  -1.301  53.590  1.00  0.00     0.143 C 
HETATM   32  C20 UNL     1      27.958   0.289  54.546  1.00  0.00     0.136 C 
HETATM   33  C19 UNL     1      26.516   0.342  54.994  1.00  0.00     0.142 C 
ENDBRANCH  24  27
ENDBRANCH   1  21
TORSDOF 6
ENDMDL
MODEL 4
REMARK VINA RESULT:      -8.1      1.388      1.745
REMARK  6 active torsions:
REMARK  status: ('A' for Active; 'I' for Inactive)
REMARK    1  A    between atoms: N2_5  and  C4_6 
REMARK    2  A    between atoms: C7_9  and  N3_10 
REMARK       I    between atoms: N3_10  and  C8_11 
REMARK    3  A    between atoms: C8_11  and  C9_13 
REMARK    4  A    between atoms: C10_14  and  C11_15 
REMARK    5  A    between atoms: C13_20  and  O2_21 
REMARK    6  A    between atoms: C15_23  and  N6_24 
ROOT
HETATM    1  N3  UNL     1      24.462   3.168  50.095  1.00  0.00    -0.323 N 
HETATM    2  C8  UNL     1      23.831   3.301  51.391  1.00  0.00     0.253 C 
HETATM    3  O1  UNL     1      24.091   4.446  51.764  1.00  0.00    -0.268 OA
HETATM    4  H10 UNL     1      24.477   2.313  49.461  1.00  0.00     0.169 HD
ENDROOT
BRANCH   2   5
HETATM    5  C9  UNL     1      23.116   2.125  51.856  1.00  0.00     0.028 A 
HETATM    6  C10 UNL     1      23.754   1.165  52.498  1.00  0.00     0.009 A 
HETATM    7  C14 UNL     1      22.788   0.135  52.826  1.00  0.00     0.039 A 
HETATM    8  C15 UNL     1      21.595   0.498  52.375  1.00  0.00     0.008 A 
HETATM    9  C16 UNL     1      21.676   1.821  51.716  1.00  0.00     0.101 A 
BRANCH   6  10
HETATM   10  C11 UNL     1      25.157   0.960  52.905  1.00  0.00     0.103 A 
HETATM   11  N4  UNL     1      25.525  -0.244  52.427  1.00  0.00    -0.226 NA
HETATM   12  P1  UNL     1      27.139  -0.727  52.769  1.00  0.00     0.208 P 
HETATM   13  N5  UNL     1      27.954   0.479  53.677  1.00  0.00    -0.239 NA
HETATM   14  C12 UNL     1      27.221   1.569  53.962  1.00  0.00     0.157 A 
HETATM   15  C13 UNL     1      25.912   1.857  53.635  1.00  0.00     0.112 A 
BRANCH  15  16
HETATM   16  O2  UNL     1      25.235   3.016  53.976  1.00  0.00    -0.357 OA
HETATM   17  H12 UNL     1      24.316   3.218  53.610  1.00  0.00     0.218 HD
ENDBRANCH  15  16
ENDBRANCH   6  10
BRANCH   8  18
HETATM   18  N6  UNL     1      20.277  -0.069  52.382  1.00  0.00    -0.402 N 
HETATM   19  H14 UNL     1      19.792  -0.449  53.229  1.00  0.00     0.156 HD
HETATM   20  H15 UNL     1      19.620  -0.183  51.561  1.00  0.00     0.156 HD
ENDBRANCH   8  18
ENDBRANCH   2   5
BRANCH   1  21
HETATM   21  C7  UNL     1      25.182   4.245  49.504  1.00  0.00     0.035 A 
HETATM   22  C6  UNL     1      24.861   5.480  49.024  1.00  0.00     0.032 A 
HETATM   23  C5  UNL     1      25.847   6.294  48.511  1.00  0.00     0.031 A 
HETATM   24  C4  UNL     1      27.160   5.919  48.458  1.00  0.00     0.030 A 
HETATM   25  C18 UNL     1      27.522   4.678  48.934  1.00  0.00     0.031 A 
HETATM   26  C17 UNL     1      26.533   3.853  49.452  1.00  0.00     0.032 A 
BRANCH  24  27
HETATM   27  N2  UNL     1      28.109   6.822  47.910  1.00  0.00    -0.378 N 
HETATM   28  C3  UNL     1      27.807   8.205  47.583  1.00  0.00     0.142 C 
HETATM   29  C2  UNL     1      28.541   9.013  48.632  1.00  0.00     0.136 C 
HETATM   30  N1  UNL     1      29.864   8.628  48.858  1.00  0.00    -0.414 N 
HETATM   31  C1  UNL     1      30.835   9.669  48.997  1.00  0.00     0.143 C 
HETATM   32  C20 UNL     1      30.328   7.347  48.572  1.00  0.00     0.136 C 
HETATM   33  C19 UNL     1      29.495   6.522  47.618  1.00  0.00     0.142 C 
ENDBRANCH  24  27
ENDBRANCH   1  21
TORSDOF 6
ENDMDL
MODEL 5
REMARK VINA RESULT:      -7.9      3.325      5.051
REMARK  6 active torsions:
REMARK  status: ('A' for Active; 'I' for Inactive)
REMARK    1  A    between atoms: N2_5  and  C4_6 
REMARK    2  A    between atoms: C7_9  and  N3_10 
REMARK       I    between atoms: N3_10  and  C8_11 
REMARK    3  A    between atoms: C8_11  and  C9_13 
REMARK    4  A    between atoms: C10_14  and  C11_15 
REMARK    5  A    between atoms: C13_20  and  O2_21 
REMARK    6  A    between atoms: C15_23  and  N6_24 
ROOT
HETATM    1  N3  UNL     1      24.314   3.005  49.956  1.00  0.00    -0.323 N 
HETATM    2  C8  UNL     1      23.645   3.054  51.238  1.00  0.00     0.253 C 
HETATM    3  O1  UNL     1      23.871   4.181  51.681  1.00  0.00    -0.268 OA
HETATM    4  H10 UNL     1      24.364   2.188  49.276  1.00  0.00     0.169 HD
ENDROOT
BRANCH   2   5
HETATM    5  C9  UNL     1      22.942   1.841  51.617  1.00  0.00     0.028 A 
HETATM    6  C10 UNL     1      21.765   1.558  51.092  1.00  0.00     0.009 A 
HETATM    7  C14 UNL     1      21.317   0.302  51.661  1.00  0.00     0.039 A 
HETATM    8  C15 UNL     1      22.232  -0.141  52.513  1.00  0.00     0.008 A 
HETATM    9  C16 UNL     1      23.380   0.793  52.564  1.00  0.00     0.101 A 
BRANCH   6  10
HETATM   10  C11 UNL     1      20.887   2.234  50.118  1.00  0.00     0.103 A 
HETATM   11  N4  UNL     1      19.989   2.938  50.831  1.00  0.00    -0.226 NA
HETATM   12  P1  UNL     1      18.836   3.828  49.919  1.00  0.00     0.208 P 
HETATM   13  N5  UNL     1      19.098   3.615  48.237  1.00  0.00    -0.239 NA
HETATM   14  C12 UNL     1      20.129   2.812  47.918  1.00  0.00     0.157 A 
HETATM   15  C13 UNL     1      21.002   2.135  48.745  1.00  0.00     0.112 A 
BRANCH  15  16
HETATM   16  O2  UNL     1      22.042   1.325  48.323  1.00  0.00    -0.357 OA
HETATM   17  H12 UNL     1      22.716   0.948  48.974  1.00  0.00     0.218 HD
ENDBRANCH  15  16
ENDBRANCH   6  10
BRANCH   8  18
HETATM   18  N6  UNL     1      22.375  -1.285  53.367  1.00  0.00    -0.402 N 
HETATM   19  H14 UNL     1      22.238  -2.278  53.065  1.00  0.00     0.156 HD
HETATM   20  H15 UNL     1      22.630  -1.296  54.392  1.00  0.00     0.156 HD
ENDBRANCH   8  18
ENDBRANCH   2   5
BRANCH   1  21
HETATM   21  C7  UNL     1      25.028   4.128  49.445  1.00  0.00     0.035 A 
HETATM   22  C6  UNL     1      24.697   5.388  49.045  1.00  0.00     0.032 A 
HETATM   23  C5  UNL     1      25.679   6.245  48.598  1.00  0.00     0.031 A 
HETATM   24  C4  UNL     1      26.997   5.889  48.536  1.00  0.00     0.030 A 
HETATM   25  C18 UNL     1      27.368   4.624  48.933  1.00  0.00     0.031 A 
HETATM   26  C17 UNL     1      26.383   3.755  49.384  1.00  0.00     0.032 A 
BRANCH  24  27
HETATM   27  N2  UNL     1      27.941   6.837  48.061  1.00  0.00    -0.378 N 
HETATM   28  C3  UNL     1      27.668   8.260  47.956  1.00  0.00     0.142 C 
HETATM   29  C2  UNL     1      28.494   8.888  49.058  1.00  0.00     0.136 C 
HETATM   30  N1  UNL     1      29.815   8.440  49.137  1.00  0.00    -0.414 N 
HETATM   31  C1  UNL     1      30.829   9.425  49.358  1.00  0.00     0.143 C 
HETATM   32  C20 UNL     1      30.214   7.202  48.640  1.00  0.00     0.136 C 
HETATM   33  C19 UNL     1      29.295   6.546  47.636  1.00  0.00     0.142 C 
ENDBRANCH  24  27
ENDBRANCH   1  21
TORSDOF 6
ENDMDL
MODEL 6
REMARK VINA RESULT:      -7.7      2.101      2.696
REMARK  6 active torsions:
REMARK  status: ('A' for Active; 'I' for Inactive)
REMARK    1  A    between atoms: N2_5  and  C4_6 
REMARK    2  A    between atoms: C7_9  and  N3_10 
REMARK       I    between atoms: N3_10  and  C8_11 
REMARK    3  A    between atoms: C8_11  and  C9_13 
REMARK    4  A    between atoms: C10_14  and  C11_15 
REMARK    5  A    between atoms: C13_20  and  O2_21 
REMARK    6  A    between atoms: C15_23  and  N6_24 
ROOT
HETATM    1  N3  UNL     1      22.962   3.286  51.510  1.00  0.00    -0.323 N 
HETATM    2  C8  UNL     1      22.961   1.871  51.210  1.00  0.00     0.253 C 
HETATM    3  O1  UNL     1      23.243   1.789  50.014  1.00  0.00    -0.268 OA
HETATM    4  H10 UNL     1      22.746   3.757  52.439  1.00  0.00     0.169 HD
ENDROOT
BRANCH   2   5
HETATM    5  C9  UNL     1      22.648   1.000  52.331  1.00  0.00     0.028 A 
HETATM    6  C10 UNL     1      23.606   0.560  53.124  1.00  0.00     0.009 A 
HETATM    7  C14 UNL     1      22.994  -0.280  54.134  1.00  0.00     0.039 A 
HETATM    8  C15 UNL     1      21.684  -0.326  53.926  1.00  0.00     0.008 A 
HETATM    9  C16 UNL     1      21.322   0.503  52.754  1.00  0.00     0.101 A 
BRANCH   6  10
HETATM   10  C11 UNL     1      25.069   0.744  53.165  1.00  0.00     0.103 A 
HETATM   11  N4  UNL     1      25.617  -0.451  52.874  1.00  0.00    -0.226 NA
HETATM   12  P1  UNL     1      27.334  -0.507  52.856  1.00  0.00     0.208 P 
HETATM   13  N5  UNL     1      27.996   1.033  53.225  1.00  0.00    -0.239 NA
HETATM   14  C12 UNL     1      27.091   2.000  53.460  1.00  0.00     0.157 A 
HETATM   15  C13 UNL     1      25.712   1.933  53.450  1.00  0.00     0.112 A 
BRANCH  15  16
HETATM   16  O2  UNL     1      24.856   2.989  53.707  1.00  0.00    -0.357 OA
HETATM   17  H12 UNL     1      23.916   2.838  54.045  1.00  0.00     0.218 HD
ENDBRANCH  15  16
ENDBRANCH   6  10
BRANCH   8  18
HETATM   18  N6  UNL     1      20.565  -0.965  54.556  1.00  0.00    -0.402 N 
HETATM   19  H14 UNL     1      19.563  -0.815  54.290  1.00  0.00     0.156 HD
HETATM   20  H15 UNL     1      20.582  -1.658  55.354  1.00  0.00     0.156 HD
ENDBRANCH   8  18
ENDBRANCH   2   5
BRANCH   1  21
HETATM   21  C7  UNL     1      23.270   4.257  50.513  1.00  0.00     0.035 A 
HETATM   22  C6  UNL     1      22.600   4.824  49.470  1.00  0.00     0.032 A 
HETATM   23  C5  UNL     1      23.223   5.772  48.689  1.00  0.00     0.031 A 
HETATM   24  C4  UNL     1      24.507   6.183  48.912  1.00  0.00     0.030 A 
HETATM   25  C18 UNL     1      25.215   5.632  49.957  1.00  0.00     0.031 A 
HETATM   26  C17 UNL     1      24.592   4.676  50.748  1.00  0.00     0.032 A 
BRANCH  24  27
HETATM   27  N2  UNL     1      25.071   7.164  48.054  1.00  0.00    -0.378 N 
HETATM   28  C3  UNL     1      24.280   8.099  47.274  1.00  0.00     0.142 C 
HETATM   29  C2  UNL     1      24.494   9.436  47.951  1.00  0.00     0.136 C 
HETATM   30  N1  UNL     1      25.822   9.740  48.257  1.00  0.00    -0.414 N 
HETATM   31  C1  UNL     1      26.267  11.074  47.993  1.00  0.00     0.143 C 
HETATM   32  C20 UNL     1      26.794   8.756  48.423  1.00  0.00     0.136 C 
HETATM   33  C19 UNL     1      26.486   7.395  47.844  1.00  0.00     0.142 C 
ENDBRANCH  24  27
ENDBRANCH   1  21
TORSDOF 6
ENDMDL
MODEL 7
REMARK VINA RESULT:      -7.7      3.507      5.495
REMARK  6 active torsions:
REMARK  status: ('A' for Active; 'I' for Inactive)
REMARK    1  A    between atoms: N2_5  and  C4_6 
REMARK    2  A    between atoms: C7_9  and  N3_10 
REMARK       I    between atoms: N3_10  and  C8_11 
REMARK    3  A    between atoms: C8_11  and  C9_13 
REMARK    4  A    between atoms: C10_14  and  C11_15 
REMARK    5  A    between atoms: C13_20  and  O2_21 
REMARK    6  A    between atoms: C15_23  and  N6_24 
ROOT
HETATM    1  N3  UNL     1      25.289   6.327  48.807  1.00  0.00    -0.323 N 
HETATM    2  C8  UNL     1      24.845   7.007  50.005  1.00  0.00     0.253 C 
HETATM    3  O1  UNL     1      25.876   7.339  50.593  1.00  0.00    -0.268 OA
HETATM    4  H10 UNL     1      24.689   5.880  48.050  1.00  0.00     0.169 HD
ENDROOT
BRANCH   2   5
HETATM    5  C9  UNL     1      23.404   7.100  50.167  1.00  0.00     0.028 A 
HETATM    6  C10 UNL     1      22.724   6.100  50.694  1.00  0.00     0.009 A 
HETATM    7  C14 UNL     1      21.326   6.481  50.720  1.00  0.00     0.039 A 
HETATM    8  C15 UNL     1      21.197   7.699  50.210  1.00  0.00     0.008 A 
HETATM    9  C16 UNL     1      22.520   8.231  49.814  1.00  0.00     0.101 A 
BRANCH   6  10
HETATM   10  C11 UNL     1      23.093   4.769  51.213  1.00  0.00     0.103 A 
HETATM   11  N4  UNL     1      22.769   3.879  50.256  1.00  0.00    -0.226 NA
HETATM   12  P1  UNL     1      23.102   2.232  50.618  1.00  0.00     0.208 P 
HETATM   13  N5  UNL     1      23.804   2.083  52.176  1.00  0.00    -0.239 NA
HETATM   14  C12 UNL     1      23.973   3.241  52.838  1.00  0.00     0.157 A 
HETATM   15  C13 UNL     1      23.662   4.528  52.448  1.00  0.00     0.112 A 
BRANCH  15  16
HETATM   16  O2  UNL     1      23.873   5.669  53.203  1.00  0.00    -0.357 OA
HETATM   17  H12 UNL     1      23.509   6.566  52.918  1.00  0.00     0.218 HD
ENDBRANCH  15  16
ENDBRANCH   6  10
BRANCH   8  18
HETATM   18  N6  UNL     1      20.110   8.602  49.966  1.00  0.00    -0.402 N 
HETATM   19  H14 UNL     1      20.020   9.559  50.383  1.00  0.00     0.156 HD
HETATM   20  H15 UNL     1      19.266   8.444  49.350  1.00  0.00     0.156 HD
ENDBRANCH   8  18
ENDBRANCH   2   5
BRANCH   1  21
HETATM   21  C7  UNL     1      26.673   6.177  48.506  1.00  0.00     0.035 A 
HETATM   22  C6  UNL     1      27.614   5.213  48.718  1.00  0.00     0.032 A 
HETATM   23  C5  UNL     1      28.902   5.402  48.268  1.00  0.00     0.031 A 
HETATM   24  C4  UNL     1      29.294   6.530  47.604  1.00  0.00     0.030 A 
HETATM   25  C18 UNL     1      28.370   7.525  47.372  1.00  0.00     0.031 A 
HETATM   26  C17 UNL     1      27.071   7.341  47.823  1.00  0.00     0.032 A 
BRANCH  24  27
HETATM   27  N2  UNL     1      30.644   6.640  47.178  1.00  0.00    -0.378 N 
HETATM   28  C3  UNL     1      31.208   7.846  46.599  1.00  0.00     0.142 C 
HETATM   29  C2  UNL     1      32.133   8.386  47.670  1.00  0.00     0.136 C 
HETATM   30  N1  UNL     1      32.976   7.440  48.257  1.00  0.00    -0.414 N 
HETATM   31  C1  UNL     1      34.337   7.821  48.476  1.00  0.00     0.143 C 
HETATM   32  C20 UNL     1      32.676   6.080  48.271  1.00  0.00     0.136 C 
HETATM   33  C19 UNL     1      31.649   5.602  47.271  1.00  0.00     0.142 C 
ENDBRANCH  24  27
ENDBRANCH   1  21
TORSDOF 6
ENDMDL
MODEL 8
REMARK VINA RESULT:      -7.7      4.036      5.393
REMARK  6 active torsions:
REMARK  status: ('A' for Active; 'I' for Inactive)
REMARK    1  A    between atoms: N2_5  and  C4_6 
REMARK    2  A    between atoms: C7_9  and  N3_10 
REMARK       I    between atoms: N3_10  and  C8_11 
REMARK    3  A    between atoms: C8_11  and  C9_13 
REMARK    4  A    between atoms: C10_14  and  C11_15 
REMARK    5  A    between atoms: C13_20  and  O2_21 
REMARK    6  A    between atoms: C15_23  and  N6_24 
ROOT
HETATM    1  N3  UNL     1      24.688   4.173  50.660  1.00  0.00    -0.323 N 
HETATM    2  C8  UNL     1      23.673   3.304  50.105  1.00  0.00     0.253 C 
HETATM    3  O1  UNL     1      24.000   3.127  48.931  1.00  0.00    -0.268 OA
HETATM    4  H10 UNL     1      24.744   4.564  51.648  1.00  0.00     0.169 HD
ENDROOT
BRANCH   2   5
HETATM    5  C9  UNL     1      22.622   2.911  51.028  1.00  0.00     0.028 A 
HETATM    6  C10 UNL     1      21.592   3.707  51.246  1.00  0.00     0.009 A 
HETATM    7  C14 UNL     1      20.725   3.053  52.206  1.00  0.00     0.039 A 
HETATM    8  C15 UNL     1      21.250   1.882  52.542  1.00  0.00     0.008 A 
HETATM    9  C16 UNL     1      22.518   1.661  51.810  1.00  0.00     0.101 A 
BRANCH   6  10
HETATM   10  C11 UNL     1      21.196   5.035  50.742  1.00  0.00     0.103 A 
HETATM   11  N4  UNL     1      20.218   4.830  49.840  1.00  0.00    -0.226 NA
HETATM   12  P1  UNL     1      19.575   6.238  49.094  1.00  0.00     0.208 P 
HETATM   13  N5  UNL     1      20.351   7.648  49.688  1.00  0.00    -0.239 NA
HETATM   14  C12 UNL     1      21.304   7.427  50.611  1.00  0.00     0.157 A 
HETATM   15  C13 UNL     1      21.750   6.235  51.145  1.00  0.00     0.112 A 
BRANCH  15  16
HETATM   16  O2  UNL     1      22.745   6.104  52.098  1.00  0.00    -0.357 OA
HETATM   17  H12 UNL     1      23.706   6.338  51.895  1.00  0.00     0.218 HD
ENDBRANCH  15  16
ENDBRANCH   6  10
BRANCH   8  18
HETATM   18  N6  UNL     1      20.888   0.804  53.416  1.00  0.00    -0.402 N 
HETATM   19  H14 UNL     1      19.905   0.525  53.648  1.00  0.00     0.156 HD
HETATM   20  H15 UNL     1      21.535   0.153  53.939  1.00  0.00     0.156 HD
ENDBRANCH   8  18
ENDBRANCH   2   5
BRANCH   1  21
HETATM   21  C7  UNL     1      25.791   4.624  49.878  1.00  0.00     0.035 A 
HETATM   22  C6  UNL     1      26.888   4.040  49.319  1.00  0.00     0.032 A 
HETATM   23  C5  UNL     1      27.776   4.803  48.593  1.00  0.00     0.031 A 
HETATM   24  C4  UNL     1      27.608   6.145  48.399  1.00  0.00     0.030 A 
HETATM   25  C18 UNL     1      26.511   6.770  48.949  1.00  0.00     0.031 A 
HETATM   26  C17 UNL     1      25.613   6.006  49.683  1.00  0.00     0.032 A 
BRANCH  24  27
HETATM   27  N2  UNL     1      28.575   6.853  47.638  1.00  0.00    -0.378 N 
HETATM   28  C3  UNL     1      28.253   7.969  46.766  1.00  0.00     0.142 C 
HETATM   29  C2  UNL     1      28.806   9.183  47.481  1.00  0.00     0.136 C 
HETATM   30  N1  UNL     1      30.106   9.041  47.970  1.00  0.00    -0.414 N 
HETATM   31  C1  UNL     1      31.000  10.142  47.785  1.00  0.00     0.143 C 
HETATM   32  C20 UNL     1      30.664   7.798  48.259  1.00  0.00     0.136 C 
HETATM   33  C19 UNL     1      30.001   6.595  47.628  1.00  0.00     0.142 C 
ENDBRANCH  24  27
ENDBRANCH   1  21
TORSDOF 6
ENDMDL
MODEL 9
REMARK VINA RESULT:      -7.6      2.498      3.441
REMARK  6 active torsions:
REMARK  status: ('A' for Active; 'I' for Inactive)
REMARK    1  A    between atoms: N2_5  and  C4_6 
REMARK    2  A    between atoms: C7_9  and  N3_10 
REMARK       I    between atoms: N3_10  and  C8_11 
REMARK    3  A    between atoms: C8_11  and  C9_13 
REMARK    4  A    between atoms: C10_14  and  C11_15 
REMARK    5  A    between atoms: C13_20  and  O2_21 
REMARK    6  A    between atoms: C15_23  and  N6_24 
ROOT
HETATM    1  N3  UNL     1      25.736   4.566  48.863  1.00  0.00    -0.323 N 
HETATM    2  C8  UNL     1      24.850   4.520  50.007  1.00  0.00     0.253 C 
HETATM    3  O1  UNL     1      25.179   5.473  50.714  1.00  0.00    -0.268 OA
HETATM    4  H10 UNL     1      25.772   3.895  48.038  1.00  0.00     0.169 HD
ENDROOT
BRANCH   2   5
HETATM    5  C9  UNL     1      23.886   3.433  50.000  1.00  0.00     0.028 A 
HETATM    6  C10 UNL     1      23.991   2.440  50.863  1.00  0.00     0.009 A 
HETATM    7  C14 UNL     1      22.902   1.518  50.611  1.00  0.00     0.039 A 
HETATM    8  C15 UNL     1      22.168   1.975  49.605  1.00  0.00     0.008 A 
HETATM    9  C16 UNL     1      22.715   3.261  49.115  1.00  0.00     0.101 A 
BRANCH   6  10
HETATM   10  C11 UNL     1      24.940   2.118  51.946  1.00  0.00     0.103 A 
HETATM   11  N4  UNL     1      25.655   1.056  51.529  1.00  0.00    -0.226 NA
HETATM   12  P1  UNL     1      26.846   0.476  52.623  1.00  0.00     0.208 P 
HETATM   13  N5  UNL     1      26.863   1.416  54.058  1.00  0.00    -0.239 NA
HETATM   14  C12 UNL     1      25.970   2.421  54.090  1.00  0.00     0.157 A 
HETATM   15  C13 UNL     1      25.042   2.803  53.141  1.00  0.00     0.112 A 
BRANCH  15  16
HETATM   16  O2  UNL     1      24.157   3.859  53.264  1.00  0.00    -0.357 OA
HETATM   17  H12 UNL     1      24.392   4.786  52.939  1.00  0.00     0.218 HD
ENDBRANCH  15  16
ENDBRANCH   6  10
BRANCH   8  18
HETATM   18  N6  UNL     1      20.997   1.535  48.902  1.00  0.00    -0.402 N 
HETATM   19  H14 UNL     1      20.113   2.088  48.807  1.00  0.00     0.156 HD
HETATM   20  H15 UNL     1      20.856   0.620  48.393  1.00  0.00     0.156 HD
ENDBRANCH   8  18
ENDBRANCH   2   5
BRANCH   1  21
HETATM   21  C7  UNL     1      26.720   5.587  48.725  1.00  0.00     0.035 A 
HETATM   22  C6  UNL     1      26.717   6.950  48.762  1.00  0.00     0.032 A 
HETATM   23  C5  UNL     1      27.895   7.643  48.592  1.00  0.00     0.031 A 
HETATM   24  C4  UNL     1      29.093   7.020  48.384  1.00  0.00     0.030 A 
HETATM   25  C18 UNL     1      29.135   5.645  48.340  1.00  0.00     0.031 A 
HETATM   26  C17 UNL     1      27.951   4.941  48.511  1.00  0.00     0.032 A 
BRANCH  24  27
HETATM   27  N2  UNL     1      30.258   7.815  48.216  1.00  0.00    -0.378 N 
HETATM   28  C3  UNL     1      31.187   8.117  49.291  1.00  0.00     0.142 C 
HETATM   29  C2  UNL     1      32.423   7.308  48.964  1.00  0.00     0.136 C 
HETATM   30  N1  UNL     1      32.851   7.388  47.636  1.00  0.00    -0.414 N 
HETATM   31  C1  UNL     1      34.256   7.528  47.408  1.00  0.00     0.143 C 
HETATM   32  C20 UNL     1      31.990   7.724  46.594  1.00  0.00     0.136 C 
HETATM   33  C19 UNL     1      30.703   8.417  46.975  1.00  0.00     0.142 C 
ENDBRANCH  24  27
ENDBRANCH   1  21
TORSDOF 6
ENDMDL
