MODEL 1
REMARK VINA RESULT:      -8.9      0.000      0.000
REMARK  7 active torsions:
REMARK  status: ('A' for Active; 'I' for Inactive)
REMARK    1  A    between atoms: C8_11  and  C9_12 
REMARK    2  A    between atoms: C9_12  and  C10_13 
REMARK    3  A    between atoms: C10_13  and  C11_14 
REMARK    4  A    between atoms: C16_20  and  C17_21 
REMARK    5  A    between atoms: C17_21  and  O1_22 
REMARK    6  A    between atoms: O1_22  and  C18_23 
REMARK    7  A    between atoms: C18_23  and  C20_25 
ROOT
HETATM    1  C11 UNL     1      23.809   0.674  52.750  1.00  0.00    -0.046 A 
HETATM    2  C12 UNL     1      22.591   0.687  52.116  1.00  0.00     0.011 A 
HETATM    3  C13 UNL     1      21.601  -0.142  52.596  1.00  0.00     0.043 A 
HETATM    4  C14 UNL     1      21.848  -0.955  53.679  1.00  0.00     0.117 A 
HETATM    5  F1  UNL     1      20.829  -1.738  54.090  1.00  0.00    -0.206 F 
HETATM    6  C15 UNL     1      23.103  -0.909  54.257  1.00  0.00     0.052 A 
HETATM    7  C16 UNL     1      24.142  -0.100  53.826  1.00  0.00    -0.025 A 
ENDROOT
BRANCH   1   8
HETATM    8  C10 UNL     1      24.801   1.674  52.277  1.00  0.00     0.068 C 
BRANCH   8   9
HETATM    9  C9  UNL     1      23.949   2.715  51.566  1.00  0.00     0.008 C 
BRANCH   9  10
HETATM   10  C8  UNL     1      24.205   3.967  51.281  1.00  0.00     0.035 C 
HETATM   11  C2  UNL     1      23.384   5.120  51.583  1.00  0.00    -0.035 C 
HETATM   12  C1  UNL     1      22.182   4.624  52.329  1.00  0.00     0.050 C 
HETATM   13  C3  UNL     1      23.684   6.340  51.272  1.00  0.00     0.010 C 
HETATM   14  C4  UNL     1      24.234   7.570  50.816  1.00  0.00     0.020 C 
HETATM   15  C5  UNL     1      25.346   7.696  50.150  1.00  0.00     0.118 C 
HETATM   16  N1  UNL     1      26.077   6.522  49.847  1.00  0.00    -0.254 NA
HETATM   17  C6  UNL     1      25.667   5.859  48.797  1.00  0.00     0.233 C 
HETATM   18  N2  UNL     1      26.649   4.878  48.946  1.00  0.00    -0.237 NA
HETATM   19  C7  UNL     1      26.602   3.940  49.819  1.00  0.00     0.208 C 
HETATM   20  N3  UNL     1      25.447   3.991  50.631  1.00  0.00    -0.351 N 
HETATM   21  H9  UNL     1      25.960   4.387  51.476  1.00  0.00     0.166 HD
ENDBRANCH   9  10
ENDBRANCH   8   9
ENDBRANCH   1   8
BRANCH   7  22
HETATM   22  C17 UNL     1      25.377  -0.347  54.552  1.00  0.00     0.207 C 
BRANCH  22  23
HETATM   23  O1  UNL     1      26.277  -1.207  54.062  1.00  0.00    -0.376 OA
BRANCH  23  24
HETATM   24  C18 UNL     1      27.046  -1.039  52.987  1.00  0.00     0.161 C 
HETATM   25  C19 UNL     1      26.953  -2.386  52.199  1.00  0.00     0.045 C 
BRANCH  24  26
HETATM   26  C20 UNL     1      28.528  -0.984  53.350  1.00  0.00     0.052 A 
HETATM   27 CL1  UNL     1      30.246  -0.891  53.770  1.00  0.00    -0.144 Cl
HETATM   28  C21 UNL     1      29.019   0.268  53.435  1.00  0.00     0.513 A 
HETATM   29  F2  UNL     1      28.099   1.221  53.183  1.00  0.00    -0.442 F 
ENDBRANCH  24  26
ENDBRANCH  23  24
ENDBRANCH  22  23
ENDBRANCH   7  22
TORSDOF 7
ENDMDL
MODEL 2
REMARK VINA RESULT:      -8.6      3.634      6.723
REMARK  7 active torsions:
REMARK  status: ('A' for Active; 'I' for Inactive)
REMARK    1  A    between atoms: C8_11  and  C9_12 
REMARK    2  A    between atoms: C9_12  and  C10_13 
REMARK    3  A    between atoms: C10_13  and  C11_14 
REMARK    4  A    between atoms: C16_20  and  C17_21 
REMARK    5  A    between atoms: C17_21  and  O1_22 
REMARK    6  A    between atoms: O1_22  and  C18_23 
REMARK    7  A    between atoms: C18_23  and  C20_25 
ROOT
HETATM    1  C11 UNL     1      26.933   0.222  53.269  1.00  0.00    -0.046 A 
HETATM    2  C12 UNL     1      27.604  -0.106  54.422  1.00  0.00     0.011 A 
HETATM    3  C13 UNL     1      28.612   0.731  54.847  1.00  0.00     0.043 A 
HETATM    4  C14 UNL     1      28.923   1.859  54.121  1.00  0.00     0.117 A 
HETATM    5  F1  UNL     1      29.921   2.629  54.602  1.00  0.00    -0.206 F 
HETATM    6  C15 UNL     1      28.200   2.115  52.972  1.00  0.00     0.052 A 
HETATM    7  C16 UNL     1      27.176   1.316  52.487  1.00  0.00    -0.025 A 
ENDROOT
BRANCH   1   8
HETATM    8  C10 UNL     1      25.775  -0.640  52.921  1.00  0.00     0.068 C 
BRANCH   8   9
HETATM    9  C9  UNL     1      24.636  -0.062  53.748  1.00  0.00     0.008 C 
BRANCH   9  10
HETATM   10  C8  UNL     1      23.352  -0.003  53.497  1.00  0.00     0.035 C 
HETATM   11  C2  UNL     1      22.291  -0.697  54.193  1.00  0.00    -0.035 C 
HETATM   12  C1  UNL     1      22.927  -1.483  55.299  1.00  0.00     0.050 C 
HETATM   13  C3  UNL     1      21.034  -0.606  53.898  1.00  0.00     0.010 C 
HETATM   14  C4  UNL     1      19.737  -0.342  53.375  1.00  0.00     0.020 C 
HETATM   15  C5  UNL     1      19.481   0.412  52.344  1.00  0.00     0.118 C 
HETATM   16  N1  UNL     1      20.571   1.024  51.680  1.00  0.00    -0.254 NA
HETATM   17  C6  UNL     1      21.200   0.271  50.817  1.00  0.00     0.233 C 
HETATM   18  N2  UNL     1      22.106   1.281  50.487  1.00  0.00    -0.237 NA
HETATM   19  C7  UNL     1      23.096   1.628  51.226  1.00  0.00     0.208 C 
HETATM   20  N3  UNL     1      23.188   0.883  52.422  1.00  0.00    -0.351 N 
HETATM   21  H9  UNL     1      22.803   1.665  53.034  1.00  0.00     0.166 HD
ENDBRANCH   9  10
ENDBRANCH   8   9
ENDBRANCH   1   8
BRANCH   7  22
HETATM   22  C17 UNL     1      26.676   1.772  51.201  1.00  0.00     0.207 C 
BRANCH  22  23
HETATM   23  O1  UNL     1      26.569   3.083  50.954  1.00  0.00    -0.376 OA
BRANCH  23  24
HETATM   24  C18 UNL     1      25.986   3.656  49.904  1.00  0.00     0.161 C 
HETATM   25  C19 UNL     1      27.147   4.336  49.107  1.00  0.00     0.045 C 
BRANCH  24  26
HETATM   26  C20 UNL     1      25.134   4.857  50.310  1.00  0.00     0.052 A 
HETATM   27 CL1  UNL     1      24.126   6.241  50.762  1.00  0.00    -0.144 Cl
HETATM   28  C21 UNL     1      23.983   4.964  49.618  1.00  0.00     0.513 A 
HETATM   29  F2  UNL     1      23.815   3.985  48.705  1.00  0.00    -0.442 F 
ENDBRANCH  24  26
ENDBRANCH  23  24
ENDBRANCH  22  23
ENDBRANCH   7  22
TORSDOF 7
ENDMDL
MODEL 3
REMARK VINA RESULT:      -8.6      1.279      2.223
REMARK  7 active torsions:
REMARK  status: ('A' for Active; 'I' for Inactive)
REMARK    1  A    between atoms: C8_11  and  C9_12 
REMARK    2  A    between atoms: C9_12  and  C10_13 
REMARK    3  A    between atoms: C10_13  and  C11_14 
REMARK    4  A    between atoms: C16_20  and  C17_21 
REMARK    5  A    between atoms: C17_21  and  O1_22 
REMARK    6  A    between atoms: O1_22  and  C18_23 
REMARK    7  A    between atoms: C18_23  and  C20_25 
ROOT
HETATM    1  C11 UNL     1      23.663   0.885  53.035  1.00  0.00    -0.046 A 
HETATM    2  C12 UNL     1      22.435   0.921  52.421  1.00  0.00     0.011 A 
HETATM    3  C13 UNL     1      21.519  -0.057  52.744  1.00  0.00     0.043 A 
HETATM    4  C14 UNL     1      21.847  -1.033  53.657  1.00  0.00     0.117 A 
HETATM    5  F1  UNL     1      20.898  -1.954  53.921  1.00  0.00    -0.206 F 
HETATM    6  C15 UNL     1      23.106  -0.997  54.228  1.00  0.00     0.052 A 
HETATM    7  C16 UNL     1      24.073  -0.045  53.948  1.00  0.00    -0.025 A 
ENDROOT
BRANCH   1   8
HETATM    8  C10 UNL     1      24.568   2.028  52.750  1.00  0.00     0.068 C 
BRANCH   8   9
HETATM    9  C9  UNL     1      24.348   2.299  51.268  1.00  0.00     0.008 C 
BRANCH   9  10
HETATM   10  C8  UNL     1      24.350   3.427  50.605  1.00  0.00     0.035 C 
HETATM   11  C2  UNL     1      25.411   3.952  49.772  1.00  0.00    -0.035 C 
HETATM   12  C1  UNL     1      26.515   2.939  49.772  1.00  0.00     0.050 C 
HETATM   13  C3  UNL     1      25.361   5.081  49.140  1.00  0.00     0.010 C 
HETATM   14  C4  UNL     1      25.062   6.346  48.562  1.00  0.00     0.020 C 
HETATM   15  C5  UNL     1      23.970   7.027  48.764  1.00  0.00     0.118 C 
HETATM   16  N1  UNL     1      22.993   6.476  49.628  1.00  0.00    -0.254 NA
HETATM   17  C6  UNL     1      23.200   6.664  50.905  1.00  0.00     0.233 C 
HETATM   18  N2  UNL     1      22.041   5.975  51.266  1.00  0.00    -0.237 NA
HETATM   19  C7  UNL     1      21.932   4.697  51.256  1.00  0.00     0.208 C 
HETATM   20  N3  UNL     1      23.110   4.039  50.839  1.00  0.00    -0.351 N 
HETATM   21  H9  UNL     1      22.736   3.811  49.868  1.00  0.00     0.166 HD
ENDBRANCH   9  10
ENDBRANCH   8   9
ENDBRANCH   1   8
BRANCH   7  22
HETATM   22  C17 UNL     1      25.337  -0.325  54.610  1.00  0.00     0.207 C 
BRANCH  22  23
HETATM   23  O1  UNL     1      26.204  -1.180  54.055  1.00  0.00    -0.376 OA
BRANCH  23  24
HETATM   24  C18 UNL     1      26.934  -0.984  52.959  1.00  0.00     0.161 C 
HETATM   25  C19 UNL     1      26.915  -2.351  52.201  1.00  0.00     0.045 C 
BRANCH  24  26
HETATM   26  C20 UNL     1      28.416  -0.821  53.284  1.00  0.00     0.052 A 
HETATM   27 CL1  UNL     1      30.133  -0.602  53.658  1.00  0.00    -0.144 Cl
HETATM   28  C21 UNL     1      28.829   0.462  53.301  1.00  0.00     0.513 A 
HETATM   29  F2  UNL     1      27.846   1.344  53.029  1.00  0.00    -0.442 F 
ENDBRANCH  24  26
ENDBRANCH  23  24
ENDBRANCH  22  23
ENDBRANCH   7  22
TORSDOF 7
ENDMDL
MODEL 4
REMARK VINA RESULT:      -8.5      1.676      2.893
REMARK  7 active torsions:
REMARK  status: ('A' for Active; 'I' for Inactive)
REMARK    1  A    between atoms: C8_11  and  C9_12 
REMARK    2  A    between atoms: C9_12  and  C10_13 
REMARK    3  A    between atoms: C10_13  and  C11_14 
REMARK    4  A    between atoms: C16_20  and  C17_21 
REMARK    5  A    between atoms: C17_21  and  O1_22 
REMARK    6  A    between atoms: O1_22  and  C18_23 
REMARK    7  A    between atoms: C18_23  and  C20_25 
ROOT
HETATM    1  C11 UNL     1      23.599   2.500  52.392  1.00  0.00    -0.046 A 
HETATM    2  C12 UNL     1      22.464   1.925  51.876  1.00  0.00     0.011 A 
HETATM    3  C13 UNL     1      22.205   0.608  52.187  1.00  0.00     0.043 A 
HETATM    4  C14 UNL     1      23.073  -0.094  52.992  1.00  0.00     0.117 A 
HETATM    5  F1  UNL     1      22.751  -1.378  53.252  1.00  0.00    -0.206 F 
HETATM    6  C15 UNL     1      24.194   0.560  53.468  1.00  0.00     0.052 A 
HETATM    7  C16 UNL     1      24.515   1.881  53.195  1.00  0.00    -0.025 A 
ENDROOT
BRANCH   1   8
HETATM    8  C10 UNL     1      23.769   3.953  52.133  1.00  0.00     0.068 C 
BRANCH   8   9
HETATM    9  C9  UNL     1      24.114   4.015  50.652  1.00  0.00     0.008 C 
BRANCH   9  10
HETATM   10  C8  UNL     1      25.019   4.720  50.022  1.00  0.00     0.035 C 
HETATM   11  C2  UNL     1      26.300   4.262  49.530  1.00  0.00    -0.035 C 
HETATM   12  C1  UNL     1      26.396   2.799  49.841  1.00  0.00     0.050 C 
HETATM   13  C3  UNL     1      27.163   5.007  48.916  1.00  0.00     0.010 C 
HETATM   14  C4  UNL     1      27.930   6.024  48.283  1.00  0.00     0.020 C 
HETATM   15  C5  UNL     1      27.576   7.272  48.167  1.00  0.00     0.118 C 
HETATM   16  N1  UNL     1      26.329   7.663  48.713  1.00  0.00    -0.254 NA
HETATM   17  C6  UNL     1      26.329   7.910  49.997  1.00  0.00     0.233 C 
HETATM   18  N2  UNL     1      24.968   8.221  50.008  1.00  0.00    -0.237 NA
HETATM   19  C7  UNL     1      24.030   7.347  49.961  1.00  0.00     0.208 C 
HETATM   20  N3  UNL     1      24.507   6.019  49.895  1.00  0.00    -0.351 N 
HETATM   21  H9  UNL     1      24.297   5.910  48.856  1.00  0.00     0.166 HD
ENDBRANCH   9  10
ENDBRANCH   8   9
ENDBRANCH   1   8
BRANCH   7  22
HETATM   22  C17 UNL     1      25.809   2.262  53.736  1.00  0.00     0.207 C 
BRANCH  22  23
HETATM   23  O1  UNL     1      26.504   1.391  54.477  1.00  0.00    -0.376 OA
BRANCH  23  24
HETATM   24  C18 UNL     1      27.704   0.884  54.202  1.00  0.00     0.161 C 
HETATM   25  C19 UNL     1      28.314   1.831  53.118  1.00  0.00     0.045 C 
BRANCH  24  26
HETATM   26  C20 UNL     1      27.603  -0.440  53.448  1.00  0.00     0.052 A 
HETATM   27 CL1  UNL     1      27.514  -1.982  52.582  1.00  0.00    -0.144 Cl
HETATM   28  C21 UNL     1      28.710  -1.203  53.543  1.00  0.00     0.513 A 
HETATM   29  F2  UNL     1      29.684  -0.642  54.288  1.00  0.00    -0.442 F 
ENDBRANCH  24  26
ENDBRANCH  23  24
ENDBRANCH  22  23
ENDBRANCH   7  22
TORSDOF 7
ENDMDL
MODEL 5
REMARK VINA RESULT:      -8.5      2.533      4.927
REMARK  7 active torsions:
REMARK  status: ('A' for Active; 'I' for Inactive)
REMARK    1  A    between atoms: C8_11  and  C9_12 
REMARK    2  A    between atoms: C9_12  and  C10_13 
REMARK    3  A    between atoms: C10_13  and  C11_14 
REMARK    4  A    between atoms: C16_20  and  C17_21 
REMARK    5  A    between atoms: C17_21  and  O1_22 
REMARK    6  A    between atoms: O1_22  and  C18_23 
REMARK    7  A    between atoms: C18_23  and  C20_25 
ROOT
HETATM    1  C11 UNL     1      25.931   1.478  53.263  1.00  0.00    -0.046 A 
HETATM    2  C12 UNL     1      27.152   2.093  53.387  1.00  0.00     0.011 A 
HETATM    3  C13 UNL     1      28.277   1.298  53.442  1.00  0.00     0.043 A 
HETATM    4  C14 UNL     1      28.156  -0.072  53.375  1.00  0.00     0.117 A 
HETATM    5  F1  UNL     1      29.301  -0.782  53.435  1.00  0.00    -0.206 F 
HETATM    6  C15 UNL     1      26.888  -0.610  53.253  1.00  0.00     0.052 A 
HETATM    7  C16 UNL     1      25.718   0.130  53.192  1.00  0.00    -0.025 A 
ENDROOT
BRANCH   1   8
HETATM    8  C10 UNL     1      24.763   2.378  53.081  1.00  0.00     0.068 C 
BRANCH   8   9
HETATM    9  C9  UNL     1      24.608   2.462  51.569  1.00  0.00     0.008 C 
BRANCH   9  10
HETATM   10  C8  UNL     1      24.369   3.493  50.798  1.00  0.00     0.035 C 
HETATM   11  C2  UNL     1      25.243   4.053  49.789  1.00  0.00    -0.035 C 
HETATM   12  C1  UNL     1      26.478   3.205  49.754  1.00  0.00     0.050 C 
HETATM   13  C3  UNL     1      24.957   5.081  49.057  1.00  0.00     0.010 C 
HETATM   14  C4  UNL     1      24.412   6.216  48.394  1.00  0.00     0.020 C 
HETATM   15  C5  UNL     1      23.260   6.762  48.661  1.00  0.00     0.118 C 
HETATM   16  N1  UNL     1      22.477   6.192  49.693  1.00  0.00    -0.254 NA
HETATM   17  C6  UNL     1      22.793   6.557  50.908  1.00  0.00     0.233 C 
HETATM   18  N2  UNL     1      21.795   5.766  51.481  1.00  0.00    -0.237 NA
HETATM   19  C7  UNL     1      21.876   4.492  51.616  1.00  0.00     0.208 C 
HETATM   20  N3  UNL     1      23.086   3.955  51.123  1.00  0.00    -0.351 N 
HETATM   21  H9  UNL     1      22.645   3.564  50.235  1.00  0.00     0.166 HD
ENDBRANCH   9  10
ENDBRANCH   8   9
ENDBRANCH   1   8
BRANCH   7  22
HETATM   22  C17 UNL     1      24.530  -0.708  53.180  1.00  0.00     0.207 C 
BRANCH  22  23
HETATM   23  O1  UNL     1      23.644  -0.622  54.178  1.00  0.00    -0.376 OA
BRANCH  23  24
HETATM   24  C18 UNL     1      22.352  -0.313  54.080  1.00  0.00     0.161 C 
HETATM   25  C19 UNL     1      21.586  -1.647  54.359  1.00  0.00     0.045 C 
BRANCH  24  26
HETATM   26  C20 UNL     1      21.948  -0.009  52.639  1.00  0.00     0.052 A 
HETATM   27 CL1  UNL     1      21.459   0.363  50.979  1.00  0.00    -0.144 Cl
HETATM   28  C21 UNL     1      20.999   0.942  52.532  1.00  0.00     0.513 A 
HETATM   29  F2  UNL     1      20.599   1.434  53.722  1.00  0.00    -0.442 F 
ENDBRANCH  24  26
ENDBRANCH  23  24
ENDBRANCH  22  23
ENDBRANCH   7  22
TORSDOF 7
ENDMDL
MODEL 6
REMARK VINA RESULT:      -8.4      3.257      6.227
REMARK  7 active torsions:
REMARK  status: ('A' for Active; 'I' for Inactive)
REMARK    1  A    between atoms: C8_11  and  C9_12 
REMARK    2  A    between atoms: C9_12  and  C10_13 
REMARK    3  A    between atoms: C10_13  and  C11_14 
REMARK    4  A    between atoms: C16_20  and  C17_21 
REMARK    5  A    between atoms: C17_21  and  O1_22 
REMARK    6  A    between atoms: O1_22  and  C18_23 
REMARK    7  A    between atoms: C18_23  and  C20_25 
ROOT
HETATM    1  C11 UNL     1      24.968   3.066  51.484  1.00  0.00    -0.046 A 
HETATM    2  C12 UNL     1      24.407   4.085  50.754  1.00  0.00     0.011 A 
HETATM    3  C13 UNL     1      25.136   4.613  49.711  1.00  0.00     0.043 A 
HETATM    4  C14 UNL     1      26.390   4.119  49.427  1.00  0.00     0.117 A 
HETATM    5  F1  UNL     1      27.040   4.687  48.391  1.00  0.00    -0.206 F 
HETATM    6  C15 UNL     1      26.880   3.093  50.212  1.00  0.00     0.052 A 
HETATM    7  C16 UNL     1      26.202   2.518  51.275  1.00  0.00    -0.025 A 
ENDROOT
BRANCH   1   8
HETATM    8  C10 UNL     1      24.096   2.446  52.515  1.00  0.00     0.068 C 
BRANCH   8   9
HETATM    9  C9  UNL     1      23.354   1.358  51.750  1.00  0.00     0.008 C 
BRANCH   9  10
HETATM   10  C8  UNL     1      22.188   0.810  51.976  1.00  0.00     0.035 C 
HETATM   11  C2  UNL     1      20.952   1.054  51.263  1.00  0.00    -0.035 C 
HETATM   12  C1  UNL     1      21.256   2.037  50.174  1.00  0.00     0.050 C 
HETATM   13  C3  UNL     1      19.821   0.485  51.534  1.00  0.00     0.010 C 
HETATM   14  C4  UNL     1      18.717  -0.261  52.031  1.00  0.00     0.020 C 
HETATM   15  C5  UNL     1      18.752  -1.069  53.052  1.00  0.00     0.118 C 
HETATM   16  N1  UNL     1      19.984  -1.225  53.733  1.00  0.00    -0.254 NA
HETATM   17  C6  UNL     1      20.263  -0.299  54.613  1.00  0.00     0.233 C 
HETATM   18  N2  UNL     1      21.481  -0.890  54.954  1.00  0.00    -0.237 NA
HETATM   19  C7  UNL     1      22.540  -0.823  54.233  1.00  0.00     0.208 C 
HETATM   20  N3  UNL     1      22.358  -0.084  53.043  1.00  0.00    -0.351 N 
HETATM   21  H9  UNL     1      22.312  -0.946  52.419  1.00  0.00     0.166 HD
ENDBRANCH   9  10
ENDBRANCH   8   9
ENDBRANCH   1   8
BRANCH   7  22
HETATM   22  C17 UNL     1      27.010   1.541  51.987  1.00  0.00     0.207 C 
BRANCH  22  23
HETATM   23  O1  UNL     1      26.807   0.234  51.784  1.00  0.00    -0.376 OA
BRANCH  23  24
HETATM   24  C18 UNL     1      26.976  -0.750  52.665  1.00  0.00     0.161 C 
HETATM   25  C19 UNL     1      26.199  -0.296  53.944  1.00  0.00     0.045 C 
BRANCH  24  26
HETATM   26  C20 UNL     1      28.413  -0.819  53.173  1.00  0.00     0.052 A 
HETATM   27 CL1  UNL     1      30.081  -0.928  53.759  1.00  0.00    -0.144 Cl
HETATM   28  C21 UNL     1      28.932  -2.063  53.165  1.00  0.00     0.513 A 
HETATM   29  F2  UNL     1      28.074  -2.996  52.706  1.00  0.00    -0.442 F 
ENDBRANCH  24  26
ENDBRANCH  23  24
ENDBRANCH  22  23
ENDBRANCH   7  22
TORSDOF 7
ENDMDL
MODEL 7
REMARK VINA RESULT:      -8.4      2.392      3.625
REMARK  7 active torsions:
REMARK  status: ('A' for Active; 'I' for Inactive)
REMARK    1  A    between atoms: C8_11  and  C9_12 
REMARK    2  A    between atoms: C9_12  and  C10_13 
REMARK    3  A    between atoms: C10_13  and  C11_14 
REMARK    4  A    between atoms: C16_20  and  C17_21 
REMARK    5  A    between atoms: C17_21  and  O1_22 
REMARK    6  A    between atoms: O1_22  and  C18_23 
REMARK    7  A    between atoms: C18_23  and  C20_25 
ROOT
HETATM    1  C11 UNL     1      25.404   2.938  50.425  1.00  0.00    -0.046 A 
HETATM    2  C12 UNL     1      24.105   3.098  50.011  1.00  0.00     0.011 A 
HETATM    3  C13 UNL     1      23.098   2.750  50.886  1.00  0.00     0.043 A 
HETATM    4  C14 UNL     1      23.409   2.257  52.133  1.00  0.00     0.117 A 
HETATM    5  F1  UNL     1      22.370   1.939  52.932  1.00  0.00    -0.206 F 
HETATM    6  C15 UNL     1      24.744   2.127  52.469  1.00  0.00     0.052 A 
HETATM    7  C16 UNL     1      25.804   2.456  51.639  1.00  0.00    -0.025 A 
ENDROOT
BRANCH   1   8
HETATM    8  C10 UNL     1      26.450   3.444  49.499  1.00  0.00     0.068 C 
BRANCH   8   9
HETATM    9  C9  UNL     1      25.965   4.841  49.139  1.00  0.00     0.008 C 
BRANCH   9  10
HETATM   10  C8  UNL     1      26.535   6.007  49.314  1.00  0.00     0.035 C 
HETATM   11  C2  UNL     1      25.958   7.180  49.933  1.00  0.00    -0.035 C 
HETATM   12  C1  UNL     1      24.578   6.809  50.383  1.00  0.00     0.050 C 
HETATM   13  C3  UNL     1      26.568   8.313  50.076  1.00  0.00     0.010 C 
HETATM   14  C4  UNL     1      27.443   9.435  50.103  1.00  0.00     0.020 C 
HETATM   15  C5  UNL     1      28.643   9.466  49.598  1.00  0.00     0.118 C 
HETATM   16  N1  UNL     1      29.128   8.296  48.964  1.00  0.00    -0.254 NA
HETATM   17  C6  UNL     1      28.744   8.125  47.726  1.00  0.00     0.233 C 
HETATM   18  N2  UNL     1      29.446   6.925  47.599  1.00  0.00    -0.237 NA
HETATM   19  C7  UNL     1      29.058   5.809  48.097  1.00  0.00     0.208 C 
HETATM   20  N3  UNL     1      27.835   5.905  48.797  1.00  0.00    -0.351 N 
HETATM   21  H9  UNL     1      28.290   5.870  49.760  1.00  0.00     0.166 HD
ENDBRANCH   9  10
ENDBRANCH   8   9
ENDBRANCH   1   8
BRANCH   7  22
HETATM   22  C17 UNL     1      27.091   2.106  52.216  1.00  0.00     0.207 C 
BRANCH  22  23
HETATM   23  O1  UNL     1      27.195   1.894  53.533  1.00  0.00    -0.376 OA
BRANCH  23  24
HETATM   24  C18 UNL     1      27.563   0.766  54.138  1.00  0.00     0.161 C 
HETATM   25  C19 UNL     1      29.126   0.769  54.100  1.00  0.00     0.045 C 
BRANCH  24  26
HETATM   26  C20 UNL     1      27.227  -0.465  53.299  1.00  0.00     0.052 A 
HETATM   27 CL1  UNL     1      26.812  -1.896  52.342  1.00  0.00    -0.144 Cl
HETATM   28  C21 UNL     1      26.053  -1.039  53.626  1.00  0.00     0.513 A 
HETATM   29  F2  UNL     1      25.410  -0.407  54.630  1.00  0.00    -0.442 F 
ENDBRANCH  24  26
ENDBRANCH  23  24
ENDBRANCH  22  23
ENDBRANCH   7  22
TORSDOF 7
ENDMDL
MODEL 8
REMARK VINA RESULT:      -8.1      2.278      4.334
REMARK  7 active torsions:
REMARK  status: ('A' for Active; 'I' for Inactive)
REMARK    1  A    between atoms: C8_11  and  C9_12 
REMARK    2  A    between atoms: C9_12  and  C10_13 
REMARK    3  A    between atoms: C10_13  and  C11_14 
REMARK    4  A    between atoms: C16_20  and  C17_21 
REMARK    5  A    between atoms: C17_21  and  O1_22 
REMARK    6  A    between atoms: O1_22  and  C18_23 
REMARK    7  A    between atoms: C18_23  and  C20_25 
ROOT
HETATM    1  C11 UNL     1      26.124   1.278  52.395  1.00  0.00    -0.046 A 
HETATM    2  C12 UNL     1      27.320   1.931  52.566  1.00  0.00     0.011 A 
HETATM    3  C13 UNL     1      28.152   1.506  53.578  1.00  0.00     0.043 A 
HETATM    4  C14 UNL     1      27.777   0.456  54.385  1.00  0.00     0.117 A 
HETATM    5  F1  UNL     1      28.645   0.098  55.353  1.00  0.00    -0.206 F 
HETATM    6  C15 UNL     1      26.555  -0.146  54.145  1.00  0.00     0.052 A 
HETATM    7  C16 UNL     1      25.670   0.231  53.147  1.00  0.00    -0.025 A 
ENDROOT
BRANCH   1   8
HETATM    8  C10 UNL     1      25.320   1.688  51.216  1.00  0.00     0.068 C 
BRANCH   8   9
HETATM    9  C9  UNL     1      24.546   2.900  51.714  1.00  0.00     0.008 C 
BRANCH   9  10
HETATM   10  C8  UNL     1      24.618   4.157  51.354  1.00  0.00     0.035 C 
HETATM   11  C2  UNL     1      23.697   5.220  51.694  1.00  0.00    -0.035 C 
HETATM   12  C1  UNL     1      22.644   4.626  52.580  1.00  0.00     0.050 C 
HETATM   13  C3  UNL     1      23.814   6.449  51.305  1.00  0.00     0.010 C 
HETATM   14  C4  UNL     1      24.164   7.710  50.746  1.00  0.00     0.020 C 
HETATM   15  C5  UNL     1      25.181   7.930  49.964  1.00  0.00     0.118 C 
HETATM   16  N1  UNL     1      26.015   6.835  49.633  1.00  0.00    -0.254 NA
HETATM   17  C6  UNL     1      25.588   6.075  48.658  1.00  0.00     0.233 C 
HETATM   18  N2  UNL     1      26.692   5.225  48.743  1.00  0.00    -0.237 NA
HETATM   19  C7  UNL     1      26.845   4.334  49.653  1.00  0.00     0.208 C 
HETATM   20  N3  UNL     1      25.778   4.292  50.578  1.00  0.00    -0.351 N 
HETATM   21  H9  UNL     1      26.320   4.789  51.349  1.00  0.00     0.166 HD
ENDBRANCH   9  10
ENDBRANCH   8   9
ENDBRANCH   1   8
BRANCH   7  22
HETATM   22  C17 UNL     1      24.418  -0.505  53.207  1.00  0.00     0.207 C 
BRANCH  22  23
HETATM   23  O1  UNL     1      23.464  -0.127  54.066  1.00  0.00    -0.376 OA
BRANCH  23  24
HETATM   24  C18 UNL     1      22.162  -0.006  53.815  1.00  0.00     0.161 C 
HETATM   25  C19 UNL     1      21.566  -1.436  54.030  1.00  0.00     0.045 C 
BRANCH  24  26
HETATM   26  C20 UNL     1      21.887   0.233  52.333  1.00  0.00     0.052 A 
HETATM   27 CL1  UNL     1      21.551   0.534  50.620  1.00  0.00    -0.144 Cl
HETATM   28  C21 UNL     1      21.067   1.277  52.095  1.00  0.00     0.513 A 
HETATM   29  F2  UNL     1      20.657   1.900  53.218  1.00  0.00    -0.442 F 
ENDBRANCH  24  26
ENDBRANCH  23  24
ENDBRANCH  22  23
ENDBRANCH   7  22
TORSDOF 7
ENDMDL
MODEL 9
REMARK VINA RESULT:      -8.0      1.963      2.389
REMARK  7 active torsions:
REMARK  status: ('A' for Active; 'I' for Inactive)
REMARK    1  A    between atoms: C8_11  and  C9_12 
REMARK    2  A    between atoms: C9_12  and  C10_13 
REMARK    3  A    between atoms: C10_13  and  C11_14 
REMARK    4  A    between atoms: C16_20  and  C17_21 
REMARK    5  A    between atoms: C17_21  and  O1_22 
REMARK    6  A    between atoms: O1_22  and  C18_23 
REMARK    7  A    between atoms: C18_23  and  C20_25 
ROOT
HETATM    1  C11 UNL     1      22.871   1.051  52.949  1.00  0.00    -0.046 A 
HETATM    2  C12 UNL     1      21.509   1.188  53.056  1.00  0.00     0.011 A 
HETATM    3  C13 UNL     1      20.798   0.165  53.644  1.00  0.00     0.043 A 
HETATM    4  C14 UNL     1      21.453  -0.954  54.104  1.00  0.00     0.117 A 
HETATM    5  F1  UNL     1      20.689  -1.912  54.668  1.00  0.00    -0.206 F 
HETATM    6  C15 UNL     1      22.827  -1.013  53.955  1.00  0.00     0.052 A 
HETATM    7  C16 UNL     1      23.602  -0.023  53.373  1.00  0.00    -0.025 A 
ENDROOT
BRANCH   1   8
HETATM    8  C10 UNL     1      23.607   2.230  52.424  1.00  0.00     0.068 C 
BRANCH   8   9
HETATM    9  C9  UNL     1      23.443   2.112  50.915  1.00  0.00     0.008 C 
BRANCH   9  10
HETATM   10  C8  UNL     1      23.211   3.032  50.013  1.00  0.00     0.035 C 
HETATM   11  C2  UNL     1      22.485   2.878  48.771  1.00  0.00    -0.035 C 
HETATM   12  C1  UNL     1      22.002   1.461  48.713  1.00  0.00     0.050 C 
HETATM   13  C3  UNL     1      22.290   3.825  47.910  1.00  0.00     0.010 C 
HETATM   14  C4  UNL     1      22.222   5.017  47.136  1.00  0.00     0.020 C 
HETATM   15  C5  UNL     1      22.777   6.152  47.452  1.00  0.00     0.118 C 
HETATM   16  N1  UNL     1      23.512   6.220  48.659  1.00  0.00    -0.254 NA
HETATM   17  C6  UNL     1      24.741   5.777  48.596  1.00  0.00     0.233 C 
HETATM   18  N2  UNL     1      24.984   6.050  49.944  1.00  0.00    -0.237 NA
HETATM   19  C7  UNL     1      24.550   5.330  50.913  1.00  0.00     0.208 C 
HETATM   20  N3  UNL     1      23.791   4.218  50.485  1.00  0.00    -0.351 N 
HETATM   21  H9  UNL     1      22.854   4.655  50.743  1.00  0.00     0.166 HD
ENDBRANCH   9  10
ENDBRANCH   8   9
ENDBRANCH   1   8
BRANCH   7  22
HETATM   22  C17 UNL     1      24.998  -0.409  53.252  1.00  0.00     0.207 C 
BRANCH  22  23
HETATM   23  O1  UNL     1      25.924   0.192  54.008  1.00  0.00    -0.376 OA
BRANCH  23  24
HETATM   24  C18 UNL     1      27.142   0.575  53.631  1.00  0.00     0.161 C 
HETATM   25  C19 UNL     1      26.980   1.072  52.157  1.00  0.00     0.045 C 
BRANCH  24  26
HETATM   26  C20 UNL     1      28.087  -0.613  53.464  1.00  0.00     0.052 A 
HETATM   27 CL1  UNL     1      29.205  -1.974  53.280  1.00  0.00    -0.144 Cl
HETATM   28  C21 UNL     1      29.352  -0.358  53.852  1.00  0.00     0.513 A 
HETATM   29  F2  UNL     1      29.526   0.898  54.313  1.00  0.00    -0.442 F 
ENDBRANCH  24  26
ENDBRANCH  23  24
ENDBRANCH  22  23
ENDBRANCH   7  22
TORSDOF 7
ENDMDL
