MODEL 1
REMARK VINA RESULT:      -8.5      0.000      0.000
REMARK  8 active torsions:
REMARK  status: ('A' for Active; 'I' for Inactive)
REMARK    1  A    between atoms: C2_2  and  O1_3 
REMARK    2  A    between atoms: O1_3  and  C3_4 
REMARK    3  A    between atoms: C4_5  and  C6_7 
REMARK    4  A    between atoms: C6_7  and  C7_8 
REMARK    5  A    between atoms: C7_8  and  N1_9 
REMARK    6  A    between atoms: N1_9  and  C8_10 
REMARK    7  A    between atoms: C15_19  and  N4_20 
REMARK       I    between atoms: N4_20  and  C16_21 
REMARK    8  A    between atoms: C16_21  and  C17_23 
ROOT
HETATM    1  C8  UNL     1      22.798   3.662  52.326  1.00  0.00     0.134 A 
HETATM    2  N2  UNL     1      21.547   3.996  51.983  1.00  0.00    -0.241 NA
HETATM    3  C9  UNL     1      20.531   3.118  51.952  1.00  0.00     0.142 A 
HETATM    4  C10 UNL     1      20.698   1.794  52.273  1.00  0.00     0.073 A 
HETATM    5  C11 UNL     1      19.658   0.817  52.258  1.00  0.00     0.102 C 
HETATM    6  N3  UNL     1      18.820   0.017  52.229  1.00  0.00    -0.191 NA
HETATM    7  C12 UNL     1      21.981   1.402  52.636  1.00  0.00     0.000 A 
HETATM    8  C13 UNL     1      22.240   0.091  52.975  1.00  0.00     0.016 A 
HETATM    9  C14 UNL     1      23.508  -0.352  53.346  1.00  0.00     0.030 A 
HETATM   10  C15 UNL     1      24.498   0.606  53.354  1.00  0.00     0.036 A 
HETATM   11  C21 UNL     1      24.236   1.914  53.016  1.00  0.00     0.045 A 
HETATM   12  C22 UNL     1      22.981   2.346  52.650  1.00  0.00     0.024 A 
ENDROOT
BRANCH   1  13
HETATM   13  N1  UNL     1      23.818   4.650  52.334  1.00  0.00    -0.374 N 
HETATM   14  H14 UNL     1      24.368   4.978  53.152  1.00  0.00     0.161 HD
BRANCH  13  15
HETATM   15  C7  UNL     1      24.180   5.315  51.091  1.00  0.00     0.126 C 
BRANCH  15  16
HETATM   16  C6  UNL     1      24.388   4.392  49.940  1.00  0.00     0.055 C 
BRANCH  16  17
HETATM   17  C4  UNL     1      25.755   4.600  49.388  1.00  0.00    -0.060 C 
HETATM   18  C3  UNL     1      26.163   5.772  48.876  1.00  0.00     0.137 C 
HETATM   19  C5  UNL     1      26.614   3.403  49.457  1.00  0.00     0.045 C 
BRANCH  18  20
HETATM   20  O1  UNL     1      27.455   5.406  48.530  1.00  0.00    -0.363 OA
BRANCH  20  21
HETATM   21  C2  UNL     1      28.454   6.279  48.086  1.00  0.00     0.170 C 
HETATM   22  C1  UNL     1      29.785   5.540  48.074  1.00  0.00     0.034 C 
ENDBRANCH  20  21
ENDBRANCH  18  20
ENDBRANCH  16  17
ENDBRANCH  15  16
ENDBRANCH  13  15
ENDBRANCH   1  13
BRANCH  10  23
HETATM   23  N4  UNL     1      25.806   0.145  53.737  1.00  0.00    -0.321 N 
HETATM   24  C16 UNL     1      26.776  -0.211  52.759  1.00  0.00     0.279 C 
HETATM   25  O2  UNL     1      26.417  -0.096  51.554  1.00  0.00    -0.265 OA
HETATM   26  H18 UNL     1      26.058   0.066  54.748  1.00  0.00     0.169 HD
BRANCH  24  27
HETATM   27  C17 UNL     1      28.107  -0.681  53.160  1.00  0.00     0.142 A 
HETATM   28  C18 UNL     1      29.217   0.050  53.600  1.00  0.00     0.045 A 
HETATM   29  C19 UNL     1      30.213  -0.882  53.846  1.00  0.00     0.027 A 
HETATM   30  C20 UNL     1      29.686  -2.107  53.553  1.00  0.00     0.143 A 
HETATM   31  O3  UNL     1      28.448  -1.943  53.155  1.00  0.00    -0.317 OA
ENDBRANCH  24  27
ENDBRANCH  10  23
TORSDOF 8
ENDMDL
MODEL 2
REMARK VINA RESULT:      -8.4      1.728      2.485
REMARK  8 active torsions:
REMARK  status: ('A' for Active; 'I' for Inactive)
REMARK    1  A    between atoms: C2_2  and  O1_3 
REMARK    2  A    between atoms: O1_3  and  C3_4 
REMARK    3  A    between atoms: C4_5  and  C6_7 
REMARK    4  A    between atoms: C6_7  and  C7_8 
REMARK    5  A    between atoms: C7_8  and  N1_9 
REMARK    6  A    between atoms: N1_9  and  C8_10 
REMARK    7  A    between atoms: C15_19  and  N4_20 
REMARK       I    between atoms: N4_20  and  C16_21 
REMARK    8  A    between atoms: C16_21  and  C17_23 
ROOT
HETATM    1  C8  UNL     1      24.336   5.068  50.882  1.00  0.00     0.134 A 
HETATM    2  N2  UNL     1      23.239   5.832  50.801  1.00  0.00    -0.241 NA
HETATM    3  C9  UNL     1      22.017   5.412  51.171  1.00  0.00     0.142 A 
HETATM    4  C10 UNL     1      21.797   4.152  51.667  1.00  0.00     0.073 A 
HETATM    5  C11 UNL     1      20.525   3.651  52.076  1.00  0.00     0.102 C 
HETATM    6  N3  UNL     1      19.490   3.234  52.391  1.00  0.00    -0.191 NA
HETATM    7  C12 UNL     1      22.908   3.323  51.770  1.00  0.00     0.000 A 
HETATM    8  C13 UNL     1      22.778   2.040  52.259  1.00  0.00     0.016 A 
HETATM    9  C14 UNL     1      23.861   1.171  52.382  1.00  0.00     0.030 A 
HETATM   10  C15 UNL     1      25.080   1.673  51.982  1.00  0.00     0.036 A 
HETATM   11  C21 UNL     1      25.206   2.955  51.495  1.00  0.00     0.045 A 
HETATM   12  C22 UNL     1      24.133   3.809  51.376  1.00  0.00     0.024 A 
ENDROOT
BRANCH   1  13
HETATM   13  N1  UNL     1      25.592   5.586  50.470  1.00  0.00    -0.374 N 
HETATM   14  H14 UNL     1      26.366   5.914  51.080  1.00  0.00     0.161 HD
BRANCH  13  15
HETATM   15  C7  UNL     1      25.891   5.695  49.050  1.00  0.00     0.126 C 
BRANCH  15  16
HETATM   16  C6  UNL     1      27.173   5.054  48.642  1.00  0.00     0.055 C 
BRANCH  16  17
HETATM   17  C4  UNL     1      28.199   6.111  48.422  1.00  0.00    -0.060 C 
HETATM   18  C3  UNL     1      27.919   7.422  48.489  1.00  0.00     0.137 C 
HETATM   19  C5  UNL     1      29.543   5.583  48.126  1.00  0.00     0.045 C 
BRANCH  18  20
HETATM   20  O1  UNL     1      29.185   7.916  48.213  1.00  0.00    -0.363 OA
BRANCH  20  21
HETATM   21  C2  UNL     1      29.709   9.119  48.698  1.00  0.00     0.170 C 
HETATM   22  C1  UNL     1      31.187   8.924  49.006  1.00  0.00     0.034 C 
ENDBRANCH  20  21
ENDBRANCH  18  20
ENDBRANCH  16  17
ENDBRANCH  15  16
ENDBRANCH  13  15
ENDBRANCH   1  13
BRANCH  10  23
HETATM   23  N4  UNL     1      26.195   0.773  52.110  1.00  0.00    -0.321 N 
HETATM   24  C16 UNL     1      26.997   0.758  53.285  1.00  0.00     0.279 C 
HETATM   25  O2  UNL     1      26.668   1.573  54.192  1.00  0.00    -0.265 OA
HETATM   26  H18 UNL     1      26.429   0.116  51.332  1.00  0.00     0.169 HD
BRANCH  24  27
HETATM   27  C17 UNL     1      28.133  -0.163  53.406  1.00  0.00     0.142 A 
HETATM   28  C18 UNL     1      29.473   0.106  53.706  1.00  0.00     0.045 A 
HETATM   29  C19 UNL     1      30.119  -1.121  53.694  1.00  0.00     0.027 A 
HETATM   30  C20 UNL     1      29.174  -2.059  53.396  1.00  0.00     0.143 A 
HETATM   31  O3  UNL     1      28.023  -1.455  53.235  1.00  0.00    -0.317 OA
ENDBRANCH  24  27
ENDBRANCH  10  23
TORSDOF 8
ENDMDL
MODEL 3
REMARK VINA RESULT:      -8.2      1.821      2.579
REMARK  8 active torsions:
REMARK  status: ('A' for Active; 'I' for Inactive)
REMARK    1  A    between atoms: C2_2  and  O1_3 
REMARK    2  A    between atoms: O1_3  and  C3_4 
REMARK    3  A    between atoms: C4_5  and  C6_7 
REMARK    4  A    between atoms: C6_7  and  C7_8 
REMARK    5  A    between atoms: C7_8  and  N1_9 
REMARK    6  A    between atoms: N1_9  and  C8_10 
REMARK    7  A    between atoms: C15_19  and  N4_20 
REMARK       I    between atoms: N4_20  and  C16_21 
REMARK    8  A    between atoms: C16_21  and  C17_23 
ROOT
HETATM    1  C8  UNL     1      22.498   3.377  52.435  1.00  0.00     0.134 A 
HETATM    2  N2  UNL     1      21.250   3.723  52.091  1.00  0.00    -0.241 NA
HETATM    3  C9  UNL     1      20.246   2.838  51.969  1.00  0.00     0.142 A 
HETATM    4  C10 UNL     1      20.423   1.495  52.191  1.00  0.00     0.073 A 
HETATM    5  C11 UNL     1      19.397   0.510  52.077  1.00  0.00     0.102 C 
HETATM    6  N3  UNL     1      18.571  -0.294  51.968  1.00  0.00    -0.191 NA
HETATM    7  C12 UNL     1      21.704   1.090  52.551  1.00  0.00     0.000 A 
HETATM    8  C13 UNL     1      21.972  -0.240  52.793  1.00  0.00     0.016 A 
HETATM    9  C14 UNL     1      23.238  -0.696  53.158  1.00  0.00     0.030 A 
HETATM   10  C15 UNL     1      24.215   0.270  53.261  1.00  0.00     0.036 A 
HETATM   11  C21 UNL     1      23.943   1.597  53.019  1.00  0.00     0.045 A 
HETATM   12  C22 UNL     1      22.691   2.042  52.660  1.00  0.00     0.024 A 
ENDROOT
BRANCH   1  13
HETATM   13  N1  UNL     1      23.504   4.373  52.543  1.00  0.00    -0.374 N 
HETATM   14  H14 UNL     1      24.305   4.387  53.203  1.00  0.00     0.161 HD
BRANCH  13  15
HETATM   15  C7  UNL     1      23.466   5.527  51.657  1.00  0.00     0.126 C 
BRANCH  15  16
HETATM   16  C6  UNL     1      24.410   5.448  50.506  1.00  0.00     0.055 C 
BRANCH  16  17
HETATM   17  C4  UNL     1      23.951   4.384  49.571  1.00  0.00    -0.060 C 
HETATM   18  C3  UNL     1      22.835   4.494  48.834  1.00  0.00     0.137 C 
HETATM   19  C5  UNL     1      24.834   3.203  49.533  1.00  0.00     0.045 C 
BRANCH  18  20
HETATM   20  O1  UNL     1      22.897   3.271  48.184  1.00  0.00    -0.363 OA
BRANCH  20  21
HETATM   21  C2  UNL     1      21.794   2.513  47.774  1.00  0.00     0.170 C 
HETATM   22  C1  UNL     1      21.679   1.286  48.667  1.00  0.00     0.034 C 
ENDBRANCH  20  21
ENDBRANCH  18  20
ENDBRANCH  16  17
ENDBRANCH  15  16
ENDBRANCH  13  15
ENDBRANCH   1  13
BRANCH  10  23
HETATM   23  N4  UNL     1      25.520  -0.205  53.637  1.00  0.00    -0.321 N 
HETATM   24  C16 UNL     1      26.605  -0.179  52.717  1.00  0.00     0.279 C 
HETATM   25  O2  UNL     1      26.348   0.281  51.569  1.00  0.00    -0.265 OA
HETATM   26  H18 UNL     1      25.685  -0.577  54.599  1.00  0.00     0.169 HD
BRANCH  24  27
HETATM   27  C17 UNL     1      27.933  -0.666  53.109  1.00  0.00     0.142 A 
HETATM   28  C18 UNL     1      29.056   0.051  53.539  1.00  0.00     0.045 A 
HETATM   29  C19 UNL     1      30.040  -0.894  53.780  1.00  0.00     0.027 A 
HETATM   30  C20 UNL     1      29.494  -2.112  53.495  1.00  0.00     0.143 A 
HETATM   31  O3  UNL     1      28.256  -1.932  53.105  1.00  0.00    -0.317 OA
ENDBRANCH  24  27
ENDBRANCH  10  23
TORSDOF 8
ENDMDL
MODEL 4
REMARK VINA RESULT:      -8.0      1.712      2.529
REMARK  8 active torsions:
REMARK  status: ('A' for Active; 'I' for Inactive)
REMARK    1  A    between atoms: C2_2  and  O1_3 
REMARK    2  A    between atoms: O1_3  and  C3_4 
REMARK    3  A    between atoms: C4_5  and  C6_7 
REMARK    4  A    between atoms: C6_7  and  C7_8 
REMARK    5  A    between atoms: C7_8  and  N1_9 
REMARK    6  A    between atoms: N1_9  and  C8_10 
REMARK    7  A    between atoms: C15_19  and  N4_20 
REMARK       I    between atoms: N4_20  and  C16_21 
REMARK    8  A    between atoms: C16_21  and  C17_23 
ROOT
HETATM    1  C8  UNL     1      20.695   1.717  52.261  1.00  0.00     0.134 A 
HETATM    2  N2  UNL     1      19.392   1.629  51.962  1.00  0.00    -0.241 NA
HETATM    3  C9  UNL     1      18.626   0.580  52.306  1.00  0.00     0.142 A 
HETATM    4  C10 UNL     1      19.125  -0.495  52.998  1.00  0.00     0.073 A 
HETATM    5  C11 UNL     1      18.362  -1.635  53.389  1.00  0.00     0.102 C 
HETATM    6  N3  UNL     1      17.749  -2.571  53.692  1.00  0.00    -0.191 NA
HETATM    7  C12 UNL     1      20.475  -0.446  53.330  1.00  0.00     0.000 A 
HETATM    8  C13 UNL     1      21.059  -1.483  54.025  1.00  0.00     0.016 A 
HETATM    9  C14 UNL     1      22.406  -1.481  54.382  1.00  0.00     0.030 A 
HETATM   10  C15 UNL     1      23.127  -0.373  53.995  1.00  0.00     0.036 A 
HETATM   11  C21 UNL     1      22.539   0.661  53.301  1.00  0.00     0.045 A 
HETATM   12  C22 UNL     1      21.208   0.654  52.951  1.00  0.00     0.024 A 
ENDROOT
BRANCH   1  13
HETATM   13  N1  UNL     1      21.437   2.861  51.863  1.00  0.00    -0.374 N 
HETATM   14  H14 UNL     1      21.811   3.612  52.475  1.00  0.00     0.161 HD
BRANCH  13  15
HETATM   15  C7  UNL     1      21.740   3.062  50.453  1.00  0.00     0.126 C 
BRANCH  15  16
HETATM   16  C6  UNL     1      22.940   2.320  49.973  1.00  0.00     0.055 C 
BRANCH  16  17
HETATM   17  C4  UNL     1      24.032   3.291  49.686  1.00  0.00    -0.060 C 
HETATM   18  C3  UNL     1      25.275   3.154  50.174  1.00  0.00     0.137 C 
HETATM   19  C5  UNL     1      23.620   4.411  48.821  1.00  0.00     0.045 C 
BRANCH  18  20
HETATM   20  O1  UNL     1      25.841   4.289  49.613  1.00  0.00    -0.363 OA
BRANCH  20  21
HETATM   21  C2  UNL     1      27.123   4.365  49.057  1.00  0.00     0.170 C 
HETATM   22  C1  UNL     1      27.342   5.771  48.516  1.00  0.00     0.034 C 
ENDBRANCH  20  21
ENDBRANCH  18  20
ENDBRANCH  16  17
ENDBRANCH  15  16
ENDBRANCH  13  15
ENDBRANCH   1  13
BRANCH  10  23
HETATM   23  N4  UNL     1      24.517  -0.374  54.365  1.00  0.00    -0.321 N 
HETATM   24  C16 UNL     1      25.533  -0.098  53.407  1.00  0.00     0.279 C 
HETATM   25  O2  UNL     1      25.138   0.146  52.233  1.00  0.00    -0.265 OA
HETATM   26  H18 UNL     1      24.797  -0.582  55.350  1.00  0.00     0.169 HD
BRANCH  24  27
HETATM   27  C17 UNL     1      26.949  -0.102  53.794  1.00  0.00     0.142 A 
HETATM   28  C18 UNL     1      28.012  -0.857  53.284  1.00  0.00     0.045 A 
HETATM   29  C19 UNL     1      29.131  -0.472  54.004  1.00  0.00     0.027 A 
HETATM   30  C20 UNL     1      28.718   0.474  54.898  1.00  0.00     0.143 A 
HETATM   31  O3  UNL     1      27.430   0.660  54.740  1.00  0.00    -0.317 OA
ENDBRANCH  24  27
ENDBRANCH  10  23
TORSDOF 8
ENDMDL
MODEL 5
REMARK VINA RESULT:      -7.9      2.583      5.672
REMARK  8 active torsions:
REMARK  status: ('A' for Active; 'I' for Inactive)
REMARK    1  A    between atoms: C2_2  and  O1_3 
REMARK    2  A    between atoms: O1_3  and  C3_4 
REMARK    3  A    between atoms: C4_5  and  C6_7 
REMARK    4  A    between atoms: C6_7  and  C7_8 
REMARK    5  A    between atoms: C7_8  and  N1_9 
REMARK    6  A    between atoms: N1_9  and  C8_10 
REMARK    7  A    between atoms: C15_19  and  N4_20 
REMARK       I    between atoms: N4_20  and  C16_21 
REMARK    8  A    between atoms: C16_21  and  C17_23 
ROOT
HETATM    1  C8  UNL     1      22.264   0.844  51.624  1.00  0.00     0.134 A 
HETATM    2  N2  UNL     1      21.804  -0.188  52.343  1.00  0.00    -0.241 NA
HETATM    3  C9  UNL     1      22.497  -0.758  53.343  1.00  0.00     0.142 A 
HETATM    4  C10 UNL     1      23.745  -0.320  53.711  1.00  0.00     0.073 A 
HETATM    5  C11 UNL     1      24.527  -0.884  54.763  1.00  0.00     0.102 C 
HETATM    6  N3  UNL     1      25.172  -1.351  55.604  1.00  0.00    -0.191 NA
HETATM    7  C12 UNL     1      24.263   0.752  52.991  1.00  0.00     0.000 A 
HETATM    8  C13 UNL     1      25.509   1.257  53.293  1.00  0.00     0.016 A 
HETATM    9  C14 UNL     1      26.072   2.329  52.603  1.00  0.00     0.030 A 
HETATM   10  C15 UNL     1      25.302   2.859  51.591  1.00  0.00     0.036 A 
HETATM   11  C21 UNL     1      24.057   2.353  51.293  1.00  0.00     0.045 A 
HETATM   12  C22 UNL     1      23.506   1.293  51.978  1.00  0.00     0.024 A 
ENDROOT
BRANCH   1  13
HETATM   13  N1  UNL     1      21.470   1.391  50.582  1.00  0.00    -0.374 N 
HETATM   14  H14 UNL     1      21.685   1.398  49.566  1.00  0.00     0.161 HD
BRANCH  13  15
HETATM   15  C7  UNL     1      20.200   2.026  50.907  1.00  0.00     0.126 C 
BRANCH  15  16
HETATM   16  C6  UNL     1      20.278   3.015  52.019  1.00  0.00     0.055 C 
BRANCH  16  17
HETATM   17  C4  UNL     1      20.804   4.304  51.490  1.00  0.00    -0.060 C 
HETATM   18  C3  UNL     1      21.862   4.933  52.026  1.00  0.00     0.137 C 
HETATM   19  C5  UNL     1      20.057   4.820  50.328  1.00  0.00     0.045 C 
BRANCH  18  20
HETATM   20  O1  UNL     1      21.902   6.027  51.174  1.00  0.00    -0.363 OA
BRANCH  20  21
HETATM   21  C2  UNL     1      23.057   6.726  50.806  1.00  0.00     0.170 C 
HETATM   22  C1  UNL     1      23.099   6.843  49.289  1.00  0.00     0.034 C 
ENDBRANCH  20  21
ENDBRANCH  18  20
ENDBRANCH  16  17
ENDBRANCH  15  16
ENDBRANCH  13  15
ENDBRANCH   1  13
BRANCH  10  23
HETATM   23  N4  UNL     1      25.886   3.965  50.880  1.00  0.00    -0.321 N 
HETATM   24  C16 UNL     1      26.693   3.755  49.727  1.00  0.00     0.279 C 
HETATM   25  O2  UNL     1      26.858   2.553  49.378  1.00  0.00    -0.265 OA
HETATM   26  H18 UNL     1      25.720   4.944  51.207  1.00  0.00     0.169 HD
BRANCH  24  27
HETATM   27  C17 UNL     1      27.285   4.890  49.010  1.00  0.00     0.142 A 
HETATM   28  C18 UNL     1      26.715   6.119  48.657  1.00  0.00     0.045 A 
HETATM   29  C19 UNL     1      27.708   6.822  47.993  1.00  0.00     0.027 A 
HETATM   30  C20 UNL     1      28.810   6.017  47.968  1.00  0.00     0.143 A 
HETATM   31  O3  UNL     1      28.518   4.893  48.575  1.00  0.00    -0.317 OA
ENDBRANCH  24  27
ENDBRANCH  10  23
TORSDOF 8
ENDMDL
MODEL 6
REMARK VINA RESULT:      -7.9      3.365      7.992
REMARK  8 active torsions:
REMARK  status: ('A' for Active; 'I' for Inactive)
REMARK    1  A    between atoms: C2_2  and  O1_3 
REMARK    2  A    between atoms: O1_3  and  C3_4 
REMARK    3  A    between atoms: C4_5  and  C6_7 
REMARK    4  A    between atoms: C6_7  and  C7_8 
REMARK    5  A    between atoms: C7_8  and  N1_9 
REMARK    6  A    between atoms: N1_9  and  C8_10 
REMARK    7  A    between atoms: C15_19  and  N4_20 
REMARK       I    between atoms: N4_20  and  C16_21 
REMARK    8  A    between atoms: C16_21  and  C17_23 
ROOT
HETATM    1  C8  UNL     1      26.044   4.468  49.261  1.00  0.00     0.134 A 
HETATM    2  N2  UNL     1      24.806   4.952  49.419  1.00  0.00    -0.241 NA
HETATM    3  C9  UNL     1      24.452   6.201  49.074  1.00  0.00     0.142 A 
HETATM    4  C10 UNL     1      25.343   7.089  48.525  1.00  0.00     0.073 A 
HETATM    5  C11 UNL     1      25.026   8.425  48.139  1.00  0.00     0.102 C 
HETATM    6  N3  UNL     1      24.777   9.517  47.842  1.00  0.00    -0.191 NA
HETATM    7  C12 UNL     1      26.643   6.628  48.342  1.00  0.00     0.000 A 
HETATM    8  C13 UNL     1      27.604   7.453  47.797  1.00  0.00     0.016 A 
HETATM    9  C14 UNL     1      28.919   7.039  47.593  1.00  0.00     0.030 A 
HETATM   10  C15 UNL     1      29.205   5.746  47.972  1.00  0.00     0.036 A 
HETATM   11  C21 UNL     1      28.243   4.925  48.516  1.00  0.00     0.045 A 
HETATM   12  C22 UNL     1      26.945   5.339  48.715  1.00  0.00     0.024 A 
ENDROOT
BRANCH   1  13
HETATM   13  N1  UNL     1      26.339   3.135  49.652  1.00  0.00    -0.374 N 
HETATM   14  H14 UNL     1      26.435   2.305  49.034  1.00  0.00     0.161 HD
BRANCH  13  15
HETATM   15  C7  UNL     1      26.541   2.829  51.061  1.00  0.00     0.126 C 
BRANCH  15  16
HETATM   16  C6  UNL     1      25.601   1.809  51.607  1.00  0.00     0.055 C 
BRANCH  16  17
HETATM   17  C4  UNL     1      26.294   1.027  52.669  1.00  0.00    -0.060 C 
HETATM   18  C3  UNL     1      27.175   1.577  53.521  1.00  0.00     0.137 C 
HETATM   19  C5  UNL     1      25.925  -0.400  52.694  1.00  0.00     0.045 C 
BRANCH  18  20
HETATM   20  O1  UNL     1      27.489   0.441  54.251  1.00  0.00    -0.363 OA
BRANCH  20  21
HETATM   21  C2  UNL     1      28.749   0.140  54.781  1.00  0.00     0.170 C 
HETATM   22  C1  UNL     1      29.673  -0.278  53.646  1.00  0.00     0.034 C 
ENDBRANCH  20  21
ENDBRANCH  18  20
ENDBRANCH  16  17
ENDBRANCH  15  16
ENDBRANCH  13  15
ENDBRANCH   1  13
BRANCH  10  23
HETATM   23  N4  UNL     1      30.564   5.322  47.761  1.00  0.00    -0.321 N 
HETATM   24  C16 UNL     1      31.593   5.663  48.683  1.00  0.00     0.279 C 
HETATM   25  O2  UNL     1      31.237   6.348  49.682  1.00  0.00    -0.265 OA
HETATM   26  H18 UNL     1      30.810   4.756  46.918  1.00  0.00     0.169 HD
BRANCH  24  27
HETATM   27  C17 UNL     1      32.976   5.226  48.458  1.00  0.00     0.142 A 
HETATM   28  C18 UNL     1      33.465   4.181  47.666  1.00  0.00     0.045 A 
HETATM   29  C19 UNL     1      34.843   4.208  47.810  1.00  0.00     0.027 A 
HETATM   30  C20 UNL     1      35.130   5.238  48.659  1.00  0.00     0.143 A 
HETATM   31  O3  UNL     1      34.005   5.809  49.015  1.00  0.00    -0.317 OA
ENDBRANCH  24  27
ENDBRANCH  10  23
TORSDOF 8
ENDMDL
MODEL 7
REMARK VINA RESULT:      -7.8      2.741      6.179
REMARK  8 active torsions:
REMARK  status: ('A' for Active; 'I' for Inactive)
REMARK    1  A    between atoms: C2_2  and  O1_3 
REMARK    2  A    between atoms: O1_3  and  C3_4 
REMARK    3  A    between atoms: C4_5  and  C6_7 
REMARK    4  A    between atoms: C6_7  and  C7_8 
REMARK    5  A    between atoms: C7_8  and  N1_9 
REMARK    6  A    between atoms: N1_9  and  C8_10 
REMARK    7  A    between atoms: C15_19  and  N4_20 
REMARK       I    between atoms: N4_20  and  C16_21 
REMARK    8  A    between atoms: C16_21  and  C17_23 
ROOT
HETATM    1  C8  UNL     1      25.358   2.550  51.319  1.00  0.00     0.134 A 
HETATM    2  N2  UNL     1      26.633   2.818  51.627  1.00  0.00    -0.241 NA
HETATM    3  C9  UNL     1      27.333   2.124  52.541  1.00  0.00     0.142 A 
HETATM    4  C10 UNL     1      26.788   1.076  53.238  1.00  0.00     0.073 A 
HETATM    5  C11 UNL     1      27.481   0.304  54.219  1.00  0.00     0.102 C 
HETATM    6  N3  UNL     1      28.034  -0.312  55.029  1.00  0.00    -0.191 NA
HETATM    7  C12 UNL     1      25.464   0.761  52.950  1.00  0.00     0.000 A 
HETATM    8  C13 UNL     1      24.837  -0.278  53.603  1.00  0.00     0.016 A 
HETATM    9  C14 UNL     1      23.513  -0.634  53.350  1.00  0.00     0.030 A 
HETATM   10  C15 UNL     1      22.862   0.123  52.401  1.00  0.00     0.036 A 
HETATM   11  C21 UNL     1      23.492   1.160  51.750  1.00  0.00     0.045 A 
HETATM   12  C22 UNL     1      24.800   1.506  52.004  1.00  0.00     0.024 A 
ENDROOT
BRANCH   1  13
HETATM   13  N1  UNL     1      24.687   3.329  50.340  1.00  0.00    -0.374 N 
HETATM   14  H14 UNL     1      24.020   2.993  49.618  1.00  0.00     0.161 HD
BRANCH  13  15
HETATM   15  C7  UNL     1      24.915   4.766  50.290  1.00  0.00     0.126 C 
BRANCH  15  16
HETATM   16  C6  UNL     1      24.985   5.327  48.911  1.00  0.00     0.055 C 
BRANCH  16  17
HETATM   17  C4  UNL     1      26.302   5.998  48.724  1.00  0.00    -0.060 C 
HETATM   18  C3  UNL     1      26.432   7.329  48.609  1.00  0.00     0.137 C 
HETATM   19  C5  UNL     1      27.443   5.065  48.675  1.00  0.00     0.045 C 
BRANCH  18  20
HETATM   20  O1  UNL     1      27.809   7.388  48.461  1.00  0.00    -0.363 OA
BRANCH  20  21
HETATM   21  C2  UNL     1      28.611   8.493  48.771  1.00  0.00     0.170 C 
HETATM   22  C1  UNL     1      27.950   9.282  49.893  1.00  0.00     0.034 C 
ENDBRANCH  20  21
ENDBRANCH  18  20
ENDBRANCH  16  17
ENDBRANCH  15  16
ENDBRANCH  13  15
ENDBRANCH   1  13
BRANCH  10  23
HETATM   23  N4  UNL     1      21.495  -0.246  52.143  1.00  0.00    -0.321 N 
HETATM   24  C16 UNL     1      20.441   0.197  52.990  1.00  0.00     0.279 C 
HETATM   25  O2  UNL     1      20.782   0.922  53.966  1.00  0.00    -0.265 OA
HETATM   26  H18 UNL     1      21.262  -0.848  51.322  1.00  0.00     0.169 HD
BRANCH  24  27
HETATM   27  C17 UNL     1      19.051  -0.185  52.719  1.00  0.00     0.142 A 
HETATM   28  C18 UNL     1      18.180   0.263  51.719  1.00  0.00     0.045 A 
HETATM   29  C19 UNL     1      16.990  -0.420  51.916  1.00  0.00     0.027 A 
HETATM   30  C20 UNL     1      17.178  -1.233  52.996  1.00  0.00     0.143 A 
HETATM   31  O3  UNL     1      18.401  -1.064  53.437  1.00  0.00    -0.317 OA
ENDBRANCH  24  27
ENDBRANCH  10  23
TORSDOF 8
ENDMDL
MODEL 8
REMARK VINA RESULT:      -7.8      3.386      8.220
REMARK  8 active torsions:
REMARK  status: ('A' for Active; 'I' for Inactive)
REMARK    1  A    between atoms: C2_2  and  O1_3 
REMARK    2  A    between atoms: O1_3  and  C3_4 
REMARK    3  A    between atoms: C4_5  and  C6_7 
REMARK    4  A    between atoms: C6_7  and  C7_8 
REMARK    5  A    between atoms: C7_8  and  N1_9 
REMARK    6  A    between atoms: N1_9  and  C8_10 
REMARK    7  A    between atoms: C15_19  and  N4_20 
REMARK       I    between atoms: N4_20  and  C16_21 
REMARK    8  A    between atoms: C16_21  and  C17_23 
ROOT
HETATM    1  C8  UNL     1      26.158   4.490  49.377  1.00  0.00     0.134 A 
HETATM    2  N2  UNL     1      24.925   4.973  49.575  1.00  0.00    -0.241 NA
HETATM    3  C9  UNL     1      24.551   6.212  49.211  1.00  0.00     0.142 A 
HETATM    4  C10 UNL     1      25.414   7.086  48.600  1.00  0.00     0.073 A 
HETATM    5  C11 UNL     1      25.075   8.411  48.190  1.00  0.00     0.102 C 
HETATM    6  N3  UNL     1      24.808   9.493  47.874  1.00  0.00    -0.191 NA
HETATM    7  C12 UNL     1      26.707   6.626  48.373  1.00  0.00     0.000 A 
HETATM    8  C13 UNL     1      27.639   7.438  47.765  1.00  0.00     0.016 A 
HETATM    9  C14 UNL     1      28.946   7.023  47.515  1.00  0.00     0.030 A 
HETATM   10  C15 UNL     1      29.255   5.742  47.918  1.00  0.00     0.036 A 
HETATM   11  C21 UNL     1      28.320   4.934  48.525  1.00  0.00     0.045 A 
HETATM   12  C22 UNL     1      27.030   5.349  48.769  1.00  0.00     0.024 A 
ENDROOT
BRANCH   1  13
HETATM   13  N1  UNL     1      26.475   3.169  49.792  1.00  0.00    -0.374 N 
HETATM   14  H14 UNL     1      27.148   2.515  49.346  1.00  0.00     0.161 HD
BRANCH  13  15
HETATM   15  C7  UNL     1      25.820   2.610  50.965  1.00  0.00     0.126 C 
BRANCH  15  16
HETATM   16  C6  UNL     1      26.523   1.439  51.560  1.00  0.00     0.055 C 
BRANCH  16  17
HETATM   17  C4  UNL     1      25.551   0.639  52.357  1.00  0.00    -0.060 C 
HETATM   18  C3  UNL     1      24.267   0.998  52.512  1.00  0.00     0.137 C 
HETATM   19  C5  UNL     1      26.130  -0.577  52.956  1.00  0.00     0.045 C 
BRANCH  18  20
HETATM   20  O1  UNL     1      23.854  -0.060  53.307  1.00  0.00    -0.363 OA
BRANCH  20  21
HETATM   21  C2  UNL     1      22.523  -0.396  53.582  1.00  0.00     0.170 C 
HETATM   22  C1  UNL     1      22.469  -1.159  54.898  1.00  0.00     0.034 C 
ENDBRANCH  20  21
ENDBRANCH  18  20
ENDBRANCH  16  17
ENDBRANCH  15  16
ENDBRANCH  13  15
ENDBRANCH   1  13
BRANCH  10  23
HETATM   23  N4  UNL     1      30.605   5.317  47.659  1.00  0.00    -0.321 N 
HETATM   24  C16 UNL     1      31.605   5.389  48.669  1.00  0.00     0.279 C 
HETATM   25  O2  UNL     1      31.232   5.843  49.787  1.00  0.00    -0.265 OA
HETATM   26  H18 UNL     1      30.866   4.948  46.717  1.00  0.00     0.169 HD
BRANCH  24  27
HETATM   27  C17 UNL     1      32.979   4.954  48.396  1.00  0.00     0.142 A 
HETATM   28  C18 UNL     1      33.439   3.869  47.640  1.00  0.00     0.045 A 
HETATM   29  C19 UNL     1      34.823   3.918  47.708  1.00  0.00     0.027 A 
HETATM   30  C20 UNL     1      35.141   4.998  48.479  1.00  0.00     0.143 A 
HETATM   31  O3  UNL     1      34.029   5.578  48.862  1.00  0.00    -0.317 OA
ENDBRANCH  24  27
ENDBRANCH  10  23
TORSDOF 8
ENDMDL
MODEL 9
REMARK VINA RESULT:      -7.7      2.412      6.159
REMARK  8 active torsions:
REMARK  status: ('A' for Active; 'I' for Inactive)
REMARK    1  A    between atoms: C2_2  and  O1_3 
REMARK    2  A    between atoms: O1_3  and  C3_4 
REMARK    3  A    between atoms: C4_5  and  C6_7 
REMARK    4  A    between atoms: C6_7  and  C7_8 
REMARK    5  A    between atoms: C7_8  and  N1_9 
REMARK    6  A    between atoms: N1_9  and  C8_10 
REMARK    7  A    between atoms: C15_19  and  N4_20 
REMARK       I    between atoms: N4_20  and  C16_21 
REMARK    8  A    between atoms: C16_21  and  C17_23 
ROOT
HETATM    1  C8  UNL     1      25.247   2.718  52.247  1.00  0.00     0.134 A 
HETATM    2  N2  UNL     1      26.584   2.699  52.181  1.00  0.00    -0.241 NA
HETATM    3  C9  UNL     1      27.321   1.607  52.445  1.00  0.00     0.142 A 
HETATM    4  C10 UNL     1      26.754   0.412  52.807  1.00  0.00     0.073 A 
HETATM    5  C11 UNL     1      27.483  -0.780  53.099  1.00  0.00     0.102 C 
HETATM    6  N3  UNL     1      28.074  -1.743  53.355  1.00  0.00    -0.191 NA
HETATM    7  C12 UNL     1      25.365   0.384  52.889  1.00  0.00     0.000 A 
HETATM    8  C13 UNL     1      24.711  -0.775  53.246  1.00  0.00     0.016 A 
HETATM    9  C14 UNL     1      23.323  -0.855  53.342  1.00  0.00     0.030 A 
HETATM   10  C15 UNL     1      22.637   0.305  53.057  1.00  0.00     0.036 A 
HETATM   11  C21 UNL     1      23.293   1.461  52.700  1.00  0.00     0.045 A 
HETATM   12  C22 UNL     1      24.665   1.534  52.607  1.00  0.00     0.024 A 
ENDROOT
BRANCH   1  13
HETATM   13  N1  UNL     1      24.540   3.913  51.953  1.00  0.00    -0.374 N 
HETATM   14  H14 UNL     1      24.334   4.698  52.601  1.00  0.00     0.161 HD
BRANCH  13  15
HETATM   15  C7  UNL     1      24.019   4.125  50.610  1.00  0.00     0.126 C 
BRANCH  15  16
HETATM   16  C6  UNL     1      24.876   3.565  49.526  1.00  0.00     0.055 C 
BRANCH  16  17
HETATM   17  C4  UNL     1      25.884   4.585  49.126  1.00  0.00    -0.060 C 
HETATM   18  C3  UNL     1      27.196   4.316  49.034  1.00  0.00     0.137 C 
HETATM   19  C5  UNL     1      25.309   5.913  48.843  1.00  0.00     0.045 C 
BRANCH  18  20
HETATM   20  O1  UNL     1      27.636   5.571  48.643  1.00  0.00    -0.363 OA
BRANCH  20  21
HETATM   21  C2  UNL     1      28.925   5.874  48.189  1.00  0.00     0.170 C 
HETATM   22  C1  UNL     1      29.027   7.375  47.960  1.00  0.00     0.034 C 
ENDBRANCH  20  21
ENDBRANCH  18  20
ENDBRANCH  16  17
ENDBRANCH  15  16
ENDBRANCH  13  15
ENDBRANCH   1  13
BRANCH  10  23
HETATM   23  N4  UNL     1      21.204   0.220  53.157  1.00  0.00    -0.321 N 
HETATM   24  C16 UNL     1      20.390   0.121  51.994  1.00  0.00     0.279 C 
HETATM   25  O2  UNL     1      21.000   0.112  50.889  1.00  0.00    -0.265 OA
HETATM   26  H18 UNL     1      20.743   0.231  54.095  1.00  0.00     0.169 HD
BRANCH  24  27
HETATM   27  C17 UNL     1      18.929   0.035  52.106  1.00  0.00     0.142 A 
HETATM   28  C18 UNL     1      18.140  -0.871  52.826  1.00  0.00     0.045 A 
HETATM   29  C19 UNL     1      16.826  -0.503  52.586  1.00  0.00     0.027 A 
HETATM   30  C20 UNL     1      16.865   0.579  51.756  1.00  0.00     0.143 A 
HETATM   31  O3  UNL     1      18.119   0.862  51.499  1.00  0.00    -0.317 OA
ENDBRANCH  24  27
ENDBRANCH  10  23
TORSDOF 8
ENDMDL
