MODEL 1
REMARK VINA RESULT:      -7.1      0.000      0.000
REMARK  4 active torsions:
REMARK  status: ('A' for Active; 'I' for Inactive)
REMARK    1  A    between atoms: O1_2  and  C2_3 
REMARK    2  A    between atoms: C3_4  and  O2_5 
REMARK    3  A    between atoms: C8_12  and  N3_13 
REMARK    4  A    between atoms: N3_13  and  C10_15 
ROOT
HETATM    1  C2  UNL     1      21.960   0.065  52.598  1.00  0.00     0.132 A 
HETATM    2  C3  UNL     1      23.122   0.637  52.241  1.00  0.00     0.120 A 
HETATM    3  C5  UNL     1      23.863   0.065  53.369  1.00  0.00     0.078 A 
HETATM    4  C6  UNL     1      22.673  -0.525  53.741  1.00  0.00     0.111 A 
HETATM    5  N1  UNL     1      22.613  -1.303  54.844  1.00  0.00    -0.238 NA
HETATM    6  C7  UNL     1      23.662  -1.550  55.626  1.00  0.00     0.236 A 
HETATM    7  N2  UNL     1      24.826  -0.987  55.283  1.00  0.00    -0.223 NA
HETATM    8  C8  UNL     1      24.949  -0.195  54.185  1.00  0.00     0.146 A 
ENDROOT
BRANCH   8   9
HETATM    9  N3  UNL     1      26.182   0.407  53.814  1.00  0.00    -0.335 N 
HETATM   10  C9  UNL     1      26.372   1.833  53.630  1.00  0.00     0.158 C 
BRANCH   9  11
HETATM   11  C10 UNL     1      27.303  -0.444  53.608  1.00  0.00     0.035 A 
HETATM   12  C11 UNL     1      27.195  -1.673  52.989  1.00  0.00     0.029 A 
HETATM   13  C12 UNL     1      28.262  -2.521  52.773  1.00  0.00     0.002 A 
HETATM   14  C13 UNL     1      29.505  -2.111  53.204  1.00  0.00     0.000 A 
HETATM   15  C14 UNL     1      29.703  -0.883  53.839  1.00  0.00     0.002 A 
HETATM   16  C15 UNL     1      28.574  -0.095  54.014  1.00  0.00     0.029 A 
ENDBRANCH   9  11
ENDBRANCH   8   9
BRANCH   2  17
HETATM   17  O2  UNL     1      23.666   1.458  51.272  1.00  0.00    -0.352 OA
HETATM   18  C4  UNL     1      22.916   2.167  50.302  1.00  0.00     0.210 C 
ENDBRANCH   2  17
BRANCH   1  19
HETATM   19  O1  UNL     1      20.645  -0.001  52.161  1.00  0.00    -0.351 OA
HETATM   20  C1  UNL     1      19.561  -0.235  53.020  1.00  0.00     0.210 C 
ENDBRANCH   1  19
TORSDOF 4
ENDMDL
MODEL 2
REMARK VINA RESULT:      -6.8      2.155      5.385
REMARK  4 active torsions:
REMARK  status: ('A' for Active; 'I' for Inactive)
REMARK    1  A    between atoms: O1_2  and  C2_3 
REMARK    2  A    between atoms: C3_4  and  O2_5 
REMARK    3  A    between atoms: C8_12  and  N3_13 
REMARK    4  A    between atoms: N3_13  and  C10_15 
ROOT
HETATM    1  C2  UNL     1      26.393  -0.385  53.884  1.00  0.00     0.132 A 
HETATM    2  C3  UNL     1      25.869   0.252  52.824  1.00  0.00     0.120 A 
HETATM    3  C5  UNL     1      24.484   0.003  53.236  1.00  0.00     0.078 A 
HETATM    4  C6  UNL     1      25.017  -0.652  54.326  1.00  0.00     0.111 A 
HETATM    5  N1  UNL     1      24.203  -1.209  55.250  1.00  0.00    -0.238 NA
HETATM    6  C7  UNL     1      22.874  -1.167  55.179  1.00  0.00     0.236 A 
HETATM    7  N2  UNL     1      22.338  -0.536  54.129  1.00  0.00    -0.223 NA
HETATM    8  C8  UNL     1      23.104   0.043  53.167  1.00  0.00     0.146 A 
ENDROOT
BRANCH   8   9
HETATM    9  N3  UNL     1      22.542   0.716  52.047  1.00  0.00    -0.335 N 
HETATM   10  C9  UNL     1      21.508   0.159  51.195  1.00  0.00     0.158 C 
BRANCH   9  11
HETATM   11  C10 UNL     1      23.023   2.020  51.742  1.00  0.00     0.035 A 
HETATM   12  C11 UNL     1      23.381   2.395  50.464  1.00  0.00     0.029 A 
HETATM   13  C12 UNL     1      23.850   3.650  50.134  1.00  0.00     0.002 A 
HETATM   14  C13 UNL     1      23.966   4.578  51.147  1.00  0.00     0.000 A 
HETATM   15  C14 UNL     1      23.625   4.281  52.469  1.00  0.00     0.002 A 
HETATM   16  C15 UNL     1      23.163   2.995  52.708  1.00  0.00     0.029 A 
ENDBRANCH   9  11
ENDBRANCH   8   9
BRANCH   2  17
HETATM   17  O2  UNL     1      26.245   0.938  51.684  1.00  0.00    -0.352 OA
HETATM   18  C4  UNL     1      26.905   2.191  51.679  1.00  0.00     0.210 C 
ENDBRANCH   2  17
BRANCH   1  19
HETATM   19  O1  UNL     1      27.638  -0.700  54.408  1.00  0.00    -0.351 OA
HETATM   20  C1  UNL     1      28.564   0.270  54.822  1.00  0.00     0.210 C 
ENDBRANCH   1  19
TORSDOF 4
ENDMDL
MODEL 3
REMARK VINA RESULT:      -6.8      2.321      5.731
REMARK  4 active torsions:
REMARK  status: ('A' for Active; 'I' for Inactive)
REMARK    1  A    between atoms: O1_2  and  C2_3 
REMARK    2  A    between atoms: C3_4  and  O2_5 
REMARK    3  A    between atoms: C8_12  and  N3_13 
REMARK    4  A    between atoms: N3_13  and  C10_15 
ROOT
HETATM    1  C2  UNL     1      26.647   0.058  53.834  1.00  0.00     0.132 A 
HETATM    2  C3  UNL     1      26.375   1.122  53.061  1.00  0.00     0.120 A 
HETATM    3  C5  UNL     1      24.924   0.936  53.147  1.00  0.00     0.078 A 
HETATM    4  C6  UNL     1      25.197  -0.157  53.941  1.00  0.00     0.111 A 
HETATM    5  N1  UNL     1      24.188  -0.904  54.443  1.00  0.00    -0.238 NA
HETATM    6  C7  UNL     1      22.901  -0.646  54.216  1.00  0.00     0.236 A 
HETATM    7  N2  UNL     1      22.615   0.411  53.449  1.00  0.00    -0.223 NA
HETATM    8  C8  UNL     1      23.586   1.199  52.915  1.00  0.00     0.146 A 
ENDROOT
BRANCH   8   9
HETATM    9  N3  UNL     1      23.290   2.324  52.097  1.00  0.00    -0.335 N 
HETATM   10  C9  UNL     1      23.439   3.703  52.522  1.00  0.00     0.158 C 
BRANCH   9  11
HETATM   11  C10 UNL     1      22.818   2.083  50.777  1.00  0.00     0.035 A 
HETATM   12  C11 UNL     1      21.854   1.135  50.498  1.00  0.00     0.029 A 
HETATM   13  C12 UNL     1      21.374   0.878  49.230  1.00  0.00     0.002 A 
HETATM   14  C13 UNL     1      21.892   1.614  48.186  1.00  0.00     0.000 A 
HETATM   15  C14 UNL     1      22.869   2.593  48.381  1.00  0.00     0.002 A 
HETATM   16  C15 UNL     1      23.293   2.784  49.688  1.00  0.00     0.029 A 
ENDBRANCH   9  11
ENDBRANCH   8   9
BRANCH   2  17
HETATM   17  O2  UNL     1      27.004   2.132  52.357  1.00  0.00    -0.352 OA
HETATM   18  C4  UNL     1      26.670   2.524  51.038  1.00  0.00     0.210 C 
ENDBRANCH   2  17
BRANCH   1  19
HETATM   19  O1  UNL     1      27.748  -0.611  54.349  1.00  0.00    -0.351 OA
HETATM   20  C1  UNL     1      29.057  -0.399  53.892  1.00  0.00     0.210 C 
ENDBRANCH   1  19
TORSDOF 4
ENDMDL
MODEL 4
REMARK VINA RESULT:      -6.4      1.610      2.856
REMARK  4 active torsions:
REMARK  status: ('A' for Active; 'I' for Inactive)
REMARK    1  A    between atoms: O1_2  and  C2_3 
REMARK    2  A    between atoms: C3_4  and  O2_5 
REMARK    3  A    between atoms: C8_12  and  N3_13 
REMARK    4  A    between atoms: N3_13  and  C10_15 
ROOT
HETATM    1  C2  UNL     1      21.805   0.750  52.046  1.00  0.00     0.132 A 
HETATM    2  C3  UNL     1      22.388  -0.137  52.868  1.00  0.00     0.120 A 
HETATM    3  C5  UNL     1      23.680   0.555  52.857  1.00  0.00     0.078 A 
HETATM    4  C6  UNL     1      23.086   1.469  52.012  1.00  0.00     0.111 A 
HETATM    5  N1  UNL     1      23.792   2.521  51.542  1.00  0.00    -0.238 NA
HETATM    6  C7  UNL     1      25.068   2.744  51.848  1.00  0.00     0.236 A 
HETATM    7  N2  UNL     1      25.663   1.870  52.666  1.00  0.00    -0.223 NA
HETATM    8  C8  UNL     1      25.006   0.792  53.172  1.00  0.00     0.146 A 
ENDROOT
BRANCH   8   9
HETATM    9  N3  UNL     1      25.630  -0.142  54.042  1.00  0.00    -0.335 N 
HETATM   10  C9  UNL     1      24.948  -0.841  55.115  1.00  0.00     0.158 C 
BRANCH   9  11
HETATM   11  C10 UNL     1      27.014  -0.411  53.849  1.00  0.00     0.035 A 
HETATM   12  C11 UNL     1      27.463  -1.482  53.103  1.00  0.00     0.029 A 
HETATM   13  C12 UNL     1      28.797  -1.769  52.896  1.00  0.00     0.002 A 
HETATM   14  C13 UNL     1      29.730  -0.934  53.471  1.00  0.00     0.000 A 
HETATM   15  C14 UNL     1      29.362   0.173  54.240  1.00  0.00     0.002 A 
HETATM   16  C15 UNL     1      27.999   0.386  54.395  1.00  0.00     0.029 A 
ENDBRANCH   9  11
ENDBRANCH   8   9
BRANCH   2  17
HETATM   17  O2  UNL     1      22.118  -1.297  53.570  1.00  0.00    -0.352 OA
HETATM   18  C4  UNL     1      20.930  -1.536  54.304  1.00  0.00     0.210 C 
ENDBRANCH   2  17
BRANCH   1  19
HETATM   19  O1  UNL     1      20.573   0.973  51.447  1.00  0.00    -0.351 OA
HETATM   20  C1  UNL     1      19.724   2.029  51.808  1.00  0.00     0.210 C 
ENDBRANCH   1  19
TORSDOF 4
ENDMDL
MODEL 5
REMARK VINA RESULT:      -6.4      2.541      6.221
REMARK  4 active torsions:
REMARK  status: ('A' for Active; 'I' for Inactive)
REMARK    1  A    between atoms: O1_2  and  C2_3 
REMARK    2  A    between atoms: C3_4  and  O2_5 
REMARK    3  A    between atoms: C8_12  and  N3_13 
REMARK    4  A    between atoms: N3_13  and  C10_15 
ROOT
HETATM    1  C2  UNL     1      25.614  -0.291  53.106  1.00  0.00     0.132 A 
HETATM    2  C3  UNL     1      24.372   0.196  53.259  1.00  0.00     0.120 A 
HETATM    3  C5  UNL     1      24.637   1.391  52.452  1.00  0.00     0.078 A 
HETATM    4  C6  UNL     1      25.913   0.895  52.292  1.00  0.00     0.111 A 
HETATM    5  N1  UNL     1      26.823   1.578  51.562  1.00  0.00    -0.238 NA
HETATM    6  C7  UNL     1      26.562   2.738  50.964  1.00  0.00     0.236 A 
HETATM    7  N2  UNL     1      25.329   3.236  51.106  1.00  0.00    -0.223 NA
HETATM    8  C8  UNL     1      24.371   2.596  51.829  1.00  0.00     0.146 A 
ENDROOT
BRANCH   8   9
HETATM    9  N3  UNL     1      23.058   3.118  51.985  1.00  0.00    -0.335 N 
HETATM   10  C9  UNL     1      22.763   4.456  52.463  1.00  0.00     0.158 C 
BRANCH   9  11
HETATM   11  C10 UNL     1      21.961   2.275  51.652  1.00  0.00     0.035 A 
HETATM   12  C11 UNL     1      21.932   1.522  50.496  1.00  0.00     0.029 A 
HETATM   13  C12 UNL     1      20.886   0.694  50.144  1.00  0.00     0.002 A 
HETATM   14  C13 UNL     1      19.810   0.621  51.002  1.00  0.00     0.000 A 
HETATM   15  C14 UNL     1      19.758   1.349  52.193  1.00  0.00     0.002 A 
HETATM   16  C15 UNL     1      20.855   2.155  52.466  1.00  0.00     0.029 A 
ENDBRANCH   9  11
ENDBRANCH   8   9
BRANCH   2  17
HETATM   17  O2  UNL     1      23.165  -0.099  53.864  1.00  0.00    -0.352 OA
HETATM   18  C4  UNL     1      22.293  -1.139  53.459  1.00  0.00     0.210 C 
ENDBRANCH   2  17
BRANCH   1  19
HETATM   19  O1  UNL     1      26.364  -1.392  53.495  1.00  0.00    -0.351 OA
HETATM   20  C1  UNL     1      27.102  -2.175  52.594  1.00  0.00     0.210 C 
ENDBRANCH   1  19
TORSDOF 4
ENDMDL
MODEL 6
REMARK VINA RESULT:      -6.2      2.120      2.420
REMARK  4 active torsions:
REMARK  status: ('A' for Active; 'I' for Inactive)
REMARK    1  A    between atoms: O1_2  and  C2_3 
REMARK    2  A    between atoms: C3_4  and  O2_5 
REMARK    3  A    between atoms: C8_12  and  N3_13 
REMARK    4  A    between atoms: N3_13  and  C10_15 
ROOT
HETATM    1  C2  UNL     1      21.324   2.629  52.614  1.00  0.00     0.132 A 
HETATM    2  C3  UNL     1      22.550   3.014  52.223  1.00  0.00     0.120 A 
HETATM    3  C5  UNL     1      23.163   1.721  52.540  1.00  0.00     0.078 A 
HETATM    4  C6  UNL     1      21.907   1.320  52.943  1.00  0.00     0.111 A 
HETATM    5  N1  UNL     1      21.710   0.070  53.417  1.00  0.00    -0.238 NA
HETATM    6  C7  UNL     1      22.680  -0.836  53.525  1.00  0.00     0.236 A 
HETATM    7  N2  UNL     1      23.906  -0.467  53.138  1.00  0.00    -0.223 NA
HETATM    8  C8  UNL     1      24.167   0.776  52.654  1.00  0.00     0.146 A 
ENDROOT
BRANCH   8   9
HETATM    9  N3  UNL     1      25.467   1.176  52.242  1.00  0.00    -0.335 N 
HETATM   10  C9  UNL     1      25.730   2.132  51.182  1.00  0.00     0.158 C 
BRANCH   9  11
HETATM   11  C10 UNL     1      26.585   0.603  52.911  1.00  0.00     0.035 A 
HETATM   12  C11 UNL     1      27.209  -0.542  52.459  1.00  0.00     0.029 A 
HETATM   13  C12 UNL     1      28.294  -1.123  53.083  1.00  0.00     0.002 A 
HETATM   14  C13 UNL     1      28.777  -0.519  54.223  1.00  0.00     0.000 A 
HETATM   15  C14 UNL     1      28.205   0.642  54.748  1.00  0.00     0.002 A 
HETATM   16  C15 UNL     1      27.118   1.157  54.056  1.00  0.00     0.029 A 
ENDBRANCH   9  11
ENDBRANCH   8   9
BRANCH   2  17
HETATM   17  O2  UNL     1      23.223   4.103  51.704  1.00  0.00    -0.352 OA
HETATM   18  C4  UNL     1      22.673   5.402  51.571  1.00  0.00     0.210 C 
ENDBRANCH   2  17
BRANCH   1  19
HETATM   19  O1  UNL     1      20.041   3.148  52.706  1.00  0.00    -0.351 OA
HETATM   20  C1  UNL     1      19.286   3.532  51.587  1.00  0.00     0.210 C 
ENDBRANCH   1  19
TORSDOF 4
ENDMDL
MODEL 7
REMARK VINA RESULT:      -6.2      4.704      8.196
REMARK  4 active torsions:
REMARK  status: ('A' for Active; 'I' for Inactive)
REMARK    1  A    between atoms: O1_2  and  C2_3 
REMARK    2  A    between atoms: C3_4  and  O2_5 
REMARK    3  A    between atoms: C8_12  and  N3_13 
REMARK    4  A    between atoms: N3_13  and  C10_15 
ROOT
HETATM    1  C2  UNL     1      27.478   4.725  48.826  1.00  0.00     0.132 A 
HETATM    2  C3  UNL     1      26.767   3.863  49.570  1.00  0.00     0.120 A 
HETATM    3  C5  UNL     1      25.568   4.707  49.577  1.00  0.00     0.078 A 
HETATM    4  C6  UNL     1      26.295   5.596  48.814  1.00  0.00     0.111 A 
HETATM    5  N1  UNL     1      25.736   6.756  48.403  1.00  0.00    -0.238 NA
HETATM    6  C7  UNL     1      24.486   7.113  48.694  1.00  0.00     0.236 A 
HETATM    7  N2  UNL     1      23.765   6.264  49.433  1.00  0.00    -0.223 NA
HETATM    8  C8  UNL     1      24.272   5.083  49.877  1.00  0.00     0.146 A 
ENDROOT
BRANCH   8   9
HETATM    9  N3  UNL     1      23.512   4.175  50.663  1.00  0.00    -0.335 N 
HETATM   10  C9  UNL     1      23.348   4.278  52.101  1.00  0.00     0.158 C 
BRANCH   9  11
HETATM   11  C10 UNL     1      22.869   3.093  49.999  1.00  0.00     0.035 A 
HETATM   12  C11 UNL     1      22.292   2.043  50.683  1.00  0.00     0.029 A 
HETATM   13  C12 UNL     1      21.661   0.980  50.069  1.00  0.00     0.002 A 
HETATM   14  C13 UNL     1      21.607   0.974  48.692  1.00  0.00     0.000 A 
HETATM   15  C14 UNL     1      22.165   1.998  47.922  1.00  0.00     0.002 A 
HETATM   16  C15 UNL     1      22.780   3.026  48.624  1.00  0.00     0.029 A 
ENDBRANCH   9  11
ENDBRANCH   8   9
BRANCH   2  17
HETATM   17  O2  UNL     1      26.873   2.634  50.193  1.00  0.00    -0.352 OA
HETATM   18  C4  UNL     1      26.596   2.398  51.562  1.00  0.00     0.210 C 
ENDBRANCH   2  17
BRANCH   1  19
HETATM   19  O1  UNL     1      28.747   4.836  48.274  1.00  0.00    -0.351 OA
HETATM   20  C1  UNL     1      29.416   6.061  48.129  1.00  0.00     0.210 C 
ENDBRANCH   1  19
TORSDOF 4
ENDMDL
MODEL 8
REMARK VINA RESULT:      -6.1      1.823      2.526
REMARK  4 active torsions:
REMARK  status: ('A' for Active; 'I' for Inactive)
REMARK    1  A    between atoms: O1_2  and  C2_3 
REMARK    2  A    between atoms: C3_4  and  O2_5 
REMARK    3  A    between atoms: C8_12  and  N3_13 
REMARK    4  A    between atoms: N3_13  and  C10_15 
ROOT
HETATM    1  C2  UNL     1      20.717   0.923  50.921  1.00  0.00     0.132 A 
HETATM    2  C3  UNL     1      21.857   1.631  50.952  1.00  0.00     0.120 A 
HETATM    3  C5  UNL     1      22.348   0.972  52.166  1.00  0.00     0.078 A 
HETATM    4  C6  UNL     1      21.178   0.242  52.139  1.00  0.00     0.111 A 
HETATM    5  N1  UNL     1      20.930  -0.682  53.093  1.00  0.00    -0.238 NA
HETATM    6  C7  UNL     1      21.767  -0.947  54.094  1.00  0.00     0.236 A 
HETATM    7  N2  UNL     1      22.908  -0.250  54.138  1.00  0.00    -0.223 NA
HETATM    8  C8  UNL     1      23.214   0.692  53.207  1.00  0.00     0.146 A 
ENDROOT
BRANCH   8   9
HETATM    9  N3  UNL     1      24.424   1.437  53.246  1.00  0.00    -0.335 N 
HETATM   10  C9  UNL     1      24.493   2.885  53.192  1.00  0.00     0.158 C 
BRANCH   9  11
HETATM   11  C10 UNL     1      25.647   0.717  53.344  1.00  0.00     0.035 A 
HETATM   12  C11 UNL     1      26.520   0.882  54.400  1.00  0.00     0.029 A 
HETATM   13  C12 UNL     1      27.712   0.199  54.526  1.00  0.00     0.002 A 
HETATM   14  C13 UNL     1      28.045  -0.698  53.535  1.00  0.00     0.000 A 
HETATM   15  C14 UNL     1      27.219  -0.926  52.431  1.00  0.00     0.002 A 
HETATM   16  C15 UNL     1      26.040  -0.196  52.387  1.00  0.00     0.029 A 
ENDBRANCH   9  11
ENDBRANCH   8   9
BRANCH   2  17
HETATM   17  O2  UNL     1      22.532   2.618  50.259  1.00  0.00    -0.352 OA
HETATM   18  C4  UNL     1      22.181   3.990  50.264  1.00  0.00     0.210 C 
ENDBRANCH   2  17
BRANCH   1  19
HETATM   19  O1  UNL     1      19.572   0.811  50.145  1.00  0.00    -0.351 OA
HETATM   20  C1  UNL     1      18.977   1.902  49.493  1.00  0.00     0.210 C 
ENDBRANCH   1  19
TORSDOF 4
ENDMDL
MODEL 9
REMARK VINA RESULT:      -6.0      3.192      4.338
REMARK  4 active torsions:
REMARK  status: ('A' for Active; 'I' for Inactive)
REMARK    1  A    between atoms: O1_2  and  C2_3 
REMARK    2  A    between atoms: C3_4  and  O2_5 
REMARK    3  A    between atoms: C8_12  and  N3_13 
REMARK    4  A    between atoms: N3_13  and  C10_15 
ROOT
HETATM    1  C2  UNL     1      22.615   5.221  51.424  1.00  0.00     0.132 A 
HETATM    2  C3  UNL     1      23.909   5.119  51.083  1.00  0.00     0.120 A 
HETATM    3  C5  UNL     1      23.984   3.692  51.411  1.00  0.00     0.078 A 
HETATM    4  C6  UNL     1      22.655   3.792  51.763  1.00  0.00     0.111 A 
HETATM    5  N1  UNL     1      21.988   2.708  52.218  1.00  0.00    -0.238 NA
HETATM    6  C7  UNL     1      22.545   1.506  52.354  1.00  0.00     0.236 A 
HETATM    7  N2  UNL     1      23.834   1.389  52.017  1.00  0.00    -0.223 NA
HETATM    8  C8  UNL     1      24.558   2.443  51.555  1.00  0.00     0.146 A 
ENDROOT
BRANCH   8   9
HETATM    9  N3  UNL     1      25.929   2.327  51.195  1.00  0.00    -0.335 N 
HETATM   10  C9  UNL     1      26.518   2.936  50.018  1.00  0.00     0.158 C 
BRANCH   9  11
HETATM   11  C10 UNL     1      26.778   1.564  52.044  1.00  0.00     0.035 A 
HETATM   12  C11 UNL     1      26.802   0.184  52.019  1.00  0.00     0.029 A 
HETATM   13  C12 UNL     1      27.614  -0.585  52.828  1.00  0.00     0.002 A 
HETATM   14  C13 UNL     1      28.447   0.070  53.709  1.00  0.00     0.000 A 
HETATM   15  C14 UNL     1      28.486   1.463  53.798  1.00  0.00     0.002 A 
HETATM   16  C15 UNL     1      27.636   2.156  52.948  1.00  0.00     0.029 A 
ENDBRANCH   9  11
ENDBRANCH   8   9
BRANCH   2  17
HETATM   17  O2  UNL     1      24.960   5.876  50.600  1.00  0.00    -0.352 OA
HETATM   18  C4  UNL     1      25.031   6.414  49.292  1.00  0.00     0.210 C 
ENDBRANCH   2  17
BRANCH   1  19
HETATM   19  O1  UNL     1      21.615   6.182  51.473  1.00  0.00    -0.351 OA
HETATM   20  C1  UNL     1      21.460   7.178  50.497  1.00  0.00     0.210 C 
ENDBRANCH   1  19
TORSDOF 4
ENDMDL
