MODEL 1
REMARK VINA RESULT:      -7.5      0.000      0.000
REMARK  5 active torsions:
REMARK  status: ('A' for Active; 'I' for Inactive)
REMARK    1  A    between atoms: C2_2  and  C4_4 
REMARK    2  A    between atoms: C4_4  and  O2_20 
REMARK    3  A    between atoms: C5_5  and  C6_6 
REMARK    4  A    between atoms: C9_11  and  O1_12 
REMARK    5  A    between atoms: O1_12  and  C10_13 
ROOT
HETATM    1  C6  UNL     1      27.372   1.400  52.912  1.00  0.00     0.037 A 
HETATM    2  C7  UNL     1      28.504   1.961  53.461  1.00  0.00     0.134 A 
HETATM    3  N1  UNL     1      29.120   1.412  54.527  1.00  0.00    -0.253 NA
HETATM    4  C8  UNL     1      28.613   0.287  55.062  1.00  0.00     0.235 A 
HETATM    5  N2  UNL     1      27.515  -0.291  54.559  1.00  0.00    -0.217 NA
HETATM    6  C9  UNL     1      26.875   0.230  53.498  1.00  0.00     0.182 A 
ENDROOT
BRANCH   6   7
HETATM    7  O1  UNL     1      25.746  -0.305  52.926  1.00  0.00    -0.291 OA
BRANCH   7   8
HETATM    8  C10 UNL     1      24.570  -0.541  53.624  1.00  0.00     0.079 A 
HETATM    9  C11 UNL     1      24.301  -1.076  54.860  1.00  0.00     0.037 A 
HETATM   10  C12 UNL     1      22.999  -1.188  55.293  1.00  0.00     0.004 A 
HETATM   11  C13 UNL     1      21.943  -0.772  54.509  1.00  0.00     0.019 A 
HETATM   12  C14 UNL     1      22.187  -0.230  53.261  1.00  0.00     0.013 A 
HETATM   13 BR1  UNL     1      20.665   0.304  52.263  1.00  0.00    -0.051 Br
HETATM   14  C15 UNL     1      23.509  -0.116  52.820  1.00  0.00     0.056 A 
ENDBRANCH   7   8
ENDBRANCH   6   7
BRANCH   1  15
HETATM   15  C5  UNL     1      26.739   1.988  51.743  1.00  0.00     0.054 C 
HETATM   16  C4  UNL     1      25.641   2.637  51.424  1.00  0.00     0.074 C 
BRANCH  16  17
HETATM   17  C2  UNL     1      24.404   3.149  52.063  1.00  0.00    -0.038 C 
HETATM   18  C1  UNL     1      24.102   3.546  53.313  1.00  0.00     0.021 C 
HETATM   19  C3  UNL     1      23.231   3.262  51.194  1.00  0.00     0.050 C 
ENDBRANCH  16  17
BRANCH  16  20
HETATM   20  O2  UNL     1      25.442   3.029  50.112  1.00  0.00    -0.355 OA
HETATM   21  C16 UNL     1      26.481   3.654  49.405  1.00  0.00     0.210 C 
ENDBRANCH  16  20
ENDBRANCH   1  15
TORSDOF 5
ENDMDL
MODEL 2
REMARK VINA RESULT:      -7.2      2.509      5.518
REMARK  5 active torsions:
REMARK  status: ('A' for Active; 'I' for Inactive)
REMARK    1  A    between atoms: C2_2  and  C4_4 
REMARK    2  A    between atoms: C4_4  and  O2_20 
REMARK    3  A    between atoms: C5_5  and  C6_6 
REMARK    4  A    between atoms: C9_11  and  O1_12 
REMARK    5  A    between atoms: O1_12  and  C10_13 
ROOT
HETATM    1  C6  UNL     1      25.622   1.638  52.490  1.00  0.00     0.037 A 
HETATM    2  C7  UNL     1      25.932   1.325  53.795  1.00  0.00     0.134 A 
HETATM    3  N1  UNL     1      27.151   1.577  54.312  1.00  0.00    -0.253 NA
HETATM    4  C8  UNL     1      28.083   2.150  53.530  1.00  0.00     0.235 A 
HETATM    5  N2  UNL     1      27.823   2.471  52.257  1.00  0.00    -0.217 NA
HETATM    6  C9  UNL     1      26.620   2.233  51.708  1.00  0.00     0.182 A 
ENDROOT
BRANCH   6   7
HETATM    7  O1  UNL     1      26.278   2.533  50.412  1.00  0.00    -0.291 OA
BRANCH   7   8
HETATM    8  C10 UNL     1      26.425   3.795  49.852  1.00  0.00     0.079 A 
HETATM    9  C11 UNL     1      27.317   4.327  48.953  1.00  0.00     0.037 A 
HETATM   10  C12 UNL     1      27.211   5.647  48.577  1.00  0.00     0.004 A 
HETATM   11  C13 UNL     1      26.220   6.461  49.085  1.00  0.00     0.019 A 
HETATM   12  C14 UNL     1      25.309   5.950  49.992  1.00  0.00     0.013 A 
HETATM   13 BR1  UNL     1      23.992   7.155  50.633  1.00  0.00    -0.051 Br
HETATM   14  C15 UNL     1      25.417   4.609  50.374  1.00  0.00     0.056 A 
ENDBRANCH   7   8
ENDBRANCH   6   7
BRANCH   1  15
HETATM   15  C5  UNL     1      24.292   1.388  51.957  1.00  0.00     0.054 C 
HETATM   16  C4  UNL     1      23.166   0.814  52.318  1.00  0.00     0.074 C 
BRANCH  16  17
HETATM   17  C2  UNL     1      22.586   0.085  53.473  1.00  0.00    -0.038 C 
HETATM   18  C1  UNL     1      23.051  -0.882  54.286  1.00  0.00     0.021 C 
HETATM   19  C3  UNL     1      21.218   0.453  53.844  1.00  0.00     0.050 C 
ENDBRANCH  16  17
BRANCH  16  20
HETATM   20  O2  UNL     1      22.095   0.814  51.442  1.00  0.00    -0.355 OA
HETATM   21  C16 UNL     1      22.216   1.439  50.190  1.00  0.00     0.210 C 
ENDBRANCH  16  20
ENDBRANCH   1  15
TORSDOF 5
ENDMDL
MODEL 3
REMARK VINA RESULT:      -7.1      2.779      5.311
REMARK  5 active torsions:
REMARK  status: ('A' for Active; 'I' for Inactive)
REMARK    1  A    between atoms: C2_2  and  C4_4 
REMARK    2  A    between atoms: C4_4  and  O2_20 
REMARK    3  A    between atoms: C5_5  and  C6_6 
REMARK    4  A    between atoms: C9_11  and  O1_12 
REMARK    5  A    between atoms: O1_12  and  C10_13 
ROOT
HETATM    1  C6  UNL     1      24.869  -0.308  54.561  1.00  0.00     0.037 A 
HETATM    2  C7  UNL     1      24.356  -1.014  55.627  1.00  0.00     0.134 A 
HETATM    3  N1  UNL     1      23.136  -1.585  55.576  1.00  0.00    -0.253 NA
HETATM    4  C8  UNL     1      22.406  -1.460  54.453  1.00  0.00     0.235 A 
HETATM    5  N2  UNL     1      22.867  -0.782  53.395  1.00  0.00    -0.217 NA
HETATM    6  C9  UNL     1      24.077  -0.199  53.411  1.00  0.00     0.182 A 
ENDROOT
BRANCH   6   7
HETATM    7  O1  UNL     1      24.618   0.510  52.366  1.00  0.00    -0.291 OA
BRANCH   7   8
HETATM    8  C10 UNL     1      24.323   1.842  52.109  1.00  0.00     0.079 A 
HETATM    9  C11 UNL     1      23.365   2.702  52.585  1.00  0.00     0.037 A 
HETATM   10  C12 UNL     1      23.318   4.001  52.130  1.00  0.00     0.004 A 
HETATM   11  C13 UNL     1      24.221   4.468  51.197  1.00  0.00     0.019 A 
HETATM   12  C14 UNL     1      25.196   3.622  50.701  1.00  0.00     0.013 A 
HETATM   13 BR1  UNL     1      26.381   4.362  49.419  1.00  0.00    -0.051 Br
HETATM   14  C15 UNL     1      25.243   2.303  51.164  1.00  0.00     0.056 A 
ENDBRANCH   7   8
ENDBRANCH   6   7
BRANCH   1  15
HETATM   15  C5  UNL     1      26.199   0.274  54.622  1.00  0.00     0.054 C 
HETATM   16  C4  UNL     1      27.421   0.015  54.212  1.00  0.00     0.074 C 
BRANCH  16  17
HETATM   17  C2  UNL     1      28.163  -1.020  53.449  1.00  0.00    -0.038 C 
HETATM   18  C1  UNL     1      29.464  -1.355  53.367  1.00  0.00     0.021 C 
HETATM   19  C3  UNL     1      27.356  -1.882  52.583  1.00  0.00     0.050 C 
ENDBRANCH  16  17
BRANCH  16  20
HETATM   20  O2  UNL     1      28.440   0.900  54.514  1.00  0.00    -0.355 OA
HETATM   21  C16 UNL     1      28.515   2.133  53.847  1.00  0.00     0.210 C 
ENDBRANCH  16  20
ENDBRANCH   1  15
TORSDOF 5
ENDMDL
MODEL 4
REMARK VINA RESULT:      -7.0      2.885      4.977
REMARK  5 active torsions:
REMARK  status: ('A' for Active; 'I' for Inactive)
REMARK    1  A    between atoms: C2_2  and  C4_4 
REMARK    2  A    between atoms: C4_4  and  O2_20 
REMARK    3  A    between atoms: C5_5  and  C6_6 
REMARK    4  A    between atoms: C9_11  and  O1_12 
REMARK    5  A    between atoms: O1_12  and  C10_13 
ROOT
HETATM    1  C6  UNL     1      22.553  -0.049  53.100  1.00  0.00     0.037 A 
HETATM    2  C7  UNL     1      21.557  -0.416  53.979  1.00  0.00     0.134 A 
HETATM    3  N1  UNL     1      21.835  -1.033  55.144  1.00  0.00    -0.253 NA
HETATM    4  C8  UNL     1      23.117  -1.294  55.452  1.00  0.00     0.235 A 
HETATM    5  N2  UNL     1      24.115  -0.955  54.627  1.00  0.00    -0.217 NA
HETATM    6  C9  UNL     1      23.876  -0.340  53.457  1.00  0.00     0.182 A 
ENDROOT
BRANCH   6   7
HETATM    7  O1  UNL     1      24.845   0.040  52.560  1.00  0.00    -0.291 OA
BRANCH   7   8
HETATM    8  C10 UNL     1      26.036   0.650  52.929  1.00  0.00     0.079 A 
HETATM    9  C11 UNL     1      26.380   1.949  53.211  1.00  0.00     0.037 A 
HETATM   10  C12 UNL     1      27.677   2.258  53.556  1.00  0.00     0.004 A 
HETATM   11  C13 UNL     1      28.652   1.286  53.626  1.00  0.00     0.019 A 
HETATM   12  C14 UNL     1      28.332  -0.030  53.346  1.00  0.00     0.013 A 
HETATM   13 BR1  UNL     1      29.749  -1.285  53.466  1.00  0.00    -0.051 Br
HETATM   14  C15 UNL     1      27.016  -0.345  52.997  1.00  0.00     0.056 A 
ENDBRANCH   7   8
ENDBRANCH   6   7
BRANCH   1  15
HETATM   15  C5  UNL     1      22.239   0.645  51.862  1.00  0.00     0.054 C 
HETATM   16  C4  UNL     1      22.514   1.779  51.257  1.00  0.00     0.074 C 
BRANCH  16  17
HETATM   17  C2  UNL     1      23.301   3.017  51.477  1.00  0.00    -0.038 C 
HETATM   18  C1  UNL     1      23.295   3.961  52.437  1.00  0.00     0.021 C 
HETATM   19  C3  UNL     1      24.309   3.327  50.461  1.00  0.00     0.050 C 
ENDBRANCH  16  17
BRANCH  16  20
HETATM   20  O2  UNL     1      21.963   2.035  50.014  1.00  0.00    -0.355 OA
HETATM   21  C16 UNL     1      21.538   0.969  49.205  1.00  0.00     0.210 C 
ENDBRANCH  16  20
ENDBRANCH   1  15
TORSDOF 5
ENDMDL
MODEL 5
REMARK VINA RESULT:      -6.9      1.261      2.003
REMARK  5 active torsions:
REMARK  status: ('A' for Active; 'I' for Inactive)
REMARK    1  A    between atoms: C2_2  and  C4_4 
REMARK    2  A    between atoms: C4_4  and  O2_20 
REMARK    3  A    between atoms: C5_5  and  C6_6 
REMARK    4  A    between atoms: C9_11  and  O1_12 
REMARK    5  A    between atoms: O1_12  and  C10_13 
ROOT
HETATM    1  C6  UNL     1      25.960   1.662  53.380  1.00  0.00     0.037 A 
HETATM    2  C7  UNL     1      27.108   2.111  53.995  1.00  0.00     0.134 A 
HETATM    3  N1  UNL     1      28.019   1.257  54.501  1.00  0.00    -0.253 NA
HETATM    4  C8  UNL     1      27.797  -0.065  54.400  1.00  0.00     0.235 A 
HETATM    5  N2  UNL     1      26.695  -0.544  53.811  1.00  0.00    -0.217 NA
HETATM    6  C9  UNL     1      25.765   0.278  53.296  1.00  0.00     0.182 A 
ENDROOT
BRANCH   6   7
HETATM    7  O1  UNL     1      24.611  -0.137  52.676  1.00  0.00    -0.291 OA
BRANCH   7   8
HETATM    8  C10 UNL     1      23.435  -0.423  53.355  1.00  0.00     0.079 A 
HETATM    9  C11 UNL     1      23.169  -0.985  54.580  1.00  0.00     0.037 A 
HETATM   10  C12 UNL     1      21.866  -1.147  54.995  1.00  0.00     0.004 A 
HETATM   11  C13 UNL     1      20.807  -0.755  54.203  1.00  0.00     0.019 A 
HETATM   12  C14 UNL     1      21.047  -0.187  52.966  1.00  0.00     0.013 A 
HETATM   13 BR1  UNL     1      19.520   0.309  51.956  1.00  0.00    -0.051 Br
HETATM   14  C15 UNL     1      22.370  -0.022  52.544  1.00  0.00     0.056 A 
ENDBRANCH   7   8
ENDBRANCH   6   7
BRANCH   1  15
HETATM   15  C5  UNL     1      25.003   2.597  52.810  1.00  0.00     0.054 C 
HETATM   16  C4  UNL     1      24.743   3.182  51.662  1.00  0.00     0.074 C 
BRANCH  16  17
HETATM   17  C2  UNL     1      25.267   3.236  50.275  1.00  0.00    -0.038 C 
HETATM   18  C1  UNL     1      26.508   3.258  49.754  1.00  0.00     0.021 C 
HETATM   19  C3  UNL     1      24.264   3.284  49.210  1.00  0.00     0.050 C 
ENDBRANCH  16  17
BRANCH  16  20
HETATM   20  O2  UNL     1      23.667   4.047  51.571  1.00  0.00    -0.355 OA
HETATM   21  C16 UNL     1      22.466   3.741  52.231  1.00  0.00     0.210 C 
ENDBRANCH  16  20
ENDBRANCH   1  15
TORSDOF 5
ENDMDL
MODEL 6
REMARK VINA RESULT:      -6.8      3.002      5.017
REMARK  5 active torsions:
REMARK  status: ('A' for Active; 'I' for Inactive)
REMARK    1  A    between atoms: C2_2  and  C4_4 
REMARK    2  A    between atoms: C4_4  and  O2_20 
REMARK    3  A    between atoms: C5_5  and  C6_6 
REMARK    4  A    between atoms: C9_11  and  O1_12 
REMARK    5  A    between atoms: O1_12  and  C10_13 
ROOT
HETATM    1  C6  UNL     1      22.392  -0.225  53.145  1.00  0.00     0.037 A 
HETATM    2  C7  UNL     1      21.336  -0.800  53.818  1.00  0.00     0.134 A 
HETATM    3  N1  UNL     1      21.516  -1.476  54.970  1.00  0.00    -0.253 NA
HETATM    4  C8  UNL     1      22.759  -1.589  55.471  1.00  0.00     0.235 A 
HETATM    5  N2  UNL     1      23.813  -1.046  54.849  1.00  0.00    -0.217 NA
HETATM    6  C9  UNL     1      23.671  -0.365  53.699  1.00  0.00     0.182 A 
ENDROOT
BRANCH   6   7
HETATM    7  O1  UNL     1      24.702   0.220  53.005  1.00  0.00    -0.291 OA
BRANCH   7   8
HETATM    8  C10 UNL     1      26.012  -0.236  53.046  1.00  0.00     0.079 A 
HETATM    9  C11 UNL     1      26.602  -1.432  52.720  1.00  0.00     0.037 A 
HETATM   10  C12 UNL     1      27.961  -1.594  52.873  1.00  0.00     0.004 A 
HETATM   11  C13 UNL     1      28.756  -0.573  53.351  1.00  0.00     0.019 A 
HETATM   12  C14 UNL     1      28.187   0.641  53.686  1.00  0.00     0.013 A 
HETATM   13 BR1  UNL     1      29.368   1.974  54.339  1.00  0.00    -0.051 Br
HETATM   14  C15 UNL     1      26.807   0.806  53.531  1.00  0.00     0.056 A 
ENDBRANCH   7   8
ENDBRANCH   6   7
BRANCH   1  15
HETATM   15  C5  UNL     1      22.177   0.528  51.921  1.00  0.00     0.054 C 
HETATM   16  C4  UNL     1      22.259   1.765  51.484  1.00  0.00     0.074 C 
BRANCH  16  17
HETATM   17  C2  UNL     1      22.616   3.118  51.977  1.00  0.00    -0.038 C 
HETATM   18  C1  UNL     1      23.658   3.604  52.678  1.00  0.00     0.021 C 
HETATM   19  C3  UNL     1      21.665   4.188  51.666  1.00  0.00     0.050 C 
ENDBRANCH  16  17
BRANCH  16  20
HETATM   20  O2  UNL     1      21.941   2.041  50.165  1.00  0.00    -0.355 OA
HETATM   21  C16 UNL     1      21.431   1.023  49.343  1.00  0.00     0.210 C 
ENDBRANCH  16  20
ENDBRANCH   1  15
TORSDOF 5
ENDMDL
MODEL 7
REMARK VINA RESULT:      -6.8      3.096      5.463
REMARK  5 active torsions:
REMARK  status: ('A' for Active; 'I' for Inactive)
REMARK    1  A    between atoms: C2_2  and  C4_4 
REMARK    2  A    between atoms: C4_4  and  O2_20 
REMARK    3  A    between atoms: C5_5  and  C6_6 
REMARK    4  A    between atoms: C9_11  and  O1_12 
REMARK    5  A    between atoms: O1_12  and  C10_13 
ROOT
HETATM    1  C6  UNL     1      23.282  -0.447  53.493  1.00  0.00     0.037 A 
HETATM    2  C7  UNL     1      22.809  -1.084  54.619  1.00  0.00     0.134 A 
HETATM    3  N1  UNL     1      21.548  -0.899  55.059  1.00  0.00    -0.253 NA
HETATM    4  C8  UNL     1      20.736  -0.071  54.378  1.00  0.00     0.235 A 
HETATM    5  N2  UNL     1      21.156   0.568  53.279  1.00  0.00    -0.217 NA
HETATM    6  C9  UNL     1      22.406   0.408  52.812  1.00  0.00     0.182 A 
ENDROOT
BRANCH   6   7
HETATM    7  O1  UNL     1      22.909   1.026  51.693  1.00  0.00    -0.291 OA
BRANCH   7   8
HETATM    8  C10 UNL     1      23.187   2.385  51.627  1.00  0.00     0.079 A 
HETATM    9  C11 UNL     1      22.605   3.493  52.191  1.00  0.00     0.037 A 
HETATM   10  C12 UNL     1      23.115   4.746  51.934  1.00  0.00     0.004 A 
HETATM   11  C13 UNL     1      24.210   4.920  51.114  1.00  0.00     0.019 A 
HETATM   12  C14 UNL     1      24.815   3.820  50.533  1.00  0.00     0.013 A 
HETATM   13 BR1  UNL     1      26.309   4.172  49.418  1.00  0.00    -0.051 Br
HETATM   14  C15 UNL     1      24.297   2.548  50.794  1.00  0.00     0.056 A 
ENDBRANCH   7   8
ENDBRANCH   6   7
BRANCH   1  15
HETATM   15  C5  UNL     1      24.634  -0.683  53.015  1.00  0.00     0.054 C 
HETATM   16  C4  UNL     1      25.780  -0.047  52.910  1.00  0.00     0.074 C 
BRANCH  16  17
HETATM   17  C2  UNL     1      26.370   1.280  53.216  1.00  0.00    -0.038 C 
HETATM   18  C1  UNL     1      26.025   2.277  54.052  1.00  0.00     0.021 C 
HETATM   19  C3  UNL     1      27.582   1.631  52.474  1.00  0.00     0.050 C 
ENDBRANCH  16  17
BRANCH  16  20
HETATM   20  O2  UNL     1      26.869  -0.699  52.360  1.00  0.00    -0.355 OA
HETATM   21  C16 UNL     1      27.036  -2.077  52.567  1.00  0.00     0.210 C 
ENDBRANCH  16  20
ENDBRANCH   1  15
TORSDOF 5
ENDMDL
MODEL 8
REMARK VINA RESULT:      -6.7      3.134      5.138
REMARK  5 active torsions:
REMARK  status: ('A' for Active; 'I' for Inactive)
REMARK    1  A    between atoms: C2_2  and  C4_4 
REMARK    2  A    between atoms: C4_4  and  O2_20 
REMARK    3  A    between atoms: C5_5  and  C6_6 
REMARK    4  A    between atoms: C9_11  and  O1_12 
REMARK    5  A    between atoms: O1_12  and  C10_13 
ROOT
HETATM    1  C6  UNL     1      22.798   0.704  52.906  1.00  0.00     0.037 A 
HETATM    2  C7  UNL     1      21.610   0.661  53.603  1.00  0.00     0.134 A 
HETATM    3  N1  UNL     1      21.432  -0.173  54.646  1.00  0.00    -0.253 NA
HETATM    4  C8  UNL     1      22.442  -0.982  55.012  1.00  0.00     0.235 A 
HETATM    5  N2  UNL     1      23.613  -0.973  54.362  1.00  0.00    -0.217 NA
HETATM    6  C9  UNL     1      23.825  -0.155  53.317  1.00  0.00     0.182 A 
ENDROOT
BRANCH   6   7
HETATM    7  O1  UNL     1      24.996  -0.087  52.602  1.00  0.00    -0.291 OA
BRANCH   7   8
HETATM    8  C10 UNL     1      26.126   0.589  53.042  1.00  0.00     0.079 A 
HETATM    9  C11 UNL     1      26.365   1.896  53.391  1.00  0.00     0.037 A 
HETATM   10  C12 UNL     1      27.622   2.282  53.798  1.00  0.00     0.004 A 
HETATM   11  C13 UNL     1      28.663   1.379  53.866  1.00  0.00     0.019 A 
HETATM   12  C14 UNL     1      28.450   0.058  53.520  1.00  0.00     0.013 A 
HETATM   13 BR1  UNL     1      29.949  -1.097  53.644  1.00  0.00    -0.051 Br
HETATM   14  C15 UNL     1      27.173  -0.335  53.107  1.00  0.00     0.056 A 
ENDBRANCH   7   8
ENDBRANCH   6   7
BRANCH   1  15
HETATM   15  C5  UNL     1      22.984   1.633  51.803  1.00  0.00     0.054 C 
HETATM   16  C4  UNL     1      22.451   1.913  50.634  1.00  0.00     0.074 C 
BRANCH  16  17
HETATM   17  C2  UNL     1      21.352   1.450  49.752  1.00  0.00    -0.038 C 
HETATM   18  C1  UNL     1      20.082   1.065  49.978  1.00  0.00     0.021 C 
HETATM   19  C3  UNL     1      21.664   1.372  48.323  1.00  0.00     0.050 C 
ENDBRANCH  16  17
BRANCH  16  20
HETATM   20  O2  UNL     1      22.982   2.942  49.877  1.00  0.00    -0.355 OA
HETATM   21  C16 UNL     1      23.300   4.166  50.486  1.00  0.00     0.210 C 
ENDBRANCH  16  20
ENDBRANCH   1  15
TORSDOF 5
ENDMDL
MODEL 9
REMARK VINA RESULT:      -6.7      3.059      5.356
REMARK  5 active torsions:
REMARK  status: ('A' for Active; 'I' for Inactive)
REMARK    1  A    between atoms: C2_2  and  C4_4 
REMARK    2  A    between atoms: C4_4  and  O2_20 
REMARK    3  A    between atoms: C5_5  and  C6_6 
REMARK    4  A    between atoms: C9_11  and  O1_12 
REMARK    5  A    between atoms: O1_12  and  C10_13 
ROOT
HETATM    1  C6  UNL     1      23.580   0.340  53.305  1.00  0.00     0.037 A 
HETATM    2  C7  UNL     1      23.644  -0.723  54.179  1.00  0.00     0.134 A 
HETATM    3  N1  UNL     1      22.554  -1.160  54.841  1.00  0.00    -0.253 NA
HETATM    4  C8  UNL     1      21.378  -0.541  54.638  1.00  0.00     0.235 A 
HETATM    5  N2  UNL     1      21.272   0.496  53.798  1.00  0.00    -0.217 NA
HETATM    6  C9  UNL     1      22.338   0.960  53.123  1.00  0.00     0.182 A 
ENDROOT
BRANCH   6   7
HETATM    7  O1  UNL     1      22.308   2.016  52.244  1.00  0.00    -0.291 OA
BRANCH   7   8
HETATM    8  C10 UNL     1      22.040   1.879  50.889  1.00  0.00     0.079 A 
HETATM    9  C11 UNL     1      21.524   0.858  50.130  1.00  0.00     0.037 A 
HETATM   10  C12 UNL     1      21.373   1.019  48.771  1.00  0.00     0.004 A 
HETATM   11  C13 UNL     1      21.730   2.193  48.143  1.00  0.00     0.019 A 
HETATM   12  C14 UNL     1      22.253   3.237  48.884  1.00  0.00     0.013 A 
HETATM   13 BR1  UNL     1      22.717   4.804  47.921  1.00  0.00    -0.051 Br
HETATM   14  C15 UNL     1      22.407   3.074  50.264  1.00  0.00     0.056 A 
ENDBRANCH   7   8
ENDBRANCH   6   7
BRANCH   1  15
HETATM   15  C5  UNL     1      24.759   0.779  52.576  1.00  0.00     0.054 C 
HETATM   16  C4  UNL     1      25.985   0.376  52.328  1.00  0.00     0.074 C 
BRANCH  16  17
HETATM   17  C2  UNL     1      26.889  -0.757  52.642  1.00  0.00    -0.038 C 
HETATM   18  C1  UNL     1      26.846  -2.078  52.382  1.00  0.00     0.021 C 
HETATM   19  C3  UNL     1      28.097  -0.425  53.400  1.00  0.00     0.050 C 
ENDBRANCH  16  17
BRANCH  16  20
HETATM   20  O2  UNL     1      26.808   1.157  51.535  1.00  0.00    -0.355 OA
HETATM   21  C16 UNL     1      26.375   2.425  51.116  1.00  0.00     0.210 C 
ENDBRANCH  16  20
ENDBRANCH   1  15
TORSDOF 5
ENDMDL
