MODEL 1
REMARK VINA RESULT:      -8.3      0.000      0.000
REMARK  1 active torsions:
REMARK  status: ('A' for Active; 'I' for Inactive)
REMARK    1  A    between atoms: O1_2  and  C2_3 
ROOT
HETATM    1  C2  UNL     1      21.825  -0.224  53.731  1.00  0.00     0.056 C 
HETATM    2  C3  UNL     1      21.027   0.733  53.282  1.00  0.00     0.033 C 
HETATM    3  C4  UNL     1      20.645   1.990  52.661  1.00  0.00    -0.001 C 
HETATM    4  C5  UNL     1      21.532   2.955  52.315  1.00  0.00    -0.021 C 
HETATM    5  C6  UNL     1      22.906   3.542  52.242  1.00  0.00     0.022 C 
HETATM    6  C7  UNL     1      24.157   3.304  52.689  1.00  0.00     0.015 C 
HETATM    7  C8  UNL     1      25.217   2.585  53.431  1.00  0.00     0.123 C 
HETATM    8  N1  UNL     1      26.195   1.864  52.732  1.00  0.00    -0.184 NA
HETATM    9  C9  UNL     1      27.347   1.585  53.475  1.00  0.00     0.264 C 
HETATM   10  N2  UNL     1      28.206   2.511  54.098  1.00  0.00    -0.284 NA
HETATM   11  C10 UNL     1      29.313   1.883  54.466  1.00  0.00     0.131 C 
HETATM   12  C11 UNL     1      29.195   0.455  54.070  1.00  0.00     0.302 C 
HETATM   13  N3  UNL     1      29.215  -0.787  53.783  1.00  0.00    -0.394 NA
HETATM   14  C12 UNL     1      28.180  -1.551  53.131  1.00  0.00     0.103 C 
HETATM   15  C13 UNL     1      27.079  -1.505  52.385  1.00  0.00     0.185 C 
HETATM   16  O2  UNL     1      26.543  -0.300  51.952  1.00  0.00    -0.231 OA
HETATM   17  N4  UNL     1      25.679   0.444  52.787  1.00  0.00    -0.190 N 
HETATM   18  C14 UNL     1      24.612  -0.314  53.414  1.00  0.00     0.123 C 
HETATM   19  C15 UNL     1      23.280  -0.102  53.462  1.00  0.00     0.100 C 
ENDROOT
BRANCH   1  20
HETATM   20  O1  UNL     1      21.192  -1.325  54.390  1.00  0.00    -0.359 OA
HETATM   21  C1  UNL     1      19.876  -1.653  53.995  1.00  0.00     0.209 C 
ENDBRANCH   1  20
TORSDOF 1
ENDMDL
MODEL 2
REMARK VINA RESULT:      -7.9      2.012      4.002
REMARK  1 active torsions:
REMARK  status: ('A' for Active; 'I' for Inactive)
REMARK    1  A    between atoms: O1_2  and  C2_3 
ROOT
HETATM    1  C2  UNL     1      23.892   3.439  51.560  1.00  0.00     0.056 C 
HETATM    2  C3  UNL     1      22.616   3.187  51.815  1.00  0.00     0.033 C 
HETATM    3  C4  UNL     1      21.460   2.500  52.364  1.00  0.00    -0.001 C 
HETATM    4  C5  UNL     1      21.530   1.296  52.986  1.00  0.00    -0.021 C 
HETATM    5  C6  UNL     1      22.258   0.080  53.463  1.00  0.00     0.022 C 
HETATM    6  C7  UNL     1      23.473  -0.502  53.368  1.00  0.00     0.015 C 
HETATM    7  C8  UNL     1      24.875  -0.646  52.915  1.00  0.00     0.123 C 
HETATM    8  N1  UNL     1      25.927  -0.459  53.824  1.00  0.00    -0.184 NA
HETATM    9  C9  UNL     1      27.145  -1.011  53.415  1.00  0.00     0.264 C 
HETATM   10  N2  UNL     1      27.408  -2.358  53.097  1.00  0.00    -0.284 NA
HETATM   11  C10 UNL     1      28.720  -2.528  53.021  1.00  0.00     0.131 C 
HETATM   12  C11 UNL     1      29.379  -1.225  53.302  1.00  0.00     0.302 C 
HETATM   13  N3  UNL     1      30.059  -0.171  53.525  1.00  0.00    -0.394 NA
HETATM   14  C12 UNL     1      29.557   1.146  53.830  1.00  0.00     0.103 C 
HETATM   15  C13 UNL     1      28.513   1.860  54.244  1.00  0.00     0.185 C 
HETATM   16  O2  UNL     1      27.304   1.261  54.568  1.00  0.00    -0.231 OA
HETATM   17  N4  UNL     1      26.355   0.966  53.562  1.00  0.00    -0.190 N 
HETATM   18  C14 UNL     1      26.080   2.045  52.631  1.00  0.00     0.123 C 
HETATM   19  C15 UNL     1      24.915   2.594  52.227  1.00  0.00     0.100 C 
ENDROOT
BRANCH   1  20
HETATM   20  O1  UNL     1      24.164   4.550  50.701  1.00  0.00    -0.359 OA
HETATM   21  C1  UNL     1      23.749   5.828  51.137  1.00  0.00     0.209 C 
ENDBRANCH   1  20
TORSDOF 1
ENDMDL
MODEL 3
REMARK VINA RESULT:      -7.8      3.261      6.111
REMARK  1 active torsions:
REMARK  status: ('A' for Active; 'I' for Inactive)
REMARK    1  A    between atoms: O1_2  and  C2_3 
ROOT
HETATM    1  C2  UNL     1      27.565   0.606  53.086  1.00  0.00     0.056 C 
HETATM    2  C3  UNL     1      26.732  -0.307  53.564  1.00  0.00     0.033 C 
HETATM    3  C4  UNL     1      25.468  -0.968  53.838  1.00  0.00    -0.001 C 
HETATM    4  C5  UNL     1      24.260  -0.416  53.566  1.00  0.00    -0.021 C 
HETATM    5  C6  UNL     1      23.374   0.693  53.092  1.00  0.00     0.022 C 
HETATM    6  C7  UNL     1      23.451   1.985  52.707  1.00  0.00     0.015 C 
HETATM    7  C8  UNL     1      24.114   3.278  52.427  1.00  0.00     0.123 C 
HETATM    8  N1  UNL     1      24.268   3.712  51.102  1.00  0.00    -0.184 NA
HETATM    9  C9  UNL     1      24.514   5.083  50.971  1.00  0.00     0.264 C 
HETATM   10  N2  UNL     1      23.704   6.143  51.423  1.00  0.00    -0.284 NA
HETATM   11  C10 UNL     1      24.136   7.270  50.877  1.00  0.00     0.131 C 
HETATM   12  C11 UNL     1      25.302   6.955  50.010  1.00  0.00     0.302 C 
HETATM   13  N3  UNL     1      26.307   6.814  49.239  1.00  0.00    -0.394 NA
HETATM   14  C12 UNL     1      27.003   5.591  48.922  1.00  0.00     0.103 C 
HETATM   15  C13 UNL     1      26.952   4.261  48.925  1.00  0.00     0.185 C 
HETATM   16  O2  UNL     1      25.840   3.575  49.394  1.00  0.00    -0.231 OA
HETATM   17  N4  UNL     1      25.688   3.311  50.774  1.00  0.00    -0.190 N 
HETATM   18  C14 UNL     1      26.857   2.762  51.436  1.00  0.00     0.123 C 
HETATM   19  C15 UNL     1      27.005   1.675  52.221  1.00  0.00     0.100 C 
ENDROOT
BRANCH   1  20
HETATM   20  O1  UNL     1      28.949   0.439  53.409  1.00  0.00    -0.359 OA
HETATM   21  C1  UNL     1      29.396  -0.868  53.706  1.00  0.00     0.209 C 
ENDBRANCH   1  20
TORSDOF 1
ENDMDL
MODEL 4
REMARK VINA RESULT:      -7.7      2.970      5.422
REMARK  1 active torsions:
REMARK  status: ('A' for Active; 'I' for Inactive)
REMARK    1  A    between atoms: O1_2  and  C2_3 
ROOT
HETATM    1  C2  UNL     1      23.053   4.830  51.291  1.00  0.00     0.056 C 
HETATM    2  C3  UNL     1      24.026   5.169  50.458  1.00  0.00     0.033 C 
HETATM    3  C4  UNL     1      25.246   5.031  49.682  1.00  0.00    -0.001 C 
HETATM    4  C5  UNL     1      26.103   3.988  49.810  1.00  0.00    -0.021 C 
HETATM    5  C6  UNL     1      26.570   2.713  50.439  1.00  0.00     0.022 C 
HETATM    6  C7  UNL     1      26.275   1.904  51.479  1.00  0.00     0.015 C 
HETATM    7  C8  UNL     1      25.545   1.465  52.690  1.00  0.00     0.123 C 
HETATM    8  N1  UNL     1      24.688   0.357  52.627  1.00  0.00    -0.184 NA
HETATM    9  C9  UNL     1      24.388  -0.210  53.870  1.00  0.00     0.264 C 
HETATM   10  N2  UNL     1      25.297  -0.729  54.813  1.00  0.00    -0.284 NA
HETATM   11  C10 UNL     1      24.619  -1.410  55.724  1.00  0.00     0.131 C 
HETATM   12  C11 UNL     1      23.174  -1.348  55.379  1.00  0.00     0.302 C 
HETATM   13  N3  UNL     1      21.914  -1.369  55.191  1.00  0.00    -0.394 NA
HETATM   14  C12 UNL     1      21.177  -0.733  54.126  1.00  0.00     0.103 C 
HETATM   15  C13 UNL     1      21.243  -0.183  52.916  1.00  0.00     0.185 C 
HETATM   16  O2  UNL     1      22.441  -0.088  52.222  1.00  0.00    -0.231 OA
HETATM   17  N4  UNL     1      23.325   0.989  52.459  1.00  0.00    -0.190 N 
HETATM   18  C14 UNL     1      22.714   2.306  52.470  1.00  0.00     0.123 C 
HETATM   19  C15 UNL     1      23.035   3.439  51.812  1.00  0.00     0.100 C 
ENDROOT
BRANCH   1  20
HETATM   20  O1  UNL     1      22.072   5.833  51.567  1.00  0.00    -0.359 OA
HETATM   21  C1  UNL     1      21.996   6.932  50.683  1.00  0.00     0.209 C 
ENDBRANCH   1  20
TORSDOF 1
ENDMDL
MODEL 5
REMARK VINA RESULT:      -7.7      2.681      4.825
REMARK  1 active torsions:
REMARK  status: ('A' for Active; 'I' for Inactive)
REMARK    1  A    between atoms: O1_2  and  C2_3 
ROOT
HETATM    1  C2  UNL     1      21.190  -0.055  53.568  1.00  0.00     0.056 C 
HETATM    2  C3  UNL     1      21.661  -0.928  54.446  1.00  0.00     0.033 C 
HETATM    3  C4  UNL     1      22.628  -1.590  55.305  1.00  0.00    -0.001 C 
HETATM    4  C5  UNL     1      23.958  -1.327  55.277  1.00  0.00    -0.021 C 
HETATM    5  C6  UNL     1      25.173  -0.641  54.736  1.00  0.00     0.022 C 
HETATM    6  C7  UNL     1      25.538   0.164  53.715  1.00  0.00     0.015 C 
HETATM    7  C8  UNL     1      25.347   0.957  52.480  1.00  0.00     0.123 C 
HETATM    8  N1  UNL     1      25.382   2.358  52.536  1.00  0.00    -0.184 NA
HETATM    9  C9  UNL     1      25.605   2.978  51.302  1.00  0.00     0.264 C 
HETATM   10  N2  UNL     1      26.707   2.797  50.444  1.00  0.00    -0.284 NA
HETATM   11  C10 UNL     1      26.686   3.747  49.521  1.00  0.00     0.131 C 
HETATM   12  C11 UNL     1      25.507   4.617  49.769  1.00  0.00     0.302 C 
HETATM   13  N3  UNL     1      24.534   5.434  49.877  1.00  0.00    -0.394 NA
HETATM   14  C12 UNL     1      23.482   5.417  50.864  1.00  0.00     0.103 C 
HETATM   15  C13 UNL     1      23.091   4.958  52.051  1.00  0.00     0.185 C 
HETATM   16  O2  UNL     1      23.901   4.130  52.815  1.00  0.00    -0.231 OA
HETATM   17  N4  UNL     1      23.919   2.735  52.588  1.00  0.00    -0.190 N 
HETATM   18  C14 UNL     1      22.616   2.104  52.481  1.00  0.00     0.123 C 
HETATM   19  C15 UNL     1      22.095   1.029  53.109  1.00  0.00     0.100 C 
ENDROOT
BRANCH   1  20
HETATM   20  O1  UNL     1      19.820  -0.210  53.186  1.00  0.00    -0.359 OA
HETATM   21  C1  UNL     1      19.458   0.191  51.881  1.00  0.00     0.209 C 
ENDBRANCH   1  20
TORSDOF 1
ENDMDL
MODEL 6
REMARK VINA RESULT:      -7.6      2.389      4.065
REMARK  1 active torsions:
REMARK  status: ('A' for Active; 'I' for Inactive)
REMARK    1  A    between atoms: O1_2  and  C2_3 
ROOT
HETATM    1  C2  UNL     1      20.414   0.848  50.406  1.00  0.00     0.056 C 
HETATM    2  C3  UNL     1      19.401   0.347  51.097  1.00  0.00     0.033 C 
HETATM    3  C4  UNL     1      18.699  -0.252  52.219  1.00  0.00    -0.001 C 
HETATM    4  C5  UNL     1      19.323  -0.733  53.323  1.00  0.00    -0.021 C 
HETATM    5  C6  UNL     1      20.536  -1.066  54.133  1.00  0.00     0.022 C 
HETATM    6  C7  UNL     1      21.880  -1.097  54.017  1.00  0.00     0.015 C 
HETATM    7  C8  UNL     1      23.185  -0.953  53.333  1.00  0.00     0.123 C 
HETATM    8  N1  UNL     1      24.044   0.099  53.680  1.00  0.00    -0.184 NA
HETATM    9  C9  UNL     1      25.375  -0.092  53.293  1.00  0.00     0.264 C 
HETATM   10  N2  UNL     1      26.224  -1.156  53.656  1.00  0.00    -0.284 NA
HETATM   11  C10 UNL     1      27.465  -0.842  53.316  1.00  0.00     0.131 C 
HETATM   12  C11 UNL     1      27.454   0.505  52.689  1.00  0.00     0.302 C 
HETATM   13  N3  UNL     1      27.576   1.648  52.138  1.00  0.00    -0.394 NA
HETATM   14  C12 UNL     1      26.528   2.595  51.846  1.00  0.00     0.103 C 
HETATM   15  C13 UNL     1      25.278   2.971  52.105  1.00  0.00     0.185 C 
HETATM   16  O2  UNL     1      24.484   2.284  53.014  1.00  0.00    -0.231 OA
HETATM   17  N4  UNL     1      23.765   1.134  52.615  1.00  0.00    -0.190 N 
HETATM   18  C14 UNL     1      23.012   1.268  51.381  1.00  0.00     0.123 C 
HETATM   19  C15 UNL     1      21.720   1.001  51.096  1.00  0.00     0.100 C 
ENDROOT
BRANCH   1  20
HETATM   20  O1  UNL     1      20.133   1.248  49.062  1.00  0.00    -0.359 OA
HETATM   21  C1  UNL     1      20.402   2.590  48.711  1.00  0.00     0.209 C 
ENDBRANCH   1  20
TORSDOF 1
ENDMDL
MODEL 7
REMARK VINA RESULT:      -7.4      3.290      5.927
REMARK  1 active torsions:
REMARK  status: ('A' for Active; 'I' for Inactive)
REMARK    1  A    between atoms: O1_2  and  C2_3 
ROOT
HETATM    1  C2  UNL     1      26.702   4.489  49.254  1.00  0.00     0.056 C 
HETATM    2  C3  UNL     1      25.938   5.485  48.831  1.00  0.00     0.033 C 
HETATM    3  C4  UNL     1      24.776   6.354  48.751  1.00  0.00    -0.001 C 
HETATM    4  C5  UNL     1      23.611   6.109  49.399  1.00  0.00    -0.021 C 
HETATM    5  C6  UNL     1      22.712   5.282  50.265  1.00  0.00     0.022 C 
HETATM    6  C7  UNL     1      22.672   4.066  50.849  1.00  0.00     0.015 C 
HETATM    7  C8  UNL     1      23.158   2.712  51.194  1.00  0.00     0.123 C 
HETATM    8  N1  UNL     1      23.588   2.434  52.499  1.00  0.00    -0.184 NA
HETATM    9  C9  UNL     1      23.627   1.072  52.816  1.00  0.00     0.264 C 
HETATM   10  N2  UNL     1      22.558   0.155  52.771  1.00  0.00    -0.284 NA
HETATM   11  C10 UNL     1      22.926  -0.955  53.393  1.00  0.00     0.131 C 
HETATM   12  C11 UNL     1      24.317  -0.779  53.885  1.00  0.00     0.302 C 
HETATM   13  N3  UNL     1      25.502  -0.751  54.355  1.00  0.00    -0.394 NA
HETATM   14  C12 UNL     1      26.453   0.330  54.268  1.00  0.00     0.103 C 
HETATM   15  C13 UNL     1      26.628   1.628  54.035  1.00  0.00     0.185 C 
HETATM   16  O2  UNL     1      25.562   2.464  53.729  1.00  0.00    -0.231 OA
HETATM   17  N4  UNL     1      25.090   2.569  52.401  1.00  0.00    -0.190 N 
HETATM   18  C14 UNL     1      26.113   2.768  51.390  1.00  0.00     0.123 C 
HETATM   19  C15 UNL     1      26.225   3.686  50.407  1.00  0.00     0.100 C 
ENDROOT
BRANCH   1  20
HETATM   20  O1  UNL     1      27.955   4.319  48.585  1.00  0.00    -0.359 OA
HETATM   21  C1  UNL     1      28.696   5.482  48.280  1.00  0.00     0.209 C 
ENDBRANCH   1  20
TORSDOF 1
ENDMDL
MODEL 8
REMARK VINA RESULT:      -7.2      3.313      5.270
REMARK  1 active torsions:
REMARK  status: ('A' for Active; 'I' for Inactive)
REMARK    1  A    between atoms: O1_2  and  C2_3 
ROOT
HETATM    1  C2  UNL     1      19.996   0.149  52.808  1.00  0.00     0.056 C 
HETATM    2  C3  UNL     1      20.400  -0.788  53.652  1.00  0.00     0.033 C 
HETATM    3  C4  UNL     1      21.298  -1.513  54.535  1.00  0.00    -0.001 C 
HETATM    4  C5  UNL     1      22.624  -1.247  54.637  1.00  0.00    -0.021 C 
HETATM    5  C6  UNL     1      23.874  -0.520  54.253  1.00  0.00     0.022 C 
HETATM    6  C7  UNL     1      24.315   0.362  53.330  1.00  0.00     0.015 C 
HETATM    7  C8  UNL     1      24.221   1.248  52.149  1.00  0.00     0.123 C 
HETATM    8  N1  UNL     1      24.240   2.640  52.315  1.00  0.00    -0.184 NA
HETATM    9  C9  UNL     1      24.560   3.354  51.155  1.00  0.00     0.264 C 
HETATM   10  N2  UNL     1      25.730   3.241  50.379  1.00  0.00    -0.284 NA
HETATM   11  C10 UNL     1      25.778   4.260  49.533  1.00  0.00     0.131 C 
HETATM   12  C11 UNL     1      24.575   5.106  49.749  1.00  0.00     0.302 C 
HETATM   13  N3  UNL     1      23.590   5.911  49.838  1.00  0.00    -0.394 NA
HETATM   14  C12 UNL     1      22.461   5.816  50.731  1.00  0.00     0.103 C 
HETATM   15  C13 UNL     1      21.977   5.267  51.842  1.00  0.00     0.185 C 
HETATM   16  O2  UNL     1      22.728   4.383  52.605  1.00  0.00    -0.231 OA
HETATM   17  N4  UNL     1      22.775   3.010  52.274  1.00  0.00    -0.190 N 
HETATM   18  C14 UNL     1      21.491   2.387  52.012  1.00  0.00     0.123 C 
HETATM   19  C15 UNL     1      20.928   1.266  52.509  1.00  0.00     0.100 C 
ENDROOT
BRANCH   1  20
HETATM   20  O1  UNL     1      18.664   0.022  52.303  1.00  0.00    -0.359 OA
HETATM   21  C1  UNL     1      17.775  -0.814  53.013  1.00  0.00     0.209 C 
ENDBRANCH   1  20
TORSDOF 1
ENDMDL
MODEL 9
REMARK VINA RESULT:      -7.1      3.078      6.711
REMARK  1 active torsions:
REMARK  status: ('A' for Active; 'I' for Inactive)
REMARK    1  A    between atoms: O1_2  and  C2_3 
ROOT
HETATM    1  C2  UNL     1      25.875  -0.294  52.878  1.00  0.00     0.056 C 
HETATM    2  C3  UNL     1      26.716   0.645  52.470  1.00  0.00     0.033 C 
HETATM    3  C4  UNL     1      27.157   1.905  51.897  1.00  0.00    -0.001 C 
HETATM    4  C5  UNL     1      26.325   2.774  51.271  1.00  0.00    -0.021 C 
HETATM    5  C6  UNL     1      24.995   3.199  50.734  1.00  0.00     0.022 C 
HETATM    6  C7  UNL     1      23.754   2.704  50.537  1.00  0.00     0.015 C 
HETATM    7  C8  UNL     1      22.684   1.682  50.555  1.00  0.00     0.123 C 
HETATM    8  N1  UNL     1      21.622   1.796  51.464  1.00  0.00    -0.184 NA
HETATM    9  C9  UNL     1      20.492   1.042  51.127  1.00  0.00     0.264 C 
HETATM   10  N2  UNL     1      19.735   1.123  49.942  1.00  0.00    -0.284 NA
HETATM   11  C10 UNL     1      18.606   0.452  50.114  1.00  0.00     0.131 C 
HETATM   12  C11 UNL     1      18.600  -0.113  51.488  1.00  0.00     0.302 C 
HETATM   13  N3  UNL     1      18.476  -0.649  52.639  1.00  0.00    -0.394 NA
HETATM   14  C12 UNL     1      19.419  -0.608  53.729  1.00  0.00     0.103 C 
HETATM   15  C13 UNL     1      20.482   0.005  54.246  1.00  0.00     0.185 C 
HETATM   16  O2  UNL     1      21.080   1.084  53.611  1.00  0.00    -0.231 OA
HETATM   17  N4  UNL     1      22.037   0.878  52.591  1.00  0.00    -0.190 N 
HETATM   18  C14 UNL     1      23.077  -0.087  52.898  1.00  0.00     0.123 C 
HETATM   19  C15 UNL     1      24.421  -0.000  52.819  1.00  0.00     0.100 C 
ENDROOT
BRANCH   1  20
HETATM   20  O1  UNL     1      26.460  -1.493  53.395  1.00  0.00    -0.359 OA
HETATM   21  C1  UNL     1      27.095  -2.358  52.477  1.00  0.00     0.209 C 
ENDBRANCH   1  20
TORSDOF 1
ENDMDL
