MODEL 1
REMARK VINA RESULT:      -9.1      0.000      0.000
REMARK  0 active torsions:
REMARK  status: ('A' for Active; 'I' for Inactive)
ROOT
HETATM    1  C1  UNL     1      29.767  -2.323  53.540  1.00  0.00     0.036 C 
HETATM    2  C2  UNL     1      29.782  -0.858  53.304  1.00  0.00    -0.022 C 
HETATM    3  C3  UNL     1      28.690  -0.120  53.605  1.00  0.00    -0.043 C 
HETATM    4  C4  UNL     1      28.794   1.308  53.341  1.00  0.00     0.027 C 
HETATM    5  C5  UNL     1      27.964   2.312  53.503  1.00  0.00     0.108 C 
HETATM    6  N1  UNL     1      26.676   2.701  53.937  1.00  0.00    -0.310 N 
HETATM    7  N2  UNL     1      25.652   2.399  53.047  1.00  0.00    -0.300 N 
HETATM    8  C6  UNL     1      25.790   1.334  52.062  1.00  0.00     0.137 C 
HETATM    9  C7  UNL     1      25.434   0.190  52.699  1.00  0.00     0.046 C 
HETATM   10  C8  UNL     1      24.024  -0.358  52.915  1.00  0.00     0.226 C 
HETATM   11  O1  UNL     1      23.387   0.703  53.547  1.00  0.00    -0.378 OA
HETATM   12  C9  UNL     1      22.699   1.577  52.769  1.00  0.00     0.146 C 
HETATM   13  C10 UNL     1      22.133   0.933  51.507  1.00  0.00     0.047 C 
HETATM   14  C11 UNL     1      20.926   1.702  51.002  1.00  0.00    -0.028 C 
HETATM   15  C12 UNL     1      19.836   1.693  52.098  1.00  0.00     0.019 C 
HETATM   16  C13 UNL     1      20.316   0.864  49.859  1.00  0.00     0.019 C 
HETATM   17  C14 UNL     1      21.150   3.061  50.591  1.00  0.00    -0.018 C 
HETATM   18  C15 UNL     1      21.782   4.156  50.345  1.00  0.00    -0.005 C 
HETATM   19  C16 UNL     1      22.933   4.974  50.291  1.00  0.00     0.048 C 
HETATM   20  C17 UNL     1      24.094   4.387  50.703  1.00  0.00     0.084 C 
HETATM   21  N3  UNL     1      23.619   3.064  51.053  1.00  0.00    -0.409 N 
HETATM   22  C18 UNL     1      23.313   2.906  52.491  1.00  0.00     0.125 C 
HETATM   23  C19 UNL     1      24.503   3.289  53.300  1.00  0.00     0.175 C 
HETATM   24  N4  UNL     1      26.404  -0.660  53.279  1.00  0.00    -0.386 N 
HETATM   25  C20 UNL     1      27.518  -0.836  54.169  1.00  0.00     0.158 C 
HETATM   26  H7  UNL     1      26.393   3.171  54.821  1.00  0.00     0.186 HD
HETATM   27  H24 UNL     1      23.605   2.507  50.149  1.00  0.00     0.154 HD
HETATM   28  H28 UNL     1      26.026  -1.483  52.717  1.00  0.00     0.159 HD
ENDROOT
TORSDOF 0
ENDMDL
MODEL 2
REMARK VINA RESULT:      -8.7      2.291      6.435
REMARK  0 active torsions:
REMARK  status: ('A' for Active; 'I' for Inactive)
ROOT
HETATM    1  C1  UNL     1      25.092   7.538  46.939  1.00  0.00     0.036 C 
HETATM    2  C2  UNL     1      23.992   7.276  47.899  1.00  0.00    -0.022 C 
HETATM    3  C3  UNL     1      24.265   6.699  49.090  1.00  0.00    -0.043 C 
HETATM    4  C4  UNL     1      23.125   6.479  49.969  1.00  0.00     0.027 C 
HETATM    5  C5  UNL     1      23.005   5.961  51.169  1.00  0.00     0.108 C 
HETATM    6  N1  UNL     1      23.687   5.372  52.257  1.00  0.00    -0.310 N 
HETATM    7  N2  UNL     1      24.055   4.046  52.057  1.00  0.00    -0.300 N 
HETATM    8  C6  UNL     1      24.222   3.497  50.718  1.00  0.00     0.137 C 
HETATM    9  C7  UNL     1      25.493   3.796  50.350  1.00  0.00     0.046 C 
HETATM   10  C8  UNL     1      26.770   3.030  50.692  1.00  0.00     0.226 C 
HETATM   11  O1  UNL     1      26.723   2.981  52.079  1.00  0.00    -0.378 OA
HETATM   12  C9  UNL     1      26.164   1.885  52.653  1.00  0.00     0.146 C 
HETATM   13  C10 UNL     1      26.321   0.625  51.808  1.00  0.00     0.047 C 
HETATM   14  C11 UNL     1      26.259  -0.619  52.674  1.00  0.00    -0.028 C 
HETATM   15  C12 UNL     1      27.408  -0.565  53.706  1.00  0.00     0.019 C 
HETATM   16  C13 UNL     1      26.628  -1.809  51.765  1.00  0.00     0.019 C 
HETATM   17  C14 UNL     1      25.027  -0.859  53.375  1.00  0.00    -0.018 C 
HETATM   18  C15 UNL     1      23.816  -0.682  53.776  1.00  0.00    -0.005 C 
HETATM   19  C16 UNL     1      22.583   0.007  53.831  1.00  0.00     0.048 C 
HETATM   20  C17 UNL     1      22.507   1.140  53.073  1.00  0.00     0.084 C 
HETATM   21  N3  UNL     1      23.830   1.162  52.484  1.00  0.00    -0.409 N 
HETATM   22  C18 UNL     1      24.791   2.010  53.219  1.00  0.00     0.125 C 
HETATM   23  C19 UNL     1      24.237   3.385  53.363  1.00  0.00     0.175 C 
HETATM   24  N4  UNL     1      25.780   4.939  49.567  1.00  0.00    -0.386 N 
HETATM   25  C20 UNL     1      25.682   6.359  49.373  1.00  0.00     0.158 C 
HETATM   26  H7  UNL     1      23.954   5.789  53.173  1.00  0.00     0.186 HD
HETATM   27  H24 UNL     1      23.782   0.533  51.630  1.00  0.00     0.154 HD
HETATM   28  H28 UNL     1      26.281   4.329  48.851  1.00  0.00     0.159 HD
ENDROOT
TORSDOF 0
ENDMDL
MODEL 3
REMARK VINA RESULT:      -8.3      2.406      7.101
REMARK  0 active torsions:
REMARK  status: ('A' for Active; 'I' for Inactive)
ROOT
HETATM    1  C1  UNL     1      22.292   5.856  45.241  1.00  0.00     0.036 C 
HETATM    2  C2  UNL     1      21.246   5.218  46.076  1.00  0.00    -0.022 C 
HETATM    3  C3  UNL     1      21.456   5.051  47.401  1.00  0.00    -0.043 C 
HETATM    4  C4  UNL     1      20.375   4.416  48.142  1.00  0.00     0.027 C 
HETATM    5  C5  UNL     1      20.221   4.099  49.407  1.00  0.00     0.108 C 
HETATM    6  N1  UNL     1      20.809   4.115  50.692  1.00  0.00    -0.310 N 
HETATM    7  N2  UNL     1      21.791   3.152  50.889  1.00  0.00    -0.300 N 
HETATM    8  C6  UNL     1      22.520   2.569  49.770  1.00  0.00     0.137 C 
HETATM    9  C7  UNL     1      23.549   3.416  49.515  1.00  0.00     0.046 C 
HETATM   10  C8  UNL     1      24.907   3.474  50.212  1.00  0.00     0.226 C 
HETATM   11  O1  UNL     1      24.549   3.620  51.546  1.00  0.00    -0.378 OA
HETATM   12  C9  UNL     1      24.448   2.495  52.299  1.00  0.00     0.146 C 
HETATM   13  C10 UNL     1      25.380   1.381  51.832  1.00  0.00     0.047 C 
HETATM   14  C11 UNL     1      25.698   0.429  52.970  1.00  0.00    -0.028 C 
HETATM   15  C12 UNL     1      26.393   1.220  54.102  1.00  0.00     0.019 C 
HETATM   16  C13 UNL     1      26.792  -0.527  52.454  1.00  0.00     0.019 C 
HETATM   17  C14 UNL     1      24.592  -0.298  53.534  1.00  0.00    -0.018 C 
HETATM   18  C15 UNL     1      23.383  -0.707  53.707  1.00  0.00    -0.005 C 
HETATM   19  C16 UNL     1      22.001  -0.746  53.416  1.00  0.00     0.048 C 
HETATM   20  C17 UNL     1      21.591   0.057  52.391  1.00  0.00     0.084 C 
HETATM   21  N3  UNL     1      22.848   0.663  52.002  1.00  0.00    -0.409 N 
HETATM   22  C18 UNL     1      23.085   1.984  52.621  1.00  0.00     0.125 C 
HETATM   23  C19 UNL     1      21.935   2.885  52.332  1.00  0.00     0.175 C 
HETATM   24  N4  UNL     1      23.449   4.411  48.514  1.00  0.00    -0.386 N 
HETATM   25  C20 UNL     1      22.748   5.531  47.952  1.00  0.00     0.158 C 
HETATM   26  H7  UNL     1      20.614   4.744  51.498  1.00  0.00     0.186 HD
HETATM   27  H24 UNL     1      23.313  -0.024  51.338  1.00  0.00     0.154 HD
HETATM   28  H28 UNL     1      24.336   4.042  48.052  1.00  0.00     0.159 HD
ENDROOT
TORSDOF 0
ENDMDL
MODEL 4
REMARK VINA RESULT:      -8.3      2.579      4.975
REMARK  0 active torsions:
REMARK  status: ('A' for Active; 'I' for Inactive)
ROOT
HETATM    1  C1  UNL     1      27.710  -0.845  53.676  1.00  0.00     0.036 C 
HETATM    2  C2  UNL     1      26.263  -0.526  53.749  1.00  0.00    -0.022 C 
HETATM    3  C3  UNL     1      25.670   0.130  52.727  1.00  0.00    -0.043 C 
HETATM    4  C4  UNL     1      24.248   0.401  52.884  1.00  0.00     0.027 C 
HETATM    5  C5  UNL     1      23.359   0.997  52.123  1.00  0.00     0.108 C 
HETATM    6  N1  UNL     1      23.134   1.661  50.896  1.00  0.00    -0.310 N 
HETATM    7  N2  UNL     1      23.593   2.973  50.858  1.00  0.00    -0.300 N 
HETATM    8  C6  UNL     1      24.655   3.433  51.743  1.00  0.00     0.137 C 
HETATM    9  C7  UNL     1      25.820   3.117  51.122  1.00  0.00     0.046 C 
HETATM   10  C8  UNL     1      26.545   3.912  50.038  1.00  0.00     0.226 C 
HETATM   11  O1  UNL     1      25.562   4.052  49.066  1.00  0.00    -0.378 OA
HETATM   12  C9  UNL     1      24.808   5.181  49.091  1.00  0.00     0.146 C 
HETATM   13  C10 UNL     1      25.554   6.382  49.662  1.00  0.00     0.047 C 
HETATM   14  C11 UNL     1      24.966   7.682  49.141  1.00  0.00    -0.028 C 
HETATM   15  C12 UNL     1      25.092   7.703  47.601  1.00  0.00     0.019 C 
HETATM   16  C13 UNL     1      25.907   8.811  49.609  1.00  0.00     0.019 C 
HETATM   17  C14 UNL     1      23.600   7.960  49.491  1.00  0.00    -0.018 C 
HETATM   18  C15 UNL     1      22.437   7.803  50.023  1.00  0.00    -0.005 C 
HETATM   19  C16 UNL     1      21.475   7.112  50.793  1.00  0.00     0.048 C 
HETATM   20  C17 UNL     1      21.892   5.931  51.336  1.00  0.00     0.084 C 
HETATM   21  N3  UNL     1      23.256   5.877  50.853  1.00  0.00    -0.409 N 
HETATM   22  C18 UNL     1      23.416   5.085  49.616  1.00  0.00     0.125 C 
HETATM   23  C19 UNL     1      22.858   3.720  49.820  1.00  0.00     0.175 C 
HETATM   24  N4  UNL     1      26.517   1.927  51.432  1.00  0.00    -0.386 N 
HETATM   25  C20 UNL     1      26.521   0.497  51.567  1.00  0.00     0.158 C 
HETATM   26  H7  UNL     1      22.684   1.307  50.027  1.00  0.00     0.186 HD
HETATM   27  H24 UNL     1      23.833   6.448  51.539  1.00  0.00     0.154 HD
HETATM   28  H28 UNL     1      27.398   2.491  51.640  1.00  0.00     0.159 HD
ENDROOT
TORSDOF 0
ENDMDL
MODEL 5
REMARK VINA RESULT:      -8.2      3.087      5.606
REMARK  0 active torsions:
REMARK  status: ('A' for Active; 'I' for Inactive)
ROOT
HETATM    1  C1  UNL     1      22.682  -1.201  55.316  1.00  0.00     0.036 C 
HETATM    2  C2  UNL     1      21.687  -0.815  54.286  1.00  0.00    -0.022 C 
HETATM    3  C3  UNL     1      22.109  -0.335  53.094  1.00  0.00    -0.043 C 
HETATM    4  C4  UNL     1      21.064   0.019  52.144  1.00  0.00     0.027 C 
HETATM    5  C5  UNL     1      21.088   0.500  50.923  1.00  0.00     0.108 C 
HETATM    6  N1  UNL     1      21.910   0.934  49.858  1.00  0.00    -0.310 N 
HETATM    7  N2  UNL     1      22.466   2.196  50.036  1.00  0.00    -0.300 N 
HETATM    8  C6  UNL     1      22.646   2.767  51.364  1.00  0.00     0.137 C 
HETATM    9  C7  UNL     1      23.834   2.294  51.816  1.00  0.00     0.046 C 
HETATM   10  C8  UNL     1      25.230   2.842  51.524  1.00  0.00     0.226 C 
HETATM   11  O1  UNL     1      25.265   2.840  50.135  1.00  0.00    -0.378 OA
HETATM   12  C9  UNL     1      24.912   3.984  49.495  1.00  0.00     0.146 C 
HETATM   13  C10 UNL     1      25.217   5.239  50.307  1.00  0.00     0.047 C 
HETATM   14  C11 UNL     1      25.393   6.442  49.398  1.00  0.00    -0.028 C 
HETATM   15  C12 UNL     1      26.573   6.172  48.437  1.00  0.00     0.019 C 
HETATM   16  C13 UNL     1      25.893   7.598  50.289  1.00  0.00     0.019 C 
HETATM   17  C14 UNL     1      24.251   6.838  48.620  1.00  0.00    -0.018 C 
HETATM   18  C15 UNL     1      23.050   6.831  48.155  1.00  0.00    -0.005 C 
HETATM   19  C16 UNL     1      21.731   6.336  48.050  1.00  0.00     0.048 C 
HETATM   20  C17 UNL     1      21.441   5.259  48.839  1.00  0.00     0.084 C 
HETATM   21  N3  UNL     1      22.712   5.060  49.504  1.00  0.00    -0.409 N 
HETATM   22  C18 UNL     1      23.568   4.047  48.854  1.00  0.00     0.125 C 
HETATM   23  C19 UNL     1      22.817   2.768  48.722  1.00  0.00     0.175 C 
HETATM   24  N4  UNL     1      23.900   1.153  52.650  1.00  0.00    -0.386 N 
HETATM   25  C20 UNL     1      23.575  -0.226  52.884  1.00  0.00     0.158 C 
HETATM   26  H7  UNL     1      22.157   0.444  48.974  1.00  0.00     0.186 HD
HETATM   27  H24 UNL     1      22.716   5.724  50.333  1.00  0.00     0.154 HD
HETATM   28  H28 UNL     1      24.451   1.709  53.374  1.00  0.00     0.159 HD
ENDROOT
TORSDOF 0
ENDMDL
MODEL 6
REMARK VINA RESULT:      -7.8      3.239      5.284
REMARK  0 active torsions:
REMARK  status: ('A' for Active; 'I' for Inactive)
ROOT
HETATM    1  C1  UNL     1      22.142  -1.353  53.159  1.00  0.00     0.036 C 
HETATM    2  C2  UNL     1      23.324  -0.473  53.328  1.00  0.00    -0.022 C 
HETATM    3  C3  UNL     1      23.211   0.854  53.096  1.00  0.00    -0.043 C 
HETATM    4  C4  UNL     1      24.422   1.639  53.286  1.00  0.00     0.027 C 
HETATM    5  C5  UNL     1      24.689   2.919  53.161  1.00  0.00     0.108 C 
HETATM    6  N1  UNL     1      24.167   4.191  52.836  1.00  0.00    -0.310 N 
HETATM    7  N2  UNL     1      23.988   4.410  51.475  1.00  0.00    -0.300 N 
HETATM    8  C6  UNL     1      23.823   3.304  50.541  1.00  0.00     0.137 C 
HETATM    9  C7  UNL     1      22.502   2.996  50.560  1.00  0.00     0.046 C 
HETATM   10  C8  UNL     1      21.375   3.666  49.776  1.00  0.00     0.226 C 
HETATM   11  O1  UNL     1      21.512   4.999  50.142  1.00  0.00    -0.378 OA
HETATM   12  C9  UNL     1      22.260   5.799  49.339  1.00  0.00     0.146 C 
HETATM   13  C10 UNL     1      22.239   5.363  47.878  1.00  0.00     0.047 C 
HETATM   14  C11 UNL     1      22.536   6.534  46.959  1.00  0.00    -0.028 C 
HETATM   15  C12 UNL     1      21.456   7.619  47.171  1.00  0.00     0.019 C 
HETATM   16  C13 UNL     1      22.292   6.038  45.519  1.00  0.00     0.019 C 
HETATM   17  C14 UNL     1      23.830   7.146  47.089  1.00  0.00    -0.018 C 
HETATM   18  C15 UNL     1      25.024   7.358  47.524  1.00  0.00    -0.005 C 
HETATM   19  C16 UNL     1      26.143   7.093  48.346  1.00  0.00     0.048 C 
HETATM   20  C17 UNL     1      26.005   6.043  49.208  1.00  0.00     0.084 C 
HETATM   21  N3  UNL     1      24.661   5.607  48.893  1.00  0.00    -0.409 N 
HETATM   22  C18 UNL     1      23.631   6.166  49.794  1.00  0.00     0.125 C 
HETATM   23  C19 UNL     1      23.984   5.861  51.208  1.00  0.00     0.175 C 
HETATM   24  N4  UNL     1      22.003   1.956  51.379  1.00  0.00    -0.386 N 
HETATM   25  C20 UNL     1      21.879   1.361  52.681  1.00  0.00     0.158 C 
HETATM   26  H7  UNL     1      23.897   4.974  53.467  1.00  0.00     0.186 HD
HETATM   27  H24 UNL     1      24.749   4.964  48.052  1.00  0.00     0.154 HD
HETATM   28  H28 UNL     1      21.555   1.495  50.529  1.00  0.00     0.159 HD
ENDROOT
TORSDOF 0
ENDMDL
MODEL 7
REMARK VINA RESULT:      -7.8      2.315      3.767
REMARK  0 active torsions:
REMARK  status: ('A' for Active; 'I' for Inactive)
ROOT
HETATM    1  C1  UNL     1      26.887  -1.172  52.991  1.00  0.00     0.036 C 
HETATM    2  C2  UNL     1      26.689   0.073  52.210  1.00  0.00    -0.022 C 
HETATM    3  C3  UNL     1      25.552   0.787  52.363  1.00  0.00    -0.043 C 
HETATM    4  C4  UNL     1      25.443   1.994  51.556  1.00  0.00     0.027 C 
HETATM    5  C5  UNL     1      24.514   2.915  51.441  1.00  0.00     0.108 C 
HETATM    6  N1  UNL     1      23.243   3.348  51.880  1.00  0.00    -0.310 N 
HETATM    7  N2  UNL     1      22.175   2.640  51.341  1.00  0.00    -0.300 N 
HETATM    8  C6  UNL     1      22.338   1.284  50.835  1.00  0.00     0.137 C 
HETATM    9  C7  UNL     1      22.203   0.467  51.910  1.00  0.00     0.046 C 
HETATM   10  C8  UNL     1      20.908  -0.052  52.532  1.00  0.00     0.226 C 
HETATM   11  O1  UNL     1      20.213   1.123  52.793  1.00  0.00    -0.378 OA
HETATM   12  C9  UNL     1      19.338   1.560  51.851  1.00  0.00     0.146 C 
HETATM   13  C10 UNL     1      18.725   0.425  51.037  1.00  0.00     0.047 C 
HETATM   14  C11 UNL     1      17.381   0.836  50.463  1.00  0.00    -0.028 C 
HETATM   15  C12 UNL     1      16.427   1.185  51.628  1.00  0.00     0.019 C 
HETATM   16  C13 UNL     1      16.761  -0.431  49.839  1.00  0.00     0.019 C 
HETATM   17  C14 UNL     1      17.383   1.931  49.531  1.00  0.00    -0.018 C 
HETATM   18  C15 UNL     1      17.839   2.879  48.789  1.00  0.00    -0.005 C 
HETATM   19  C16 UNL     1      18.863   3.690  48.250  1.00  0.00     0.048 C 
HETATM   20  C17 UNL     1      20.128   3.404  48.676  1.00  0.00     0.084 C 
HETATM   21  N3  UNL     1      19.867   2.301  49.577  1.00  0.00    -0.409 N 
HETATM   22  C18 UNL     1      19.743   2.708  50.992  1.00  0.00     0.125 C 
HETATM   23  C19 UNL     1      20.956   3.469  51.402  1.00  0.00     0.175 C 
HETATM   24  N4  UNL     1      23.332  -0.006  52.619  1.00  0.00    -0.386 N 
HETATM   25  C20 UNL     1      24.549   0.272  53.329  1.00  0.00     0.158 C 
HETATM   26  H7  UNL     1      23.000   4.110  52.546  1.00  0.00     0.186 HD
HETATM   27  H24 UNL     1      19.826   1.429  48.971  1.00  0.00     0.154 HD
HETATM   28  H28 UNL     1      23.003  -1.010  52.482  1.00  0.00     0.159 HD
ENDROOT
TORSDOF 0
ENDMDL
MODEL 8
REMARK VINA RESULT:      -7.8      1.991      3.899
REMARK  0 active torsions:
REMARK  status: ('A' for Active; 'I' for Inactive)
ROOT
HETATM    1  C1  UNL     1      29.046   0.514  54.588  1.00  0.00     0.036 C 
HETATM    2  C2  UNL     1      27.601   0.243  54.791  1.00  0.00    -0.022 C 
HETATM    3  C3  UNL     1      26.744   0.368  53.754  1.00  0.00    -0.043 C 
HETATM    4  C4  UNL     1      25.346   0.083  54.045  1.00  0.00     0.027 C 
HETATM    5  C5  UNL     1      24.257   0.095  53.311  1.00  0.00     0.108 C 
HETATM    6  N1  UNL     1      23.722   0.327  52.023  1.00  0.00    -0.310 N 
HETATM    7  N2  UNL     1      23.596   1.670  51.685  1.00  0.00    -0.300 N 
HETATM    8  C6  UNL     1      24.411   2.695  52.322  1.00  0.00     0.137 C 
HETATM    9  C7  UNL     1      25.572   2.736  51.622  1.00  0.00     0.046 C 
HETATM   10  C8  UNL     1      25.854   3.491  50.324  1.00  0.00     0.226 C 
HETATM   11  O1  UNL     1      24.859   3.012  49.481  1.00  0.00    -0.378 OA
HETATM   12  C9  UNL     1      23.707   3.727  49.398  1.00  0.00     0.146 C 
HETATM   13  C10 UNL     1      23.914   5.219  49.635  1.00  0.00     0.047 C 
HETATM   14  C11 UNL     1      22.819   6.030  48.967  1.00  0.00    -0.028 C 
HETATM   15  C12 UNL     1      22.855   5.758  47.446  1.00  0.00     0.019 C 
HETATM   16  C13 UNL     1      23.228   7.512  49.092  1.00  0.00     0.019 C 
HETATM   17  C14 UNL     1      21.477   5.817  49.437  1.00  0.00    -0.018 C 
HETATM   18  C15 UNL     1      20.509   5.336  50.137  1.00  0.00    -0.005 C 
HETATM   19  C16 UNL     1      19.954   4.510  51.141  1.00  0.00     0.048 C 
HETATM   20  C17 UNL     1      20.846   3.741  51.832  1.00  0.00     0.084 C 
HETATM   21  N3  UNL     1      22.087   4.126  51.192  1.00  0.00    -0.409 N 
HETATM   22  C18 UNL     1      22.505   3.209  50.111  1.00  0.00     0.125 C 
HETATM   23  C19 UNL     1      22.571   1.816  50.634  1.00  0.00     0.175 C 
HETATM   24  N4  UNL     1      26.713   2.018  52.051  1.00  0.00    -0.386 N 
HETATM   25  C20 UNL     1      27.314   0.774  52.444  1.00  0.00     0.158 C 
HETATM   26  H7  UNL     1      23.420  -0.359  51.301  1.00  0.00     0.186 HD
HETATM   27  H24 UNL     1      22.407   5.014  51.679  1.00  0.00     0.154 HD
HETATM   28  H28 UNL     1      27.290   2.915  52.034  1.00  0.00     0.159 HD
ENDROOT
TORSDOF 0
ENDMDL
MODEL 9
REMARK VINA RESULT:      -7.1      9.623     11.205
REMARK  0 active torsions:
REMARK  status: ('A' for Active; 'I' for Inactive)
ROOT
HETATM    1  C1  UNL     1      33.147   1.294  48.550  1.00  0.00     0.036 C 
HETATM    2  C2  UNL     1      33.236   1.956  47.225  1.00  0.00    -0.022 C 
HETATM    3  C3  UNL     1      33.477   3.285  47.155  1.00  0.00    -0.043 C 
HETATM    4  C4  UNL     1      33.547   3.849  45.814  1.00  0.00     0.027 C 
HETATM    5  C5  UNL     1      33.760   5.063  45.363  1.00  0.00     0.108 C 
HETATM    6  N1  UNL     1      34.018   6.408  45.714  1.00  0.00    -0.310 N 
HETATM    7  N2  UNL     1      32.908   7.106  46.177  1.00  0.00    -0.300 N 
HETATM    8  C6  UNL     1      31.763   6.417  46.756  1.00  0.00     0.137 C 
HETATM    9  C7  UNL     1      32.064   6.233  48.067  1.00  0.00     0.046 C 
HETATM   10  C8  UNL     1      31.891   7.228  49.213  1.00  0.00     0.226 C 
HETATM   11  O1  UNL     1      32.603   8.331  48.758  1.00  0.00    -0.378 OA
HETATM   12  C9  UNL     1      31.914   9.296  48.098  1.00  0.00     0.146 C 
HETATM   13  C10 UNL     1      30.461   9.405  48.549  1.00  0.00     0.047 C 
HETATM   14  C11 UNL     1      29.913  10.795  48.281  1.00  0.00    -0.028 C 
HETATM   15  C12 UNL     1      30.758  11.823  49.068  1.00  0.00     0.019 C 
HETATM   16  C13 UNL     1      28.525  10.860  48.951  1.00  0.00     0.019 C 
HETATM   17  C14 UNL     1      29.851  11.213  46.907  1.00  0.00    -0.018 C 
HETATM   18  C15 UNL     1      29.966  11.157  45.625  1.00  0.00    -0.005 C 
HETATM   19  C16 UNL     1      30.303  10.527  44.406  1.00  0.00     0.048 C 
HETATM   20  C17 UNL     1      30.791   9.257  44.513  1.00  0.00     0.084 C 
HETATM   21  N3  UNL     1      30.757   9.074  45.949  1.00  0.00    -0.409 N 
HETATM   22  C18 UNL     1      32.045   9.365  46.614  1.00  0.00     0.125 C 
HETATM   23  C19 UNL     1      33.125   8.553  45.988  1.00  0.00     0.175 C 
HETATM   24  N4  UNL     1      32.621   5.017  48.528  1.00  0.00    -0.386 N 
HETATM   25  C20 UNL     1      33.646   4.015  48.436  1.00  0.00     0.158 C 
HETATM   26  H7  UNL     1      34.912   6.939  45.680  1.00  0.00     0.186 HD
HETATM   27  H24 UNL     1      29.769   8.763  46.183  1.00  0.00     0.154 HD
HETATM   28  H28 UNL     1      31.836   4.924  49.243  1.00  0.00     0.159 HD
ENDROOT
TORSDOF 0
ENDMDL
