MODEL 1
REMARK VINA RESULT:      -7.1      0.000      0.000
REMARK  7 active torsions:
REMARK  status: ('A' for Active; 'I' for Inactive)
REMARK    1  A    between atoms: C2_2  and  C3_3 
REMARK    2  A    between atoms: C3_3  and  C4_4 
REMARK       I    between atoms: C4_4  and  N1_6 
REMARK    3  A    between atoms: N1_6  and  C5_7 
REMARK    4  A    between atoms: C7_9  and  C8_10 
REMARK    5  A    between atoms: C11_15  and  C12_16 
REMARK    6  A    between atoms: C12_16  and  C13_17 
REMARK    7  A    between atoms: C14_18  and  C15_20 
ROOT
HETATM    1  C8  UNL     1      22.920   0.690  52.536  1.00  0.00     0.036 C 
HETATM    2  C9  UNL     1      22.508  -0.133  53.487  1.00  0.00     0.083 A 
HETATM    3  N2  UNL     1      23.319  -0.805  54.443  1.00  0.00    -0.240 NA
HETATM    4  C10 UNL     1      22.529  -1.523  55.205  1.00  0.00     0.234 A 
HETATM    5  N3  UNL     1      21.190  -1.336  54.764  1.00  0.00    -0.244 NA
HETATM    6  C11 UNL     1      21.131  -0.525  53.756  1.00  0.00     0.068 A 
ENDROOT
BRANCH   1   7
HETATM    7  C7  UNL     1      24.339   0.991  52.388  1.00  0.00     0.027 C 
HETATM    8  C5  UNL     1      24.891   2.178  52.649  1.00  0.00     0.008 C 
HETATM    9  C6  UNL     1      24.094   3.322  53.125  1.00  0.00     0.068 C 
BRANCH   8  10
HETATM   10  N1  UNL     1      26.288   2.426  52.489  1.00  0.00    -0.328 N 
HETATM   11  C4  UNL     1      27.057   1.978  53.588  1.00  0.00     0.246 C 
HETATM   12  O1  UNL     1      26.804   1.411  54.678  1.00  0.00    -0.268 OA
HETATM   13  H4  UNL     1      26.807   2.874  51.705  1.00  0.00     0.169 HD
BRANCH  11  14
HETATM   14  C3  UNL     1      28.509   2.150  53.596  1.00  0.00     0.085 C 
BRANCH  14  15
HETATM   15  C2  UNL     1      29.394   1.164  53.498  1.00  0.00    -0.031 C 
HETATM   16  C1  UNL     1      29.945  -0.029  53.696  1.00  0.00     0.024 C 
ENDBRANCH  14  15
ENDBRANCH  11  14
ENDBRANCH   8  10
ENDBRANCH   1   7
BRANCH   6  17
HETATM   17  C12 UNL     1      19.928  -0.078  53.014  1.00  0.00     0.090 C 
BRANCH  17  18
HETATM   18  C13 UNL     1      18.765  -0.972  53.266  1.00  0.00    -0.006 C 
HETATM   19  C14 UNL     1      17.736  -1.034  52.430  1.00  0.00    -0.015 C 
HETATM   20 BR1  UNL     1      17.696   0.030  50.848  1.00  0.00    -0.056 Br
BRANCH  19  21
HETATM   21  C15 UNL     1      16.595  -1.944  52.726  1.00  0.00     0.041 C 
HETATM   22  C16 UNL     1      17.200  -3.146  53.443  1.00  0.00     0.010 C 
ENDBRANCH  19  21
ENDBRANCH  17  18
ENDBRANCH   6  17
TORSDOF 7
ENDMDL
MODEL 2
REMARK VINA RESULT:      -6.7      2.332      3.077
REMARK  7 active torsions:
REMARK  status: ('A' for Active; 'I' for Inactive)
REMARK    1  A    between atoms: C2_2  and  C3_3 
REMARK    2  A    between atoms: C3_3  and  C4_4 
REMARK       I    between atoms: C4_4  and  N1_6 
REMARK    3  A    between atoms: N1_6  and  C5_7 
REMARK    4  A    between atoms: C7_9  and  C8_10 
REMARK    5  A    between atoms: C11_15  and  C12_16 
REMARK    6  A    between atoms: C12_16  and  C13_17 
REMARK    7  A    between atoms: C14_18  and  C15_20 
ROOT
HETATM    1  C8  UNL     1      23.242   0.911  52.827  1.00  0.00     0.036 C 
HETATM    2  C9  UNL     1      22.313   0.115  53.331  1.00  0.00     0.083 A 
HETATM    3  N2  UNL     1      22.523  -1.118  54.009  1.00  0.00    -0.240 NA
HETATM    4  C10 UNL     1      21.348  -1.593  54.349  1.00  0.00     0.234 A 
HETATM    5  N3  UNL     1      20.351  -0.684  53.902  1.00  0.00    -0.244 NA
HETATM    6  C11 UNL     1      20.873   0.335  53.298  1.00  0.00     0.068 A 
ENDROOT
BRANCH   1   7
HETATM    7  C7  UNL     1      24.653   0.556  52.938  1.00  0.00     0.027 C 
HETATM    8  C5  UNL     1      25.637   1.152  52.261  1.00  0.00     0.008 C 
HETATM    9  C6  UNL     1      25.379   2.252  51.316  1.00  0.00     0.068 C 
BRANCH   8  10
HETATM   10  N1  UNL     1      27.005   0.770  52.403  1.00  0.00    -0.328 N 
HETATM   11  C4  UNL     1      27.677   1.493  53.416  1.00  0.00     0.246 C 
HETATM   12  O1  UNL     1      27.356   2.395  54.226  1.00  0.00    -0.268 OA
HETATM   13  H4  UNL     1      27.564   0.059  51.885  1.00  0.00     0.169 HD
BRANCH  11  14
HETATM   14  C3  UNL     1      29.088   1.233  53.701  1.00  0.00     0.085 C 
BRANCH  14  15
HETATM   15  C2  UNL     1      29.687   0.055  53.568  1.00  0.00    -0.031 C 
HETATM   16  C1  UNL     1      29.868  -1.259  53.655  1.00  0.00     0.024 C 
ENDBRANCH  14  15
ENDBRANCH  11  14
ENDBRANCH   8  10
ENDBRANCH   1   7
BRANCH   6  17
HETATM   17  C12 UNL     1      20.175   1.494  52.691  1.00  0.00     0.090 C 
BRANCH  17  18
HETATM   18  C13 UNL     1      20.116   1.383  51.208  1.00  0.00    -0.006 C 
HETATM   19  C14 UNL     1      20.595   2.333  50.416  1.00  0.00    -0.015 C 
HETATM   20 BR1  UNL     1      21.390   3.906  51.145  1.00  0.00    -0.056 Br
BRANCH  19  21
HETATM   21  C15 UNL     1      20.513   2.176  48.937  1.00  0.00     0.041 C 
HETATM   22  C16 UNL     1      21.582   1.154  48.570  1.00  0.00     0.010 C 
ENDBRANCH  19  21
ENDBRANCH  17  18
ENDBRANCH   6  17
TORSDOF 7
ENDMDL
MODEL 3
REMARK VINA RESULT:      -6.7      2.370      3.758
REMARK  7 active torsions:
REMARK  status: ('A' for Active; 'I' for Inactive)
REMARK    1  A    between atoms: C2_2  and  C3_3 
REMARK    2  A    between atoms: C3_3  and  C4_4 
REMARK       I    between atoms: C4_4  and  N1_6 
REMARK    3  A    between atoms: N1_6  and  C5_7 
REMARK    4  A    between atoms: C7_9  and  C8_10 
REMARK    5  A    between atoms: C11_15  and  C12_16 
REMARK    6  A    between atoms: C12_16  and  C13_17 
REMARK    7  A    between atoms: C14_18  and  C15_20 
ROOT
HETATM    1  C8  UNL     1      23.383   0.633  52.437  1.00  0.00     0.036 C 
HETATM    2  C9  UNL     1      22.387   0.098  53.126  1.00  0.00     0.083 A 
HETATM    3  N2  UNL     1      22.487  -0.909  54.126  1.00  0.00    -0.240 NA
HETATM    4  C10 UNL     1      21.276  -1.160  54.563  1.00  0.00     0.234 A 
HETATM    5  N3  UNL     1      20.364  -0.326  53.861  1.00  0.00    -0.244 NA
HETATM    6  C11 UNL     1      20.974   0.431  53.006  1.00  0.00     0.068 A 
ENDROOT
BRANCH   1   7
HETATM    7  C7  UNL     1      24.755   0.197  52.669  1.00  0.00     0.027 C 
HETATM    8  C5  UNL     1      25.838   0.852  52.247  1.00  0.00     0.008 C 
HETATM    9  C6  UNL     1      25.742   2.111  51.487  1.00  0.00     0.068 C 
BRANCH   8  10
HETATM   10  N1  UNL     1      27.164   0.386  52.498  1.00  0.00    -0.328 N 
HETATM   11  C4  UNL     1      27.717   0.913  53.688  1.00  0.00     0.246 C 
HETATM   12  O1  UNL     1      27.319   1.698  54.582  1.00  0.00    -0.268 OA
HETATM   13  H4  UNL     1      27.765  -0.266  51.950  1.00  0.00     0.169 HD
BRANCH  11  14
HETATM   14  C3  UNL     1      29.069   0.543  54.104  1.00  0.00     0.085 C 
BRANCH  14  15
HETATM   15  C2  UNL     1      29.667  -0.608  53.817  1.00  0.00    -0.031 C 
HETATM   16  C1  UNL     1      29.793  -1.881  53.458  1.00  0.00     0.024 C 
ENDBRANCH  14  15
ENDBRANCH  11  14
ENDBRANCH   8  10
ENDBRANCH   1   7
BRANCH   6  17
HETATM   17  C12 UNL     1      20.382   1.432  52.086  1.00  0.00     0.090 C 
BRANCH  17  18
HETATM   18  C13 UNL     1      20.847   2.810  52.403  1.00  0.00    -0.006 C 
HETATM   19  C14 UNL     1      21.528   3.538  51.529  1.00  0.00    -0.015 C 
HETATM   20 BR1  UNL     1      21.953   2.846  49.802  1.00  0.00    -0.056 Br
BRANCH  19  21
HETATM   21  C15 UNL     1      21.972   4.912  51.892  1.00  0.00     0.041 C 
HETATM   22  C16 UNL     1      23.247   4.732  52.707  1.00  0.00     0.010 C 
ENDBRANCH  19  21
ENDBRANCH  17  18
ENDBRANCH   6  17
TORSDOF 7
ENDMDL
MODEL 4
REMARK VINA RESULT:      -6.6      3.813      5.418
REMARK  7 active torsions:
REMARK  status: ('A' for Active; 'I' for Inactive)
REMARK    1  A    between atoms: C2_2  and  C3_3 
REMARK    2  A    between atoms: C3_3  and  C4_4 
REMARK       I    between atoms: C4_4  and  N1_6 
REMARK    3  A    between atoms: N1_6  and  C5_7 
REMARK    4  A    between atoms: C7_9  and  C8_10 
REMARK    5  A    between atoms: C11_15  and  C12_16 
REMARK    6  A    between atoms: C12_16  and  C13_17 
REMARK    7  A    between atoms: C14_18  and  C15_20 
ROOT
HETATM    1  C8  UNL     1      26.019   1.397  52.001  1.00  0.00     0.036 C 
HETATM    2  C9  UNL     1      26.674   0.888  53.032  1.00  0.00     0.083 A 
HETATM    3  N2  UNL     1      28.030   1.131  53.384  1.00  0.00    -0.240 NA
HETATM    4  C10 UNL     1      28.293   0.440  54.468  1.00  0.00     0.234 A 
HETATM    5  N3  UNL     1      27.118  -0.267  54.844  1.00  0.00    -0.244 NA
HETATM    6  C11 UNL     1      26.141  -0.032  54.027  1.00  0.00     0.068 A 
ENDROOT
BRANCH   1   7
HETATM    7  C7  UNL     1      26.689   2.311  51.083  1.00  0.00     0.027 C 
HETATM    8  C5  UNL     1      26.073   3.004  50.122  1.00  0.00     0.008 C 
HETATM    9  C6  UNL     1      24.620   2.904  49.898  1.00  0.00     0.068 C 
BRANCH   8  10
HETATM   10  N1  UNL     1      26.772   3.889  49.247  1.00  0.00    -0.328 N 
HETATM   11  C4  UNL     1      26.394   5.242  49.414  1.00  0.00     0.246 C 
HETATM   12  O1  UNL     1      25.586   5.854  50.152  1.00  0.00    -0.268 OA
HETATM   13  H4  UNL     1      27.497   3.690  48.526  1.00  0.00     0.169 HD
BRANCH  11  14
HETATM   14  C3  UNL     1      27.008   6.289  48.599  1.00  0.00     0.085 C 
BRANCH  14  15
HETATM   15  C2  UNL     1      28.236   6.240  48.095  1.00  0.00    -0.031 C 
HETATM   16  C1  UNL     1      29.525   5.926  48.002  1.00  0.00     0.024 C 
ENDBRANCH  14  15
ENDBRANCH  11  14
ENDBRANCH   8  10
ENDBRANCH   1   7
BRANCH   6  17
HETATM   17  C12 UNL     1      24.762  -0.575  54.074  1.00  0.00     0.090 C 
BRANCH  17  18
HETATM   18  C13 UNL     1      23.799   0.312  53.366  1.00  0.00    -0.006 C 
HETATM   19  C14 UNL     1      22.488   0.142  53.463  1.00  0.00    -0.015 C 
HETATM   20 BR1  UNL     1      21.761  -1.266  54.526  1.00  0.00    -0.056 Br
BRANCH  19  21
HETATM   21  C15 UNL     1      21.565   1.056  52.735  1.00  0.00     0.041 C 
HETATM   22  C16 UNL     1      21.643   0.641  51.270  1.00  0.00     0.010 C 
ENDBRANCH  19  21
ENDBRANCH  17  18
ENDBRANCH   6  17
TORSDOF 7
ENDMDL
MODEL 5
REMARK VINA RESULT:      -6.6      2.379      3.591
REMARK  7 active torsions:
REMARK  status: ('A' for Active; 'I' for Inactive)
REMARK    1  A    between atoms: C2_2  and  C3_3 
REMARK    2  A    between atoms: C3_3  and  C4_4 
REMARK       I    between atoms: C4_4  and  N1_6 
REMARK    3  A    between atoms: N1_6  and  C5_7 
REMARK    4  A    between atoms: C7_9  and  C8_10 
REMARK    5  A    between atoms: C11_15  and  C12_16 
REMARK    6  A    between atoms: C12_16  and  C13_17 
REMARK    7  A    between atoms: C14_18  and  C15_20 
ROOT
HETATM    1  C8  UNL     1      23.496   1.702  51.951  1.00  0.00     0.036 C 
HETATM    2  C9  UNL     1      23.149   2.979  51.983  1.00  0.00     0.083 A 
HETATM    3  N2  UNL     1      24.025   4.099  52.017  1.00  0.00    -0.240 NA
HETATM    4  C10 UNL     1      23.288   5.183  52.041  1.00  0.00     0.234 A 
HETATM    5  N3  UNL     1      21.920   4.796  52.023  1.00  0.00    -0.244 NA
HETATM    6  C11 UNL     1      21.792   3.507  51.988  1.00  0.00     0.068 A 
ENDROOT
BRANCH   1   7
HETATM    7  C7  UNL     1      24.904   1.322  51.948  1.00  0.00     0.027 C 
HETATM    8  C5  UNL     1      25.421   0.331  52.679  1.00  0.00     0.008 C 
HETATM    9  C6  UNL     1      24.592  -0.491  53.576  1.00  0.00     0.068 C 
BRANCH   8  10
HETATM   10  N1  UNL     1      26.808  -0.004  52.643  1.00  0.00    -0.328 N 
HETATM   11  C4  UNL     1      27.564   0.670  53.630  1.00  0.00     0.246 C 
HETATM   12  O1  UNL     1      27.306   1.498  54.536  1.00  0.00    -0.268 OA
HETATM   13  H4  UNL     1      27.329  -0.653  52.015  1.00  0.00     0.169 HD
BRANCH  11  14
HETATM   14  C3  UNL     1      29.005   0.447  53.740  1.00  0.00     0.085 C 
BRANCH  14  15
HETATM   15  C2  UNL     1      29.615  -0.715  53.534  1.00  0.00    -0.031 C 
HETATM   16  C1  UNL     1      29.764  -2.030  53.415  1.00  0.00     0.024 C 
ENDBRANCH  14  15
ENDBRANCH  11  14
ENDBRANCH   8  10
ENDBRANCH   1   7
BRANCH   6  17
HETATM   17  C12 UNL     1      20.539   2.715  51.961  1.00  0.00     0.090 C 
BRANCH  17  18
HETATM   18  C13 UNL     1      20.590   1.577  52.920  1.00  0.00    -0.006 C 
HETATM   19  C14 UNL     1      19.891   0.467  52.726  1.00  0.00    -0.015 C 
HETATM   20 BR1  UNL     1      18.773   0.270  51.193  1.00  0.00    -0.056 Br
BRANCH  19  21
HETATM   21  C15 UNL     1      19.974  -0.644  53.715  1.00  0.00     0.041 C 
HETATM   22  C16 UNL     1      21.132  -0.288  54.640  1.00  0.00     0.010 C 
ENDBRANCH  19  21
ENDBRANCH  17  18
ENDBRANCH   6  17
TORSDOF 7
ENDMDL
MODEL 6
REMARK VINA RESULT:      -6.4      3.893      8.338
REMARK  7 active torsions:
REMARK  status: ('A' for Active; 'I' for Inactive)
REMARK    1  A    between atoms: C2_2  and  C3_3 
REMARK    2  A    between atoms: C3_3  and  C4_4 
REMARK       I    between atoms: C4_4  and  N1_6 
REMARK    3  A    between atoms: N1_6  and  C5_7 
REMARK    4  A    between atoms: C7_9  and  C8_10 
REMARK    5  A    between atoms: C11_15  and  C12_16 
REMARK    6  A    between atoms: C12_16  and  C13_17 
REMARK    7  A    between atoms: C14_18  and  C15_20 
ROOT
HETATM    1  C8  UNL     1      22.757   0.188  52.544  1.00  0.00     0.036 C 
HETATM    2  C9  UNL     1      23.314  -0.356  53.614  1.00  0.00     0.083 A 
HETATM    3  N2  UNL     1      22.640  -0.938  54.723  1.00  0.00    -0.240 NA
HETATM    4  C10 UNL     1      23.549  -1.361  55.567  1.00  0.00     0.234 A 
HETATM    5  N3  UNL     1      24.832  -1.065  55.030  1.00  0.00    -0.244 NA
HETATM    6  C11 UNL     1      24.741  -0.474  53.881  1.00  0.00     0.068 A 
ENDROOT
BRANCH   1   7
HETATM    7  C7  UNL     1      21.305   0.234  52.413  1.00  0.00     0.027 C 
HETATM    8  C5  UNL     1      20.657   0.526  51.283  1.00  0.00     0.008 C 
HETATM    9  C6  UNL     1      21.370   0.834  50.032  1.00  0.00     0.068 C 
BRANCH   8  10
HETATM   10  N1  UNL     1      19.232   0.558  51.204  1.00  0.00    -0.328 N 
HETATM   11  C4  UNL     1      18.684   1.789  51.635  1.00  0.00     0.246 C 
HETATM   12  O1  UNL     1      19.154   2.867  52.072  1.00  0.00    -0.268 OA
HETATM   13  H4  UNL     1      18.558  -0.169  50.886  1.00  0.00     0.169 HD
BRANCH  11  14
HETATM   14  C3  UNL     1      17.237   2.001  51.622  1.00  0.00     0.085 C 
BRANCH  14  15
HETATM   15  C2  UNL     1      16.626   3.056  51.094  1.00  0.00    -0.031 C 
HETATM   16  C1  UNL     1      16.328   3.998  50.205  1.00  0.00     0.024 C 
ENDBRANCH  14  15
ENDBRANCH  11  14
ENDBRANCH   8  10
ENDBRANCH   1   7
BRANCH   6  17
HETATM   17  C12 UNL     1      25.842  -0.006  53.006  1.00  0.00     0.090 C 
BRANCH  17  18
HETATM   18  C13 UNL     1      27.149  -0.597  53.405  1.00  0.00    -0.006 C 
HETATM   19  C14 UNL     1      28.230   0.150  53.582  1.00  0.00    -0.015 C 
HETATM   20 BR1  UNL     1      28.165   2.040  53.332  1.00  0.00    -0.056 Br
BRANCH  19  21
HETATM   21  C15 UNL     1      29.515  -0.488  53.982  1.00  0.00     0.041 C 
HETATM   22  C16 UNL     1      29.501  -1.875  53.350  1.00  0.00     0.010 C 
ENDBRANCH  19  21
ENDBRANCH  17  18
ENDBRANCH   6  17
TORSDOF 7
ENDMDL
MODEL 7
REMARK VINA RESULT:      -6.4      2.844      3.492
REMARK  7 active torsions:
REMARK  status: ('A' for Active; 'I' for Inactive)
REMARK    1  A    between atoms: C2_2  and  C3_3 
REMARK    2  A    between atoms: C3_3  and  C4_4 
REMARK       I    between atoms: C4_4  and  N1_6 
REMARK    3  A    between atoms: N1_6  and  C5_7 
REMARK    4  A    between atoms: C7_9  and  C8_10 
REMARK    5  A    between atoms: C11_15  and  C12_16 
REMARK    6  A    between atoms: C12_16  and  C13_17 
REMARK    7  A    between atoms: C14_18  and  C15_20 
ROOT
HETATM    1  C8  UNL     1      22.919   1.195  52.749  1.00  0.00     0.036 C 
HETATM    2  C9  UNL     1      22.864   0.236  53.659  1.00  0.00     0.083 A 
HETATM    3  N2  UNL     1      23.939  -0.588  54.095  1.00  0.00    -0.240 NA
HETATM    4  C10 UNL     1      23.471  -1.409  55.004  1.00  0.00     0.234 A 
HETATM    5  N3  UNL     1      22.086  -1.141  55.180  1.00  0.00    -0.244 NA
HETATM    6  C11 UNL     1      21.687  -0.180  54.409  1.00  0.00     0.068 A 
ENDROOT
BRANCH   1   7
HETATM    7  C7  UNL     1      24.177   1.501  52.078  1.00  0.00     0.027 C 
HETATM    8  C5  UNL     1      24.761   2.702  52.077  1.00  0.00     0.008 C 
HETATM    9  C6  UNL     1      24.170   3.857  52.774  1.00  0.00     0.068 C 
BRANCH   8  10
HETATM   10  N1  UNL     1      25.995   2.954  51.404  1.00  0.00    -0.328 N 
HETATM   11  C4  UNL     1      25.821   3.588  50.152  1.00  0.00     0.246 C 
HETATM   12  O1  UNL     1      24.835   3.986  49.487  1.00  0.00    -0.268 OA
HETATM   13  H4  UNL     1      26.974   2.744  51.692  1.00  0.00     0.169 HD
BRANCH  11  14
HETATM   14  C3  UNL     1      26.979   3.923  49.324  1.00  0.00     0.085 C 
BRANCH  14  15
HETATM   15  C2  UNL     1      27.149   5.072  48.681  1.00  0.00    -0.031 C 
HETATM   16  C1  UNL     1      27.634   6.281  48.412  1.00  0.00     0.024 C 
ENDBRANCH  14  15
ENDBRANCH  11  14
ENDBRANCH   8  10
ENDBRANCH   1   7
BRANCH   6  17
HETATM   17  C12 UNL     1      20.324   0.393  54.295  1.00  0.00     0.090 C 
BRANCH  17  18
HETATM   18  C13 UNL     1      19.558  -0.233  53.182  1.00  0.00    -0.006 C 
HETATM   19  C14 UNL     1      19.127   0.472  52.145  1.00  0.00    -0.015 C 
HETATM   20 BR1  UNL     1      19.469   2.345  52.026  1.00  0.00    -0.056 Br
BRANCH  19  21
HETATM   21  C15 UNL     1      18.364  -0.200  51.057  1.00  0.00     0.041 C 
HETATM   22  C16 UNL     1      18.213   0.842  49.954  1.00  0.00     0.010 C 
ENDBRANCH  19  21
ENDBRANCH  17  18
ENDBRANCH   6  17
TORSDOF 7
ENDMDL
MODEL 8
REMARK VINA RESULT:      -6.3      5.349      7.936
REMARK  7 active torsions:
REMARK  status: ('A' for Active; 'I' for Inactive)
REMARK    1  A    between atoms: C2_2  and  C3_3 
REMARK    2  A    between atoms: C3_3  and  C4_4 
REMARK       I    between atoms: C4_4  and  N1_6 
REMARK    3  A    between atoms: N1_6  and  C5_7 
REMARK    4  A    between atoms: C7_9  and  C8_10 
REMARK    5  A    between atoms: C11_15  and  C12_16 
REMARK    6  A    between atoms: C12_16  and  C13_17 
REMARK    7  A    between atoms: C14_18  and  C15_20 
ROOT
HETATM    1  C8  UNL     1      25.576   3.888  50.410  1.00  0.00     0.036 C 
HETATM    2  C9  UNL     1      24.517   3.859  49.616  1.00  0.00     0.083 A 
HETATM    3  N2  UNL     1      23.673   2.742  49.362  1.00  0.00    -0.240 NA
HETATM    4  C10 UNL     1      22.743   3.127  48.522  1.00  0.00     0.234 A 
HETATM    5  N3  UNL     1      22.958   4.497  48.210  1.00  0.00    -0.244 NA
HETATM    6  C11 UNL     1      23.991   4.968  48.832  1.00  0.00     0.068 A 
ENDROOT
BRANCH   1   7
HETATM    7  C7  UNL     1      25.984   2.691  51.136  1.00  0.00     0.027 C 
HETATM    8  C5  UNL     1      25.520   2.341  52.337  1.00  0.00     0.008 C 
HETATM    9  C6  UNL     1      24.524   3.154  53.057  1.00  0.00     0.068 C 
BRANCH   8  10
HETATM   10  N1  UNL     1      25.950   1.157  53.010  1.00  0.00    -0.328 N 
HETATM   11  C4  UNL     1      27.105   1.361  53.799  1.00  0.00     0.246 C 
HETATM   12  O1  UNL     1      27.848   2.340  54.052  1.00  0.00    -0.268 OA
HETATM   13  H4  UNL     1      25.549   0.195  53.004  1.00  0.00     0.169 HD
BRANCH  11  14
HETATM   14  C3  UNL     1      27.687   0.256  54.560  1.00  0.00     0.085 C 
BRANCH  14  15
HETATM   15  C2  UNL     1      28.867  -0.302  54.312  1.00  0.00    -0.031 C 
HETATM   16  C1  UNL     1      29.864  -0.830  53.609  1.00  0.00     0.024 C 
ENDBRANCH  14  15
ENDBRANCH  11  14
ENDBRANCH   8  10
ENDBRANCH   1   7
BRANCH   6  17
HETATM   17  C12 UNL     1      24.543   6.343  48.774  1.00  0.00     0.090 C 
BRANCH  17  18
HETATM   18  C13 UNL     1      25.954   6.348  48.298  1.00  0.00    -0.006 C 
HETATM   19  C14 UNL     1      26.852   7.198  48.778  1.00  0.00    -0.015 C 
HETATM   20 BR1  UNL     1      26.376   8.471  50.116  1.00  0.00    -0.056 Br
BRANCH  19  21
HETATM   21  C15 UNL     1      28.251   7.163  48.269  1.00  0.00     0.041 C 
HETATM   22  C16 UNL     1      28.652   5.692  48.260  1.00  0.00     0.010 C 
ENDBRANCH  19  21
ENDBRANCH  17  18
ENDBRANCH   6  17
TORSDOF 7
ENDMDL
MODEL 9
REMARK VINA RESULT:      -6.2      4.032      8.428
REMARK  7 active torsions:
REMARK  status: ('A' for Active; 'I' for Inactive)
REMARK    1  A    between atoms: C2_2  and  C3_3 
REMARK    2  A    between atoms: C3_3  and  C4_4 
REMARK       I    between atoms: C4_4  and  N1_6 
REMARK    3  A    between atoms: N1_6  and  C5_7 
REMARK    4  A    between atoms: C7_9  and  C8_10 
REMARK    5  A    between atoms: C11_15  and  C12_16 
REMARK    6  A    between atoms: C12_16  and  C13_17 
REMARK    7  A    between atoms: C14_18  and  C15_20 
ROOT
HETATM    1  C8  UNL     1      21.698   1.015  52.586  1.00  0.00     0.036 C 
HETATM    2  C9  UNL     1      22.227   0.189  53.475  1.00  0.00     0.083 A 
HETATM    3  N2  UNL     1      21.526  -0.592  54.435  1.00  0.00    -0.240 NA
HETATM    4  C10 UNL     1      22.412  -1.273  55.121  1.00  0.00     0.234 A 
HETATM    5  N3  UNL     1      23.706  -0.952  54.626  1.00  0.00    -0.244 NA
HETATM    6  C11 UNL     1      23.644  -0.095  53.656  1.00  0.00     0.068 A 
ENDROOT
BRANCH   1   7
HETATM    7  C7  UNL     1      20.252   1.198  52.521  1.00  0.00     0.027 C 
HETATM    8  C5  UNL     1      19.549   1.265  51.389  1.00  0.00     0.008 C 
HETATM    9  C6  UNL     1      20.188   1.155  50.066  1.00  0.00     0.068 C 
BRANCH   8  10
HETATM   10  N1  UNL     1      18.133   1.445  51.375  1.00  0.00    -0.328 N 
HETATM   11  C4  UNL     1      17.747   2.794  51.556  1.00  0.00     0.246 C 
HETATM   12  O1  UNL     1      18.355   3.877  51.726  1.00  0.00    -0.268 OA
HETATM   13  H4  UNL     1      17.366   0.750  51.256  1.00  0.00     0.169 HD
BRANCH  11  14
HETATM   14  C3  UNL     1      16.332   3.164  51.570  1.00  0.00     0.085 C 
BRANCH  14  15
HETATM   15  C2  UNL     1      15.749   3.914  52.498  1.00  0.00    -0.031 C 
HETATM   16  C1  UNL     1      14.861   4.278  53.418  1.00  0.00     0.024 C 
ENDBRANCH  14  15
ENDBRANCH  11  14
ENDBRANCH   8  10
ENDBRANCH   1   7
BRANCH   6  17
HETATM   17  C12 UNL     1      24.764   0.488  52.881  1.00  0.00     0.090 C 
BRANCH  17  18
HETATM   18  C13 UNL     1      25.971   0.690  53.729  1.00  0.00    -0.006 C 
HETATM   19  C14 UNL     1      26.992  -0.156  53.706  1.00  0.00    -0.015 C 
HETATM   20 BR1  UNL     1      26.965  -1.692  52.574  1.00  0.00    -0.056 Br
BRANCH  19  21
HETATM   21  C15 UNL     1      28.178   0.089  54.573  1.00  0.00     0.041 C 
HETATM   22  C16 UNL     1      29.376  -0.437  53.792  1.00  0.00     0.010 C 
ENDBRANCH  19  21
ENDBRANCH  17  18
ENDBRANCH   6  17
TORSDOF 7
ENDMDL
