MODEL 1
REMARK VINA RESULT:      -6.9      0.000      0.000
REMARK  6 active torsions:
REMARK  status: ('A' for Active; 'I' for Inactive)
REMARK    1  A    between atoms: C2_2  and  C3_4 
REMARK    2  A    between atoms: C4_5  and  C5_6 
REMARK    3  A    between atoms: C6_7  and  N1_8 
REMARK    4  A    between atoms: N1_8  and  C7_9 
REMARK    5  A    between atoms: C10_14  and  O1_15 
REMARK    6  A    between atoms: C12_17  and  O2_18 
ROOT
HETATM    1  C7  UNL     1      24.409   2.034  51.177  1.00  0.00     0.156 A 
HETATM    2  N2  UNL     1      25.292   2.848  50.589  1.00  0.00    -0.224 NA
HETATM    3  C8  UNL     1      26.517   2.666  51.112  1.00  0.00     0.217 A 
HETATM    4  N3  UNL     1      26.467   1.706  52.081  1.00  0.00    -0.310 N 
HETATM    5  C9  UNL     1      27.409   1.195  52.863  1.00  0.00     0.137 A 
HETATM    6  C10 UNL     1      27.098   0.199  53.795  1.00  0.00     0.117 A 
HETATM    7  C12 UNL     1      25.788  -0.222  53.863  1.00  0.00     0.105 A 
HETATM    8  C14 UNL     1      24.846   0.355  53.015  1.00  0.00     0.073 A 
HETATM    9  C15 UNL     1      25.170   1.344  52.093  1.00  0.00     0.088 A 
ENDROOT
BRANCH   1  10
HETATM   10  N1  UNL     1      23.018   1.901  50.929  1.00  0.00    -0.349 N 
HETATM   11  H7  UNL     1      22.378   1.860  51.733  1.00  0.00     0.167 HD
BRANCH  10  12
HETATM   12  C6  UNL     1      22.422   1.819  49.641  1.00  0.00     0.090 C 
HETATM   13  C5  UNL     1      21.380   0.975  49.722  1.00  0.00     0.017 C 
BRANCH  13  14
HETATM   14  C4  UNL     1      21.183   0.420  51.056  1.00  0.00     0.002 C 
HETATM   15  C3  UNL     1      20.004   0.260  51.661  1.00  0.00     0.015 C 
BRANCH  15  16
HETATM   16  C2  UNL     1      19.688  -0.278  52.981  1.00  0.00    -0.011 C 
HETATM   17  C1  UNL     1      18.585  -0.970  53.205  1.00  0.00     0.051 C 
HETATM   18 BR1  UNL     1      20.975   0.098  54.314  1.00  0.00    -0.056 Br
ENDBRANCH  15  16
ENDBRANCH  13  14
ENDBRANCH  10  12
ENDBRANCH   1  10
BRANCH   7  19
HETATM   19  O2  UNL     1      25.516  -1.197  54.786  1.00  0.00    -0.353 OA
HETATM   20  C13 UNL     1      24.382  -1.264  55.615  1.00  0.00     0.210 C 
ENDBRANCH   7  19
BRANCH   6  21
HETATM   21  O1  UNL     1      28.082  -0.344  54.622  1.00  0.00    -0.352 OA
HETATM   22  C11 UNL     1      29.368  -0.556  54.067  1.00  0.00     0.210 C 
ENDBRANCH   6  21
TORSDOF 6
ENDMDL
MODEL 2
REMARK VINA RESULT:      -6.3      2.846      4.425
REMARK  6 active torsions:
REMARK  status: ('A' for Active; 'I' for Inactive)
REMARK    1  A    between atoms: C2_2  and  C3_4 
REMARK    2  A    between atoms: C4_5  and  C5_6 
REMARK    3  A    between atoms: C6_7  and  N1_8 
REMARK    4  A    between atoms: N1_8  and  C7_9 
REMARK    5  A    between atoms: C10_14  and  O1_15 
REMARK    6  A    between atoms: C12_17  and  O2_18 
ROOT
HETATM    1  C7  UNL     1      21.399  -0.486  54.317  1.00  0.00     0.156 A 
HETATM    2  N2  UNL     1      21.809  -1.335  55.265  1.00  0.00    -0.224 NA
HETATM    3  C8  UNL     1      23.148  -1.440  55.254  1.00  0.00     0.217 A 
HETATM    4  N3  UNL     1      23.665  -0.643  54.273  1.00  0.00    -0.310 N 
HETATM    5  C9  UNL     1      24.915  -0.420  53.888  1.00  0.00     0.137 A 
HETATM    6  C10 UNL     1      25.189   0.460  52.835  1.00  0.00     0.117 A 
HETATM    7  C12 UNL     1      24.119   1.076  52.226  1.00  0.00     0.105 A 
HETATM    8  C14 UNL     1      22.831   0.799  52.676  1.00  0.00     0.073 A 
HETATM    9  C15 UNL     1      22.573  -0.078  53.724  1.00  0.00     0.088 A 
ENDROOT
BRANCH   1  10
HETATM   10  N1  UNL     1      20.078  -0.089  53.986  1.00  0.00    -0.349 N 
HETATM   11  H7  UNL     1      19.843   0.912  54.020  1.00  0.00     0.167 HD
BRANCH  10  12
HETATM   12  C6  UNL     1      19.031  -0.972  53.605  1.00  0.00     0.090 C 
HETATM   13  C5  UNL     1      18.548  -0.553  52.424  1.00  0.00     0.017 C 
BRANCH  13  14
HETATM   14  C4  UNL     1      19.217   0.637  51.911  1.00  0.00     0.002 C 
HETATM   15  C3  UNL     1      19.761   0.756  50.697  1.00  0.00     0.015 C 
BRANCH  15  16
HETATM   16  C2  UNL     1      20.450   1.886  50.080  1.00  0.00    -0.011 C 
HETATM   17  C1  UNL     1      20.301   3.120  50.526  1.00  0.00     0.051 C 
HETATM   18 BR1  UNL     1      21.553   1.429  48.615  1.00  0.00    -0.056 Br
ENDBRANCH  15  16
ENDBRANCH  13  14
ENDBRANCH  10  12
ENDBRANCH   1  10
BRANCH   7  19
HETATM   19  O2  UNL     1      24.421   1.931  51.199  1.00  0.00    -0.353 OA
HETATM   20  C13 UNL     1      24.085   3.295  51.127  1.00  0.00     0.210 C 
ENDBRANCH   7  19
BRANCH   6  21
HETATM   21  O1  UNL     1      26.501   0.701  52.424  1.00  0.00    -0.352 OA
HETATM   22  C11 UNL     1      27.549   0.157  53.206  1.00  0.00     0.210 C 
ENDBRANCH   6  21
TORSDOF 6
ENDMDL
MODEL 3
REMARK VINA RESULT:      -6.3      2.150      3.128
REMARK  6 active torsions:
REMARK  status: ('A' for Active; 'I' for Inactive)
REMARK    1  A    between atoms: C2_2  and  C3_4 
REMARK    2  A    between atoms: C4_5  and  C5_6 
REMARK    3  A    between atoms: C6_7  and  N1_8 
REMARK    4  A    between atoms: N1_8  and  C7_9 
REMARK    5  A    between atoms: C10_14  and  O1_15 
REMARK    6  A    between atoms: C12_17  and  O2_18 
ROOT
HETATM    1  C7  UNL     1      23.682   0.392  53.167  1.00  0.00     0.156 A 
HETATM    2  N2  UNL     1      23.361   1.655  52.868  1.00  0.00    -0.224 NA
HETATM    3  C8  UNL     1      24.468   2.414  52.792  1.00  0.00     0.217 A 
HETATM    4  N3  UNL     1      25.570   1.650  53.045  1.00  0.00    -0.310 N 
HETATM    5  C9  UNL     1      26.861   1.952  53.083  1.00  0.00     0.137 A 
HETATM    6  C10 UNL     1      27.814   0.969  53.372  1.00  0.00     0.117 A 
HETATM    7  C12 UNL     1      27.358  -0.308  53.612  1.00  0.00     0.105 A 
HETATM    8  C14 UNL     1      25.990  -0.560  53.559  1.00  0.00     0.073 A 
HETATM    9  C15 UNL     1      25.054   0.426  53.270  1.00  0.00     0.088 A 
ENDROOT
BRANCH   1  10
HETATM   10  N1  UNL     1      22.826  -0.727  53.342  1.00  0.00    -0.349 N 
HETATM   11  H7  UNL     1      22.453  -1.194  52.506  1.00  0.00     0.167 HD
BRANCH  10  12
HETATM   12  C6  UNL     1      22.435  -1.267  54.597  1.00  0.00     0.090 C 
HETATM   13  C5  UNL     1      21.094  -1.223  54.664  1.00  0.00     0.017 C 
BRANCH  13  14
HETATM   14  C4  UNL     1      20.470  -0.656  53.474  1.00  0.00     0.002 C 
HETATM   15  C3  UNL     1      19.181  -0.772  53.146  1.00  0.00     0.015 C 
BRANCH  15  16
HETATM   16  C2  UNL     1      18.452  -0.253  51.993  1.00  0.00    -0.011 C 
HETATM   17  C1  UNL     1      19.041   0.491  51.074  1.00  0.00     0.051 C 
HETATM   18 BR1  UNL     1      16.625  -0.735  51.935  1.00  0.00    -0.056 Br
ENDBRANCH  15  16
ENDBRANCH  13  14
ENDBRANCH  10  12
ENDBRANCH   1  10
BRANCH   7  19
HETATM   19  O2  UNL     1      28.316  -1.246  53.892  1.00  0.00    -0.353 OA
HETATM   20  C13 UNL     1      28.696  -2.320  53.066  1.00  0.00     0.210 C 
ENDBRANCH   7  19
BRANCH   6  21
HETATM   21  O1  UNL     1      29.174   1.278  53.414  1.00  0.00    -0.352 OA
HETATM   22  C11 UNL     1      29.636   2.083  54.485  1.00  0.00     0.210 C 
ENDBRANCH   6  21
TORSDOF 6
ENDMDL
MODEL 4
REMARK VINA RESULT:      -6.3      3.468      6.673
REMARK  6 active torsions:
REMARK  status: ('A' for Active; 'I' for Inactive)
REMARK    1  A    between atoms: C2_2  and  C3_4 
REMARK    2  A    between atoms: C4_5  and  C5_6 
REMARK    3  A    between atoms: C6_7  and  N1_8 
REMARK    4  A    between atoms: N1_8  and  C7_9 
REMARK    5  A    between atoms: C10_14  and  O1_15 
REMARK    6  A    between atoms: C12_17  and  O2_18 
ROOT
HETATM    1  C7  UNL     1      24.323  -0.480  54.284  1.00  0.00     0.156 A 
HETATM    2  N2  UNL     1      23.993  -1.256  55.321  1.00  0.00    -0.224 NA
HETATM    3  C8  UNL     1      22.673  -1.508  55.316  1.00  0.00     0.217 A 
HETATM    4  N3  UNL     1      22.088  -0.889  54.250  1.00  0.00    -0.310 N 
HETATM    5  C9  UNL     1      20.828  -0.849  53.836  1.00  0.00     0.137 A 
HETATM    6  C10 UNL     1      20.477  -0.130  52.689  1.00  0.00     0.117 A 
HETATM    7  C12 UNL     1      21.485   0.526  52.016  1.00  0.00     0.105 A 
HETATM    8  C14 UNL     1      22.788   0.446  52.502  1.00  0.00     0.073 A 
HETATM    9  C15 UNL     1      23.122  -0.273  53.643  1.00  0.00     0.088 A 
ENDROOT
BRANCH   1  10
HETATM   10  N1  UNL     1      25.599   0.019  53.915  1.00  0.00    -0.349 N 
HETATM   11  H7  UNL     1      25.800   1.015  54.072  1.00  0.00     0.167 HD
BRANCH  10  12
HETATM   12  C6  UNL     1      26.643  -0.754  53.337  1.00  0.00     0.090 C 
HETATM   13  C5  UNL     1      27.164  -0.048  52.320  1.00  0.00     0.017 C 
BRANCH  13  14
HETATM   14  C4  UNL     1      26.526   1.249  52.125  1.00  0.00     0.002 C 
HETATM   15  C3  UNL     1      26.441   1.903  50.965  1.00  0.00     0.015 C 
BRANCH  15  16
HETATM   16  C2  UNL     1      25.833   3.194  50.652  1.00  0.00    -0.011 C 
HETATM   17  C1  UNL     1      24.734   3.610  51.256  1.00  0.00     0.051 C 
HETATM   18 BR1  UNL     1      26.744   4.194  49.332  1.00  0.00    -0.056 Br
ENDBRANCH  15  16
ENDBRANCH  13  14
ENDBRANCH  10  12
ENDBRANCH   1  10
BRANCH   7  19
HETATM   19  O2  UNL     1      21.109   1.221  50.898  1.00  0.00    -0.353 OA
HETATM   20  C13 UNL     1      21.468   0.920  49.571  1.00  0.00     0.210 C 
ENDBRANCH   7  19
BRANCH   6  21
HETATM   21  O1  UNL     1      19.155  -0.082  52.247  1.00  0.00    -0.352 OA
HETATM   22  C11 UNL     1      18.203  -0.884  52.924  1.00  0.00     0.210 C 
ENDBRANCH   6  21
TORSDOF 6
ENDMDL
MODEL 5
REMARK VINA RESULT:      -6.1      3.409      5.729
REMARK  6 active torsions:
REMARK  status: ('A' for Active; 'I' for Inactive)
REMARK    1  A    between atoms: C2_2  and  C3_4 
REMARK    2  A    between atoms: C4_5  and  C5_6 
REMARK    3  A    between atoms: C6_7  and  N1_8 
REMARK    4  A    between atoms: N1_8  and  C7_9 
REMARK    5  A    between atoms: C10_14  and  O1_15 
REMARK    6  A    between atoms: C12_17  and  O2_18 
ROOT
HETATM    1  C7  UNL     1      25.054   2.875  51.057  1.00  0.00     0.156 A 
HETATM    2  N2  UNL     1      23.856   2.452  50.641  1.00  0.00    -0.224 NA
HETATM    3  C8  UNL     1      23.440   1.414  51.387  1.00  0.00     0.217 A 
HETATM    4  N3  UNL     1      24.378   1.122  52.335  1.00  0.00    -0.310 N 
HETATM    5  C9  UNL     1      24.413   0.196  53.284  1.00  0.00     0.137 A 
HETATM    6  C10 UNL     1      25.510   0.100  54.147  1.00  0.00     0.117 A 
HETATM    7  C12 UNL     1      26.539   0.999  53.970  1.00  0.00     0.105 A 
HETATM    8  C14 UNL     1      26.443   1.946  52.954  1.00  0.00     0.073 A 
HETATM    9  C15 UNL     1      25.346   2.030  52.104  1.00  0.00     0.088 A 
ENDROOT
BRANCH   1  10
HETATM   10  N1  UNL     1      25.849   3.936  50.552  1.00  0.00    -0.349 N 
HETATM   11  H7  UNL     1      25.698   4.883  50.924  1.00  0.00     0.167 HD
BRANCH  10  12
HETATM   12  C6  UNL     1      26.856   3.801  49.557  1.00  0.00     0.090 C 
HETATM   13  C5  UNL     1      26.922   4.957  48.878  1.00  0.00     0.017 C 
BRANCH  13  14
HETATM   14  C4  UNL     1      25.977   5.963  49.348  1.00  0.00     0.002 C 
HETATM   15  C3  UNL     1      25.603   7.051  48.670  1.00  0.00     0.015 C 
BRANCH  15  16
HETATM   16  C2  UNL     1      24.674   8.117  49.036  1.00  0.00    -0.011 C 
HETATM   17  C1  UNL     1      24.502   9.182  48.275  1.00  0.00     0.051 C 
HETATM   18 BR1  UNL     1      23.758   7.837  50.666  1.00  0.00    -0.056 Br
ENDBRANCH  15  16
ENDBRANCH  13  14
ENDBRANCH  10  12
ENDBRANCH   1  10
BRANCH   7  19
HETATM   19  O2  UNL     1      27.598   0.878  54.830  1.00  0.00    -0.353 OA
HETATM   20  C13 UNL     1      28.911   0.509  54.485  1.00  0.00     0.210 C 
ENDBRANCH   7  19
BRANCH   6  21
HETATM   21  O1  UNL     1      25.554  -0.871  55.148  1.00  0.00    -0.352 OA
HETATM   22  C11 UNL     1      24.325  -1.295  55.712  1.00  0.00     0.210 C 
ENDBRANCH   6  21
TORSDOF 6
ENDMDL
MODEL 6
REMARK VINA RESULT:      -5.9      2.471      4.254
REMARK  6 active torsions:
REMARK  status: ('A' for Active; 'I' for Inactive)
REMARK    1  A    between atoms: C2_2  and  C3_4 
REMARK    2  A    between atoms: C4_5  and  C5_6 
REMARK    3  A    between atoms: C6_7  and  N1_8 
REMARK    4  A    between atoms: N1_8  and  C7_9 
REMARK    5  A    between atoms: C10_14  and  O1_15 
REMARK    6  A    between atoms: C12_17  and  O2_18 
ROOT
HETATM    1  C7  UNL     1      23.183   0.451  52.800  1.00  0.00     0.156 A 
HETATM    2  N2  UNL     1      23.221  -0.477  53.761  1.00  0.00    -0.224 NA
HETATM    3  C8  UNL     1      24.479  -0.643  54.203  1.00  0.00     0.217 A 
HETATM    4  N3  UNL     1      25.320   0.193  53.526  1.00  0.00    -0.310 N 
HETATM    5  C9  UNL     1      26.630   0.383  53.612  1.00  0.00     0.137 A 
HETATM    6  C10 UNL     1      27.270   1.318  52.790  1.00  0.00     0.117 A 
HETATM    7  C12 UNL     1      26.489   2.022  51.900  1.00  0.00     0.105 A 
HETATM    8  C14 UNL     1      25.119   1.774  51.857  1.00  0.00     0.073 A 
HETATM    9  C15 UNL     1      24.497   0.843  52.680  1.00  0.00     0.088 A 
ENDROOT
BRANCH   1  10
HETATM   10  N1  UNL     1      22.065   0.930  52.067  1.00  0.00    -0.349 N 
HETATM   11  H7  UNL     1      21.778   1.909  52.194  1.00  0.00     0.167 HD
BRANCH  10  12
HETATM   12  C6  UNL     1      21.295   0.157  51.156  1.00  0.00     0.090 C 
HETATM   13  C5  UNL     1      21.346   0.762  49.958  1.00  0.00     0.017 C 
BRANCH  13  14
HETATM   14  C4  UNL     1      22.145   1.981  49.955  1.00  0.00     0.002 C 
HETATM   15  C3  UNL     1      21.842   3.105  49.300  1.00  0.00     0.015 C 
BRANCH  15  16
HETATM   16  C2  UNL     1      22.559   4.375  49.224  1.00  0.00    -0.011 C 
HETATM   17  C1  UNL     1      22.961   4.880  48.072  1.00  0.00     0.051 C 
HETATM   18 BR1  UNL     1      22.853   5.213  50.893  1.00  0.00    -0.056 Br
ENDBRANCH  15  16
ENDBRANCH  13  14
ENDBRANCH  10  12
ENDBRANCH   1  10
BRANCH   7  19
HETATM   19  O2  UNL     1      27.145   2.928  51.110  1.00  0.00    -0.353 OA
HETATM   20  C13 UNL     1      26.604   3.617  50.009  1.00  0.00     0.210 C 
ENDBRANCH   7  19
BRANCH   6  21
HETATM   21  O1  UNL     1      28.647   1.525  52.874  1.00  0.00    -0.352 OA
HETATM   22  C11 UNL     1      29.290   1.199  54.093  1.00  0.00     0.210 C 
ENDBRANCH   6  21
TORSDOF 6
ENDMDL
MODEL 7
REMARK VINA RESULT:      -5.9      4.063      7.664
REMARK  6 active torsions:
REMARK  status: ('A' for Active; 'I' for Inactive)
REMARK    1  A    between atoms: C2_2  and  C3_4 
REMARK    2  A    between atoms: C4_5  and  C5_6 
REMARK    3  A    between atoms: C6_7  and  N1_8 
REMARK    4  A    between atoms: N1_8  and  C7_9 
REMARK    5  A    between atoms: C10_14  and  O1_15 
REMARK    6  A    between atoms: C12_17  and  O2_18 
ROOT
HETATM    1  C7  UNL     1      22.111  -0.116  53.015  1.00  0.00     0.156 A 
HETATM    2  N2  UNL     1      21.979  -0.755  54.182  1.00  0.00    -0.224 NA
HETATM    3  C8  UNL     1      20.700  -1.118  54.375  1.00  0.00     0.217 A 
HETATM    4  N3  UNL     1      19.941  -0.717  53.314  1.00  0.00    -0.310 N 
HETATM    5  C9  UNL     1      18.645  -0.847  53.058  1.00  0.00     0.137 A 
HETATM    6  C10 UNL     1      18.098  -0.338  51.876  1.00  0.00     0.117 A 
HETATM    7  C12 UNL     1      18.952   0.295  51.000  1.00  0.00     0.105 A 
HETATM    8  C14 UNL     1      20.301   0.401  51.327  1.00  0.00     0.073 A 
HETATM    9  C15 UNL     1      20.832  -0.110  52.506  1.00  0.00     0.088 A 
ENDROOT
BRANCH   1  10
HETATM   10  N1  UNL     1      23.280   0.432  52.426  1.00  0.00    -0.349 N 
HETATM   11  H7  UNL     1      23.883  -0.184  51.866  1.00  0.00     0.167 HD
BRANCH  10  12
HETATM   12  C6  UNL     1      23.697   1.786  52.547  1.00  0.00     0.090 C 
HETATM   13  C5  UNL     1      25.035   1.795  52.665  1.00  0.00     0.017 C 
BRANCH  13  14
HETATM   14  C4  UNL     1      25.632   0.465  52.635  1.00  0.00     0.002 C 
HETATM   15  C3  UNL     1      26.916   0.187  52.871  1.00  0.00     0.015 C 
BRANCH  15  16
HETATM   16  C2  UNL     1      27.619  -1.093  52.868  1.00  0.00    -0.011 C 
HETATM   17  C1  UNL     1      27.049  -2.200  52.428  1.00  0.00     0.051 C 
HETATM   18 BR1  UNL     1      29.386  -1.021  53.539  1.00  0.00    -0.056 Br
ENDBRANCH  15  16
ENDBRANCH  13  14
ENDBRANCH  10  12
ENDBRANCH   1  10
BRANCH   7  19
HETATM   19  O2  UNL     1      18.385   0.782  49.852  1.00  0.00    -0.353 OA
HETATM   20  C13 UNL     1      18.337   2.131  49.456  1.00  0.00     0.210 C 
ENDBRANCH   7  19
BRANCH   6  21
HETATM   21  O1  UNL     1      16.737  -0.471  51.599  1.00  0.00    -0.352 OA
HETATM   22  C11 UNL     1      15.832   0.339  52.329  1.00  0.00     0.210 C 
ENDBRANCH   6  21
TORSDOF 6
ENDMDL
MODEL 8
REMARK VINA RESULT:      -5.9      3.933      6.354
REMARK  6 active torsions:
REMARK  status: ('A' for Active; 'I' for Inactive)
REMARK    1  A    between atoms: C2_2  and  C3_4 
REMARK    2  A    between atoms: C4_5  and  C5_6 
REMARK    3  A    between atoms: C6_7  and  N1_8 
REMARK    4  A    between atoms: N1_8  and  C7_9 
REMARK    5  A    between atoms: C10_14  and  O1_15 
REMARK    6  A    between atoms: C12_17  and  O2_18 
ROOT
HETATM    1  C7  UNL     1      24.560   3.346  51.105  1.00  0.00     0.156 A 
HETATM    2  N2  UNL     1      23.506   2.741  50.547  1.00  0.00    -0.224 NA
HETATM    3  C8  UNL     1      23.307   1.536  51.107  1.00  0.00     0.217 A 
HETATM    4  N3  UNL     1      24.248   1.313  52.070  1.00  0.00    -0.310 N 
HETATM    5  C9  UNL     1      24.454   0.282  52.879  1.00  0.00     0.137 A 
HETATM    6  C10 UNL     1      25.509   0.297  53.798  1.00  0.00     0.117 A 
HETATM    7  C12 UNL     1      26.314   1.414  53.825  1.00  0.00     0.105 A 
HETATM    8  C14 UNL     1      26.046   2.463  52.949  1.00  0.00     0.073 A 
HETATM    9  C15 UNL     1      24.994   2.435  52.041  1.00  0.00     0.088 A 
ENDROOT
BRANCH   1  10
HETATM   10  N1  UNL     1      25.113   4.620  50.814  1.00  0.00    -0.349 N 
HETATM   11  H7  UNL     1      26.051   4.665  50.395  1.00  0.00     0.167 HD
BRANCH  10  12
HETATM   12  C6  UNL     1      24.468   5.864  51.056  1.00  0.00     0.090 C 
HETATM   13  C5  UNL     1      25.070   6.794  50.296  1.00  0.00     0.017 C 
BRANCH  13  14
HETATM   14  C4  UNL     1      26.160   6.267  49.484  1.00  0.00     0.002 C 
HETATM   15  C3  UNL     1      27.073   7.000  48.844  1.00  0.00     0.015 C 
BRANCH  15  16
HETATM   16  C2  UNL     1      28.198   6.586  48.009  1.00  0.00    -0.011 C 
HETATM   17  C1  UNL     1      28.842   5.452  48.221  1.00  0.00     0.051 C 
HETATM   18 BR1  UNL     1      28.639   7.797  46.626  1.00  0.00    -0.056 Br
ENDBRANCH  15  16
ENDBRANCH  13  14
ENDBRANCH  10  12
ENDBRANCH   1  10
BRANCH   7  19
HETATM   19  O2  UNL     1      27.337   1.397  54.735  1.00  0.00    -0.353 OA
HETATM   20  C13 UNL     1      28.635   0.899  54.517  1.00  0.00     0.210 C 
ENDBRANCH   7  19
BRANCH   6  21
HETATM   21  O1  UNL     1      25.732  -0.783  54.653  1.00  0.00    -0.352 OA
HETATM   22  C11 UNL     1      24.618  -1.319  55.346  1.00  0.00     0.210 C 
ENDBRANCH   6  21
TORSDOF 6
ENDMDL
MODEL 9
REMARK VINA RESULT:      -5.8      3.942      6.478
REMARK  6 active torsions:
REMARK  status: ('A' for Active; 'I' for Inactive)
REMARK    1  A    between atoms: C2_2  and  C3_4 
REMARK    2  A    between atoms: C4_5  and  C5_6 
REMARK    3  A    between atoms: C6_7  and  N1_8 
REMARK    4  A    between atoms: N1_8  and  C7_9 
REMARK    5  A    between atoms: C10_14  and  O1_15 
REMARK    6  A    between atoms: C12_17  and  O2_18 
ROOT
HETATM    1  C7  UNL     1      24.439   3.598  51.216  1.00  0.00     0.156 A 
HETATM    2  N2  UNL     1      23.237   4.168  51.076  1.00  0.00    -0.224 NA
HETATM    3  C8  UNL     1      22.280   3.377  51.589  1.00  0.00     0.217 A 
HETATM    4  N3  UNL     1      22.842   2.240  52.093  1.00  0.00    -0.310 N 
HETATM    5  C9  UNL     1      22.307   1.182  52.690  1.00  0.00     0.137 A 
HETATM    6  C10 UNL     1      23.114   0.125  53.123  1.00  0.00     0.117 A 
HETATM    7  C12 UNL     1      24.470   0.229  52.907  1.00  0.00     0.105 A 
HETATM    8  C14 UNL     1      24.970   1.364  52.274  1.00  0.00     0.073 A 
HETATM    9  C15 UNL     1      24.156   2.408  51.849  1.00  0.00     0.088 A 
ENDROOT
BRANCH   1  10
HETATM   10  N1  UNL     1      25.710   4.087  50.816  1.00  0.00    -0.349 N 
HETATM   11  H7  UNL     1      25.986   5.033  51.109  1.00  0.00     0.167 HD
BRANCH  10  12
HETATM   12  C6  UNL     1      26.651   3.366  50.031  1.00  0.00     0.090 C 
HETATM   13  C5  UNL     1      27.076   4.179  49.050  1.00  0.00     0.017 C 
BRANCH  13  14
HETATM   14  C4  UNL     1      26.467   5.503  49.086  1.00  0.00     0.002 C 
HETATM   15  C3  UNL     1      26.892   6.570  48.404  1.00  0.00     0.015 C 
BRANCH  15  16
HETATM   16  C2  UNL     1      26.368   7.932  48.363  1.00  0.00    -0.011 C 
HETATM   17  C1  UNL     1      25.946   8.550  49.451  1.00  0.00     0.051 C 
HETATM   18 BR1  UNL     1      26.349   8.715  46.642  1.00  0.00    -0.056 Br
ENDBRANCH  15  16
ENDBRANCH  13  14
ENDBRANCH  10  12
ENDBRANCH   1  10
BRANCH   7  19
HETATM   19  O2  UNL     1      25.231  -0.823  53.343  1.00  0.00    -0.353 OA
HETATM   20  C13 UNL     1      26.489  -1.203  52.841  1.00  0.00     0.210 C 
ENDBRANCH   7  19
BRANCH   6  21
HETATM   21  O1  UNL     1      22.559  -0.991  53.752  1.00  0.00    -0.352 OA
HETATM   22  C11 UNL     1      21.671  -0.766  54.833  1.00  0.00     0.210 C 
ENDBRANCH   6  21
TORSDOF 6
ENDMDL
