MODEL 1
REMARK VINA RESULT:      -8.4      0.000      0.000
REMARK  6 active torsions:
REMARK  status: ('A' for Active; 'I' for Inactive)
REMARK    1  A    between atoms: C1_2  and  C2_3 
REMARK    2  A    between atoms: C2_3  and  C3_4 
REMARK    3  A    between atoms: C3_4  and  C4_5 
REMARK    4  A    between atoms: N2_11  and  C9_12 
REMARK    5  A    between atoms: C12_15  and  O2_16 
REMARK    6  A    between atoms: O2_16  and  C13_17 
ROOT
HETATM    1  C9  UNL     1      23.682   2.647  51.554  1.00  0.00     0.039 A 
HETATM    2  C10 UNL     1      23.814   2.425  50.199  1.00  0.00     0.032 A 
HETATM    3  C11 UNL     1      24.067   3.442  49.291  1.00  0.00     0.041 A 
HETATM    4  C12 UNL     1      24.196   4.745  49.733  1.00  0.00     0.098 A 
HETATM    5  C19 UNL     1      24.071   5.016  51.077  1.00  0.00     0.070 A 
HETATM    6 CL1  UNL     1      24.220   6.672  51.687  1.00  0.00    -0.081 Cl
HETATM    7  C20 UNL     1      23.821   3.965  51.933  1.00  0.00     0.056 A 
ENDROOT
BRANCH   1   8
HETATM    8  N2  UNL     1      23.419   1.590  52.462  1.00  0.00    -0.315 N 
HETATM    9  C8  UNL     1      22.112   1.097  52.725  1.00  0.00     0.211 C 
HETATM   10  N1  UNL     1      21.805   0.069  53.439  1.00  0.00    -0.255 NA
HETATM   11  C7  UNL     1      22.866  -0.663  54.040  1.00  0.00     0.129 C 
HETATM   12  C6  UNL     1      24.099  -0.293  53.877  1.00  0.00     0.004 C 
HETATM   13  C5  UNL     1      25.460  -0.722  54.278  1.00  0.00     0.037 C 
HETATM   14  C21 UNL     1      24.488   0.961  53.166  1.00  0.00     0.226 C 
HETATM   15  C4  UNL     1      26.356  -0.268  53.366  1.00  0.00     0.007 C 
HETATM   16  N3  UNL     1      25.587   0.464  52.372  1.00  0.00    -0.368 N 
HETATM   17  H17 UNL     1      25.993   0.449  51.392  1.00  0.00     0.161 HD
BRANCH  15  18
HETATM   18  C3  UNL     1      27.818  -0.547  53.498  1.00  0.00     0.063 C 
BRANCH  18  19
HETATM   19  C2  UNL     1      28.362   0.261  54.647  1.00  0.00     0.075 C 
BRANCH  19  20
HETATM   20  C1  UNL     1      29.005   1.478  54.076  1.00  0.00     0.231 C 
HETATM   21  O1  UNL     1      28.535   2.622  54.163  1.00  0.00    -0.307 OA
ENDBRANCH  19  20
ENDBRANCH  18  19
ENDBRANCH  15  18
ENDBRANCH   1   8
BRANCH   4  22
HETATM   22  O2  UNL     1      24.444   5.719  48.810  1.00  0.00    -0.309 OA
BRANCH  22  23
HETATM   23  C13 UNL     1      25.675   6.215  48.432  1.00  0.00     0.079 A 
HETATM   24  C14 UNL     1      25.493   7.400  47.710  1.00  0.00     0.037 A 
HETATM   25  C15 UNL     1      26.585   8.112  47.206  1.00  0.00     0.006 A 
HETATM   26  C16 UNL     1      27.858   7.634  47.429  1.00  0.00     0.042 A 
HETATM   27  C17 UNL     1      28.030   6.469  48.140  1.00  0.00     0.119 A 
HETATM   28  F1  UNL     1      29.229   5.915  48.414  1.00  0.00    -0.206 F 
HETATM   29  C18 UNL     1      26.965   5.771  48.633  1.00  0.00     0.079 A 
ENDBRANCH  22  23
ENDBRANCH   4  22
TORSDOF 6
ENDMDL
MODEL 2
REMARK VINA RESULT:      -8.4      3.548      7.802
REMARK  6 active torsions:
REMARK  status: ('A' for Active; 'I' for Inactive)
REMARK    1  A    between atoms: C1_2  and  C2_3 
REMARK    2  A    between atoms: C2_3  and  C3_4 
REMARK    3  A    between atoms: C3_4  and  C4_5 
REMARK    4  A    between atoms: N2_11  and  C9_12 
REMARK    5  A    between atoms: C12_15  and  O2_16 
REMARK    6  A    between atoms: O2_16  and  C13_17 
ROOT
HETATM    1  C9  UNL     1      25.641   4.943  49.489  1.00  0.00     0.039 A 
HETATM    2  C10 UNL     1      26.623   3.991  49.307  1.00  0.00     0.032 A 
HETATM    3  C11 UNL     1      26.749   2.876  50.122  1.00  0.00     0.041 A 
HETATM    4  C12 UNL     1      25.868   2.683  51.169  1.00  0.00     0.098 A 
HETATM    5  C19 UNL     1      24.872   3.607  51.390  1.00  0.00     0.070 A 
HETATM    6 CL1  UNL     1      23.728   3.405  52.726  1.00  0.00    -0.081 Cl
HETATM    7  C20 UNL     1      24.794   4.696  50.549  1.00  0.00     0.056 A 
ENDROOT
BRANCH   1   8
HETATM    8  N2  UNL     1      25.535   6.078  48.645  1.00  0.00    -0.315 N 
HETATM    9  C8  UNL     1      24.296   6.564  48.147  1.00  0.00     0.211 C 
HETATM   10  N1  UNL     1      24.105   7.650  47.480  1.00  0.00    -0.255 NA
HETATM   11  C7  UNL     1      25.237   8.461  47.195  1.00  0.00     0.129 C 
HETATM   12  C6  UNL     1      26.421   8.106  47.589  1.00  0.00     0.004 C 
HETATM   13  C5  UNL     1      27.817   8.603  47.538  1.00  0.00     0.037 C 
HETATM   14  C21 UNL     1      26.702   6.797  48.252  1.00  0.00     0.226 C 
HETATM   15  C4  UNL     1      28.513   8.083  48.579  1.00  0.00     0.007 C 
HETATM   16  N3  UNL     1      27.581   7.240  49.309  1.00  0.00    -0.368 N 
HETATM   17  H17 UNL     1      27.764   7.168  50.352  1.00  0.00     0.161 HD
BRANCH  15  18
HETATM   18  C3  UNL     1      29.955   8.407  48.796  1.00  0.00     0.063 C 
BRANCH  18  19
HETATM   19  C2  UNL     1      30.794   7.442  48.000  1.00  0.00     0.075 C 
BRANCH  19  20
HETATM   20  C1  UNL     1      30.846   6.161  48.758  1.00  0.00     0.231 C 
HETATM   21  O1  UNL     1      30.115   5.185  48.533  1.00  0.00    -0.307 OA
ENDBRANCH  19  20
ENDBRANCH  18  19
ENDBRANCH  15  18
ENDBRANCH   1   8
BRANCH   4  22
HETATM   22  O2  UNL     1      26.025   1.574  51.948  1.00  0.00    -0.309 OA
BRANCH  22  23
HETATM   23  C13 UNL     1      27.122   1.244  52.717  1.00  0.00     0.079 A 
HETATM   24  C14 UNL     1      27.310  -0.143  52.681  1.00  0.00     0.037 A 
HETATM   25  C15 UNL     1      28.360  -0.746  53.380  1.00  0.00     0.006 A 
HETATM   26  C16 UNL     1      29.218   0.043  54.114  1.00  0.00     0.042 A 
HETATM   27  C17 UNL     1      29.027   1.405  54.145  1.00  0.00     0.119 A 
HETATM   28  F1  UNL     1      29.807   2.267  54.829  1.00  0.00    -0.206 F 
HETATM   29  C18 UNL     1      28.003   1.997  53.463  1.00  0.00     0.079 A 
ENDBRANCH  22  23
ENDBRANCH   4  22
TORSDOF 6
ENDMDL
MODEL 3
REMARK VINA RESULT:      -8.2      1.885      2.180
REMARK  6 active torsions:
REMARK  status: ('A' for Active; 'I' for Inactive)
REMARK    1  A    between atoms: C1_2  and  C2_3 
REMARK    2  A    between atoms: C2_3  and  C3_4 
REMARK    3  A    between atoms: C3_4  and  C4_5 
REMARK    4  A    between atoms: N2_11  and  C9_12 
REMARK    5  A    between atoms: C12_15  and  O2_16 
REMARK    6  A    between atoms: O2_16  and  C13_17 
ROOT
HETATM    1  C9  UNL     1      25.229   3.040  51.070  1.00  0.00     0.039 A 
HETATM    2  C10 UNL     1      26.293   2.863  50.210  1.00  0.00     0.032 A 
HETATM    3  C11 UNL     1      26.722   3.848  49.332  1.00  0.00     0.041 A 
HETATM    4  C12 UNL     1      26.074   5.068  49.295  1.00  0.00     0.098 A 
HETATM    5  C19 UNL     1      25.006   5.290  50.135  1.00  0.00     0.070 A 
HETATM    6 CL1  UNL     1      24.141   6.835  50.114  1.00  0.00    -0.081 Cl
HETATM    7  C20 UNL     1      24.624   4.276  50.986  1.00  0.00     0.056 A 
ENDROOT
BRANCH   1   8
HETATM    8  N2  UNL     1      24.807   2.015  51.955  1.00  0.00    -0.315 N 
HETATM    9  C8  UNL     1      23.547   1.367  51.850  1.00  0.00     0.211 C 
HETATM   10  N1  UNL     1      23.142   0.353  52.536  1.00  0.00    -0.255 NA
HETATM   11  C7  UNL     1      24.028  -0.189  53.506  1.00  0.00     0.129 C 
HETATM   12  C6  UNL     1      25.200   0.334  53.696  1.00  0.00     0.004 C 
HETATM   13  C5  UNL     1      26.400   0.120  54.539  1.00  0.00     0.037 C 
HETATM   14  C21 UNL     1      25.657   1.583  53.016  1.00  0.00     0.226 C 
HETATM   15  C4  UNL     1      27.486   0.633  53.908  1.00  0.00     0.007 C 
HETATM   16  N3  UNL     1      26.999   1.191  52.656  1.00  0.00    -0.368 N 
HETATM   17  H17 UNL     1      27.696   1.170  51.856  1.00  0.00     0.161 HD
BRANCH  15  18
HETATM   18  C3  UNL     1      28.849   0.564  54.514  1.00  0.00     0.063 C 
BRANCH  18  19
HETATM   19  C2  UNL     1      29.786  -0.080  53.525  1.00  0.00     0.075 C 
BRANCH  19  20
HETATM   20  C1  UNL     1      29.828  -1.537  53.829  1.00  0.00     0.231 C 
HETATM   21  O1  UNL     1      29.066  -2.378  53.329  1.00  0.00    -0.307 OA
ENDBRANCH  19  20
ENDBRANCH  18  19
ENDBRANCH  15  18
ENDBRANCH   1   8
BRANCH   4  22
HETATM   22  O2  UNL     1      26.525   6.012  48.419  1.00  0.00    -0.309 OA
BRANCH  22  23
HETATM   23  C13 UNL     1      27.689   6.748  48.511  1.00  0.00     0.079 A 
HETATM   24  C14 UNL     1      27.401   7.998  49.070  1.00  0.00     0.037 A 
HETATM   25  C15 UNL     1      28.409   8.944  49.276  1.00  0.00     0.006 A 
HETATM   26  C16 UNL     1      29.704   8.634  48.919  1.00  0.00     0.042 A 
HETATM   27  C17 UNL     1      29.978   7.404  48.369  1.00  0.00     0.119 A 
HETATM   28  F1  UNL     1      31.207   6.999  47.987  1.00  0.00    -0.206 F 
HETATM   29  C18 UNL     1      28.996   6.477  48.168  1.00  0.00     0.079 A 
ENDBRANCH  22  23
ENDBRANCH   4  22
TORSDOF 6
ENDMDL
MODEL 4
REMARK VINA RESULT:      -8.0      2.333      3.283
REMARK  6 active torsions:
REMARK  status: ('A' for Active; 'I' for Inactive)
REMARK    1  A    between atoms: C1_2  and  C2_3 
REMARK    2  A    between atoms: C2_3  and  C3_4 
REMARK    3  A    between atoms: C3_4  and  C4_5 
REMARK    4  A    between atoms: N2_11  and  C9_12 
REMARK    5  A    between atoms: C12_15  and  O2_16 
REMARK    6  A    between atoms: O2_16  and  C13_17 
ROOT
HETATM    1  C9  UNL     1      25.608   4.398  50.104  1.00  0.00     0.039 A 
HETATM    2  C10 UNL     1      26.699   3.888  49.432  1.00  0.00     0.032 A 
HETATM    3  C11 UNL     1      27.558   4.679  48.683  1.00  0.00     0.041 A 
HETATM    4  C12 UNL     1      27.335   6.040  48.588  1.00  0.00     0.098 A 
HETATM    5  C19 UNL     1      26.257   6.594  49.241  1.00  0.00     0.070 A 
HETATM    6 CL1  UNL     1      25.929   8.331  49.137  1.00  0.00    -0.081 Cl
HETATM    7  C20 UNL     1      25.438   5.760  49.970  1.00  0.00     0.056 A 
ENDROOT
BRANCH   1   8
HETATM    8  N2  UNL     1      24.742   3.568  50.860  1.00  0.00    -0.315 N 
HETATM    9  C8  UNL     1      23.325   3.622  50.756  1.00  0.00     0.211 C 
HETATM   10  N1  UNL     1      22.480   2.825  51.315  1.00  0.00    -0.255 NA
HETATM   11  C7  UNL     1      22.992   1.778  52.127  1.00  0.00     0.129 C 
HETATM   12  C6  UNL     1      24.270   1.642  52.303  1.00  0.00     0.004 C 
HETATM   13  C5  UNL     1      25.217   0.749  53.014  1.00  0.00     0.037 C 
HETATM   14  C21 UNL     1      25.274   2.616  51.779  1.00  0.00     0.226 C 
HETATM   15  C4  UNL     1      26.418   0.782  52.384  1.00  0.00     0.007 C 
HETATM   16  N3  UNL     1      26.265   1.699  51.267  1.00  0.00    -0.368 N 
HETATM   17  H17 UNL     1      26.870   1.481  50.423  1.00  0.00     0.161 HD
BRANCH  15  18
HETATM   18  C3  UNL     1      27.578  -0.024  52.870  1.00  0.00     0.063 C 
BRANCH  18  19
HETATM   19  C2  UNL     1      27.878   0.368  54.293  1.00  0.00     0.075 C 
BRANCH  19  20
HETATM   20  C1  UNL     1      29.092   1.231  54.275  1.00  0.00     0.231 C 
HETATM   21  O1  UNL     1      29.084   2.454  54.480  1.00  0.00    -0.307 OA
ENDBRANCH  19  20
ENDBRANCH  18  19
ENDBRANCH  15  18
ENDBRANCH   1   8
BRANCH   4  22
HETATM   22  O2  UNL     1      28.201   6.785  47.842  1.00  0.00    -0.309 OA
BRANCH  22  23
HETATM   23  C13 UNL     1      29.340   7.429  48.282  1.00  0.00     0.079 A 
HETATM   24  C14 UNL     1      30.464   6.679  47.919  1.00  0.00     0.037 A 
HETATM   25  C15 UNL     1      31.753   7.109  48.245  1.00  0.00     0.006 A 
HETATM   26  C16 UNL     1      31.912   8.292  48.935  1.00  0.00     0.042 A 
HETATM   27  C17 UNL     1      30.802   9.023  49.289  1.00  0.00     0.119 A 
HETATM   28  F1  UNL     1      30.844  10.191  49.963  1.00  0.00    -0.206 F 
HETATM   29  C18 UNL     1      29.541   8.606  48.971  1.00  0.00     0.079 A 
ENDBRANCH  22  23
ENDBRANCH   4  22
TORSDOF 6
ENDMDL
MODEL 5
REMARK VINA RESULT:      -7.8      4.698      7.703
REMARK  6 active torsions:
REMARK  status: ('A' for Active; 'I' for Inactive)
REMARK    1  A    between atoms: C1_2  and  C2_3 
REMARK    2  A    between atoms: C2_3  and  C3_4 
REMARK    3  A    between atoms: C3_4  and  C4_5 
REMARK    4  A    between atoms: N2_11  and  C9_12 
REMARK    5  A    between atoms: C12_15  and  O2_16 
REMARK    6  A    between atoms: O2_16  and  C13_17 
ROOT
HETATM    1  C9  UNL     1      22.022  -0.063  52.900  1.00  0.00     0.039 A 
HETATM    2  C10 UNL     1      22.953  -0.515  53.813  1.00  0.00     0.032 A 
HETATM    3  C11 UNL     1      24.274  -0.092  53.813  1.00  0.00     0.041 A 
HETATM    4  C12 UNL     1      24.704   0.822  52.869  1.00  0.00     0.098 A 
HETATM    5  C19 UNL     1      23.811   1.301  51.938  1.00  0.00     0.070 A 
HETATM    6 CL1  UNL     1      24.323   2.465  50.706  1.00  0.00    -0.081 Cl
HETATM    7  C20 UNL     1      22.512   0.845  51.986  1.00  0.00     0.056 A 
ENDROOT
BRANCH   1   8
HETATM    8  N2  UNL     1      20.678  -0.514  52.919  1.00  0.00    -0.315 N 
HETATM    9  C8  UNL     1      20.212  -1.536  53.790  1.00  0.00     0.211 C 
HETATM   10  N1  UNL     1      18.991  -1.916  53.950  1.00  0.00    -0.255 NA
HETATM   11  C7  UNL     1      17.987  -1.262  53.186  1.00  0.00     0.129 C 
HETATM   12  C6  UNL     1      18.301  -0.322  52.348  1.00  0.00     0.004 C 
HETATM   13  C5  UNL     1      17.637   0.599  51.395  1.00  0.00     0.037 C 
HETATM   14  C21 UNL     1      19.712   0.059  52.039  1.00  0.00     0.226 C 
HETATM   15  C4  UNL     1      18.414   1.698  51.223  1.00  0.00     0.007 C 
HETATM   16  N3  UNL     1      19.589   1.497  52.055  1.00  0.00    -0.368 N 
HETATM   17  H17 UNL     1      20.026   2.386  52.435  1.00  0.00     0.161 HD
BRANCH  15  18
HETATM   18  C3  UNL     1      18.003   2.812  50.317  1.00  0.00     0.063 C 
BRANCH  18  19
HETATM   19  C2  UNL     1      17.980   4.095  51.107  1.00  0.00     0.075 C 
BRANCH  19  20
HETATM   20  C1  UNL     1      16.580   4.316  51.565  1.00  0.00     0.231 C 
HETATM   21  O1  UNL     1      16.193   4.154  52.732  1.00  0.00    -0.307 OA
ENDBRANCH  19  20
ENDBRANCH  18  19
ENDBRANCH  15  18
ENDBRANCH   1   8
BRANCH   4  22
HETATM   22  O2  UNL     1      26.011   1.214  52.901  1.00  0.00    -0.309 OA
BRANCH  22  23
HETATM   23  C13 UNL     1      27.119   0.410  53.074  1.00  0.00     0.079 A 
HETATM   24  C14 UNL     1      28.194   1.192  53.508  1.00  0.00     0.037 A 
HETATM   25  C15 UNL     1      29.445   0.622  53.762  1.00  0.00     0.006 A 
HETATM   26  C16 UNL     1      29.614  -0.733  53.578  1.00  0.00     0.042 A 
HETATM   27  C17 UNL     1      28.553  -1.496  53.150  1.00  0.00     0.119 A 
HETATM   28  F1  UNL     1      28.609  -2.827  52.940  1.00  0.00    -0.206 F 
HETATM   29  C18 UNL     1      27.330  -0.942  52.903  1.00  0.00     0.079 A 
ENDBRANCH  22  23
ENDBRANCH   4  22
TORSDOF 6
ENDMDL
MODEL 6
REMARK VINA RESULT:      -7.8      4.142      7.994
REMARK  6 active torsions:
REMARK  status: ('A' for Active; 'I' for Inactive)
REMARK    1  A    between atoms: C1_2  and  C2_3 
REMARK    2  A    between atoms: C2_3  and  C3_4 
REMARK    3  A    between atoms: C3_4  and  C4_5 
REMARK    4  A    between atoms: N2_11  and  C9_12 
REMARK    5  A    between atoms: C12_15  and  O2_16 
REMARK    6  A    between atoms: O2_16  and  C13_17 
ROOT
HETATM    1  C9  UNL     1      26.465   5.271  49.188  1.00  0.00     0.039 A 
HETATM    2  C10 UNL     1      26.936   3.975  49.149  1.00  0.00     0.032 A 
HETATM    3  C11 UNL     1      26.393   2.954  49.916  1.00  0.00     0.041 A 
HETATM    4  C12 UNL     1      25.335   3.217  50.765  1.00  0.00     0.098 A 
HETATM    5  C19 UNL     1      24.832   4.497  50.839  1.00  0.00     0.070 A 
HETATM    6 CL1  UNL     1      23.485   4.880  51.921  1.00  0.00    -0.081 Cl
HETATM    7  C20 UNL     1      25.411   5.470  50.053  1.00  0.00     0.056 A 
ENDROOT
BRANCH   1   8
HETATM    8  N2  UNL     1      27.039   6.298  48.397  1.00  0.00    -0.315 N 
HETATM    9  C8  UNL     1      26.339   7.478  48.027  1.00  0.00     0.211 C 
HETATM   10  N1  UNL     1      26.825   8.505  47.417  1.00  0.00    -0.255 NA
HETATM   11  C7  UNL     1      28.201   8.476  47.063  1.00  0.00     0.129 C 
HETATM   12  C6  UNL     1      28.934   7.441  47.340  1.00  0.00     0.004 C 
HETATM   13  C5  UNL     1      30.336   6.985  47.184  1.00  0.00     0.037 C 
HETATM   14  C21 UNL     1      28.382   6.184  47.929  1.00  0.00     0.226 C 
HETATM   15  C4  UNL     1      30.614   6.065  48.142  1.00  0.00     0.007 C 
HETATM   16  N3  UNL     1      29.396   5.910  48.920  1.00  0.00    -0.368 N 
HETATM   17  H17 UNL     1      29.545   5.657  49.940  1.00  0.00     0.161 HD
BRANCH  15  18
HETATM   18  C3  UNL     1      31.958   5.422  48.243  1.00  0.00     0.063 C 
BRANCH  18  19
HETATM   19  C2  UNL     1      32.102   4.422  47.126  1.00  0.00     0.075 C 
BRANCH  19  20
HETATM   20  C1  UNL     1      33.329   3.621  47.394  1.00  0.00     0.231 C 
HETATM   21  O1  UNL     1      33.336   2.528  47.980  1.00  0.00    -0.307 OA
ENDBRANCH  19  20
ENDBRANCH  18  19
ENDBRANCH  15  18
ENDBRANCH   1   8
BRANCH   4  22
HETATM   22  O2  UNL     1      24.829   2.188  51.503  1.00  0.00    -0.309 OA
BRANCH  22  23
HETATM   23  C13 UNL     1      25.535   1.299  52.289  1.00  0.00     0.079 A 
HETATM   24  C14 UNL     1      25.751   1.867  53.549  1.00  0.00     0.037 A 
HETATM   25  C15 UNL     1      26.447   1.172  54.543  1.00  0.00     0.006 A 
HETATM   26  C16 UNL     1      26.924  -0.091  54.270  1.00  0.00     0.042 A 
HETATM   27  C17 UNL     1      26.709  -0.643  53.028  1.00  0.00     0.119 A 
HETATM   28  F1  UNL     1      27.131  -1.869  52.657  1.00  0.00    -0.206 F 
HETATM   29  C18 UNL     1      26.029   0.033  52.056  1.00  0.00     0.079 A 
ENDBRANCH  22  23
ENDBRANCH   4  22
TORSDOF 6
ENDMDL
MODEL 7
REMARK VINA RESULT:      -7.6      3.310      7.295
REMARK  6 active torsions:
REMARK  status: ('A' for Active; 'I' for Inactive)
REMARK    1  A    between atoms: C1_2  and  C2_3 
REMARK    2  A    between atoms: C2_3  and  C3_4 
REMARK    3  A    between atoms: C3_4  and  C4_5 
REMARK    4  A    between atoms: N2_11  and  C9_12 
REMARK    5  A    between atoms: C12_15  and  O2_16 
REMARK    6  A    between atoms: O2_16  and  C13_17 
ROOT
HETATM    1  C9  UNL     1      22.550   2.259  51.667  1.00  0.00     0.039 A 
HETATM    2  C10 UNL     1      23.858   2.017  51.301  1.00  0.00     0.032 A 
HETATM    3  C11 UNL     1      24.644   1.050  51.911  1.00  0.00     0.041 A 
HETATM    4  C12 UNL     1      24.121   0.282  52.933  1.00  0.00     0.098 A 
HETATM    5  C19 UNL     1      22.820   0.487  53.334  1.00  0.00     0.070 A 
HETATM    6 CL1  UNL     1      22.114  -0.468  54.647  1.00  0.00    -0.081 Cl
HETATM    7  C20 UNL     1      22.087   1.461  52.692  1.00  0.00     0.056 A 
ENDROOT
BRANCH   1   8
HETATM    8  N2  UNL     1      21.768   3.255  51.031  1.00  0.00    -0.315 N 
HETATM    9  C8  UNL     1      20.388   3.090  50.735  1.00  0.00     0.211 C 
HETATM   10  N1  UNL     1      19.585   3.986  50.271  1.00  0.00    -0.255 NA
HETATM   11  C7  UNL     1      20.113   5.281  50.017  1.00  0.00     0.129 C 
HETATM   12  C6  UNL     1      21.365   5.540  50.238  1.00  0.00     0.004 C 
HETATM   13  C5  UNL     1      22.310   6.679  50.138  1.00  0.00     0.037 C 
HETATM   14  C21 UNL     1      22.353   4.500  50.652  1.00  0.00     0.226 C 
HETATM   15  C4  UNL     1      23.329   6.490  51.013  1.00  0.00     0.007 C 
HETATM   16  N3  UNL     1      23.060   5.227  51.681  1.00  0.00    -0.368 N 
HETATM   17  H17 UNL     1      23.421   5.161  52.677  1.00  0.00     0.161 HD
BRANCH  15  18
HETATM   18  C3  UNL     1      24.441   7.478  51.144  1.00  0.00     0.063 C 
BRANCH  18  19
HETATM   19  C2  UNL     1      25.570   7.061  50.238  1.00  0.00     0.075 C 
BRANCH  19  20
HETATM   20  C1  UNL     1      26.422   8.258  49.999  1.00  0.00     0.231 C 
HETATM   21  O1  UNL     1      26.118   9.411  50.340  1.00  0.00    -0.307 OA
ENDBRANCH  19  20
ENDBRANCH  18  19
ENDBRANCH  15  18
ENDBRANCH   1   8
BRANCH   4  22
HETATM   22  O2  UNL     1      24.925  -0.658  53.509  1.00  0.00    -0.309 OA
BRANCH  22  23
HETATM   23  C13 UNL     1      26.298  -0.613  53.642  1.00  0.00     0.079 A 
HETATM   24  C14 UNL     1      26.634   0.291  54.655  1.00  0.00     0.037 A 
HETATM   25  C15 UNL     1      27.969   0.528  54.997  1.00  0.00     0.006 A 
HETATM   26  C16 UNL     1      28.964  -0.143  54.319  1.00  0.00     0.042 A 
HETATM   27  C17 UNL     1      28.626  -1.030  53.324  1.00  0.00     0.119 A 
HETATM   28  F1  UNL     1      29.518  -1.738  52.601  1.00  0.00    -0.206 F 
HETATM   29  C18 UNL     1      27.323  -1.264  52.989  1.00  0.00     0.079 A 
ENDBRANCH  22  23
ENDBRANCH   4  22
TORSDOF 6
ENDMDL
MODEL 8
REMARK VINA RESULT:      -7.6      2.015      3.937
REMARK  6 active torsions:
REMARK  status: ('A' for Active; 'I' for Inactive)
REMARK    1  A    between atoms: C1_2  and  C2_3 
REMARK    2  A    between atoms: C2_3  and  C3_4 
REMARK    3  A    between atoms: C3_4  and  C4_5 
REMARK    4  A    between atoms: N2_11  and  C9_12 
REMARK    5  A    between atoms: C12_15  and  O2_16 
REMARK    6  A    between atoms: O2_16  and  C13_17 
ROOT
HETATM    1  C9  UNL     1      25.506   2.451  51.524  1.00  0.00     0.039 A 
HETATM    2  C10 UNL     1      26.513   2.639  50.601  1.00  0.00     0.032 A 
HETATM    3  C11 UNL     1      26.561   3.737  49.754  1.00  0.00     0.041 A 
HETATM    4  C12 UNL     1      25.571   4.699  49.816  1.00  0.00     0.098 A 
HETATM    5  C19 UNL     1      24.545   4.554  50.722  1.00  0.00     0.070 A 
HETATM    6 CL1  UNL     1      23.251   5.757  50.828  1.00  0.00    -0.081 Cl
HETATM    7  C20 UNL     1      24.548   3.443  51.538  1.00  0.00     0.056 A 
ENDROOT
BRANCH   1   8
HETATM    8  N2  UNL     1      25.476   1.317  52.376  1.00  0.00    -0.315 N 
HETATM    9  C8  UNL     1      26.637   0.780  52.996  1.00  0.00     0.211 C 
HETATM   10  N1  UNL     1      26.676  -0.166  53.871  1.00  0.00    -0.255 NA
HETATM   11  C7  UNL     1      25.445  -0.750  54.272  1.00  0.00     0.129 C 
HETATM   12  C6  UNL     1      24.323  -0.346  53.761  1.00  0.00     0.004 C 
HETATM   13  C5  UNL     1      22.872  -0.632  53.869  1.00  0.00     0.037 C 
HETATM   14  C21 UNL     1      24.244   0.655  52.654  1.00  0.00     0.226 C 
HETATM   15  C4  UNL     1      22.172   0.469  53.499  1.00  0.00     0.007 C 
HETATM   16  N3  UNL     1      23.159   1.475  53.140  1.00  0.00    -0.368 N 
HETATM   17  H17 UNL     1      22.859   2.478  53.312  1.00  0.00     0.161 HD
BRANCH  15  18
HETATM   18  C3  UNL     1      20.679   0.487  53.508  1.00  0.00     0.063 C 
BRANCH  18  19
HETATM   19  C2  UNL     1      20.198   1.376  52.391  1.00  0.00     0.075 C 
BRANCH  19  20
HETATM   20  C1  UNL     1      20.171   0.560  51.146  1.00  0.00     0.231 C 
HETATM   21  O1  UNL     1      21.038   0.608  50.260  1.00  0.00    -0.307 OA
ENDBRANCH  19  20
ENDBRANCH  18  19
ENDBRANCH  15  18
ENDBRANCH   1   8
BRANCH   4  22
HETATM   22  O2  UNL     1      25.653   5.764  48.967  1.00  0.00    -0.309 OA
BRANCH  22  23
HETATM   23  C13 UNL     1      26.605   6.763  48.971  1.00  0.00     0.079 A 
HETATM   24  C14 UNL     1      26.247   7.738  49.909  1.00  0.00     0.037 A 
HETATM   25  C15 UNL     1      27.045   8.867  50.115  1.00  0.00     0.006 A 
HETATM   26  C16 UNL     1      28.201   9.015  49.380  1.00  0.00     0.042 A 
HETATM   27  C17 UNL     1      28.546   8.052  48.460  1.00  0.00     0.119 A 
HETATM   28  F1  UNL     1      29.654   8.099  47.691  1.00  0.00    -0.206 F 
HETATM   29  C18 UNL     1      27.769   6.949  48.256  1.00  0.00     0.079 A 
ENDBRANCH  22  23
ENDBRANCH   4  22
TORSDOF 6
ENDMDL
MODEL 9
REMARK VINA RESULT:      -7.5      3.909      7.858
REMARK  6 active torsions:
REMARK  status: ('A' for Active; 'I' for Inactive)
REMARK    1  A    between atoms: C1_2  and  C2_3 
REMARK    2  A    between atoms: C2_3  and  C3_4 
REMARK    3  A    between atoms: C3_4  and  C4_5 
REMARK    4  A    between atoms: N2_11  and  C9_12 
REMARK    5  A    between atoms: C12_15  and  O2_16 
REMARK    6  A    between atoms: O2_16  and  C13_17 
ROOT
HETATM    1  C9  UNL     1      24.599   6.111  50.104  1.00  0.00     0.039 A 
HETATM    2  C10 UNL     1      24.121   6.033  51.395  1.00  0.00     0.032 A 
HETATM    3  C11 UNL     1      23.345   4.976  51.848  1.00  0.00     0.041 A 
HETATM    4  C12 UNL     1      23.019   3.943  50.990  1.00  0.00     0.098 A 
HETATM    5  C19 UNL     1      23.472   3.978  49.690  1.00  0.00     0.070 A 
HETATM    6 CL1  UNL     1      23.070   2.680  48.554  1.00  0.00    -0.081 Cl
HETATM    7  C20 UNL     1      24.240   5.052  49.296  1.00  0.00     0.056 A 
ENDROOT
BRANCH   1   8
HETATM    8  N2  UNL     1      25.388   7.204  49.664  1.00  0.00    -0.315 N 
HETATM    9  C8  UNL     1      25.107   8.554  50.008  1.00  0.00     0.211 C 
HETATM   10  N1  UNL     1      25.839   9.584  49.751  1.00  0.00    -0.255 NA
HETATM   11  C7  UNL     1      27.056   9.374  49.047  1.00  0.00     0.129 C 
HETATM   12  C6  UNL     1      27.405   8.182  48.670  1.00  0.00     0.004 C 
HETATM   13  C5  UNL     1      28.521   7.512  47.961  1.00  0.00     0.037 C 
HETATM   14  C21 UNL     1      26.528   6.984  48.836  1.00  0.00     0.226 C 
HETATM   15  C4  UNL     1      28.580   6.214  48.351  1.00  0.00     0.007 C 
HETATM   16  N3  UNL     1      27.502   6.029  49.309  1.00  0.00    -0.368 N 
HETATM   17  H17 UNL     1      27.687   5.298  50.056  1.00  0.00     0.161 HD
BRANCH  15  18
HETATM   18  C3  UNL     1      29.612   5.280  47.808  1.00  0.00     0.063 C 
BRANCH  18  19
HETATM   19  C2  UNL     1      30.899   6.038  47.616  1.00  0.00     0.075 C 
BRANCH  19  20
HETATM   20  C1  UNL     1      31.957   5.333  48.391  1.00  0.00     0.231 C 
HETATM   21  O1  UNL     1      32.214   4.125  48.284  1.00  0.00    -0.307 OA
ENDBRANCH  19  20
ENDBRANCH  18  19
ENDBRANCH  15  18
ENDBRANCH   1   8
BRANCH   4  22
HETATM   22  O2  UNL     1      22.253   2.921  51.471  1.00  0.00    -0.309 OA
BRANCH  22  23
HETATM   23  C13 UNL     1      22.682   1.828  52.197  1.00  0.00     0.079 A 
HETATM   24  C14 UNL     1      21.594   1.273  52.880  1.00  0.00     0.037 A 
HETATM   25  C15 UNL     1      21.753   0.149  53.695  1.00  0.00     0.006 A 
HETATM   26  C16 UNL     1      23.003  -0.416  53.822  1.00  0.00     0.042 A 
HETATM   27  C17 UNL     1      24.068   0.135  53.148  1.00  0.00     0.119 A 
HETATM   28  F1  UNL     1      25.330  -0.338  53.202  1.00  0.00    -0.206 F 
HETATM   29  C18 UNL     1      23.916   1.233  52.351  1.00  0.00     0.079 A 
ENDBRANCH  22  23
ENDBRANCH   4  22
TORSDOF 6
ENDMDL
