MODEL 1
REMARK VINA RESULT:      -7.9      0.000      0.000
REMARK  3 active torsions:
REMARK  status: ('A' for Active; 'I' for Inactive)
REMARK    1  A    between atoms: C9_12  and  C10_13 
REMARK    2  A    between atoms: C10_13  and  C11_14 
REMARK    3  A    between atoms: C13_17  and  C14_18 
ROOT
HETATM    1  C1  UNL     1      22.888   2.593  49.031  1.00  0.00     0.036 C 
HETATM    2  C2  UNL     1      22.226   2.030  50.210  1.00  0.00    -0.024 C 
HETATM    3  C3  UNL     1      22.802   1.797  51.406  1.00  0.00    -0.060 C 
HETATM    4  C4  UNL     1      21.958   1.227  52.448  1.00  0.00     0.034 C 
HETATM    5  C5  UNL     1      22.227   0.461  53.490  1.00  0.00     0.037 C 
HETATM    6  C6  UNL     1      21.047   0.098  54.317  1.00  0.00     0.199 C 
HETATM    7  N1  UNL     1      21.269  -1.184  54.957  1.00  0.00    -0.307 N 
HETATM    8  N2  UNL     1      22.573  -1.641  55.270  1.00  0.00    -0.174 NA
HETATM    9  C7  UNL     1      23.610  -1.090  54.736  1.00  0.00     0.236 C 
HETATM   10  N3  UNL     1      23.568   0.011  53.795  1.00  0.00    -0.310 N 
HETATM   11  C8  UNL     1      24.888   0.428  53.351  1.00  0.00     0.019 C 
HETATM   12  C9  UNL     1      25.751   0.350  54.372  1.00  0.00     0.006 C 
HETATM   13  C13 UNL     1      25.068   0.868  51.966  1.00  0.00     0.040 C 
HETATM   14  C16 UNL     1      24.194   2.107  51.677  1.00  0.00     0.049 C 
HETATM   15  H8  UNL     1      20.479  -1.811  55.206  1.00  0.00     0.182 HD
ENDROOT
BRANCH  12  16
HETATM   16  C10 UNL     1      27.149   0.557  54.763  1.00  0.00     0.096 C 
BRANCH  16  17
HETATM   17  C11 UNL     1      28.074  -0.444  54.128  1.00  0.00     0.078 A 
HETATM   18  C12 UNL     1      29.281  -0.809  53.814  1.00  0.00     0.175 A 
HETATM   19  O1  UNL     1      28.246  -1.642  53.458  1.00  0.00    -0.322 OA
ENDBRANCH  16  17
ENDBRANCH  12  16
BRANCH  13  20
HETATM   20  C14 UNL     1      26.483   1.229  51.581  1.00  0.00     0.006 C 
HETATM   21  C15 UNL     1      26.474   2.584  50.845  1.00  0.00     0.006 C 
ENDBRANCH  13  20
TORSDOF 3
ENDMDL
MODEL 2
REMARK VINA RESULT:      -7.8      2.206      4.253
REMARK  3 active torsions:
REMARK  status: ('A' for Active; 'I' for Inactive)
REMARK    1  A    between atoms: C9_12  and  C10_13 
REMARK    2  A    between atoms: C10_13  and  C11_14 
REMARK    3  A    between atoms: C13_17  and  C14_18 
ROOT
HETATM    1  C1  UNL     1      20.419   0.716  54.061  1.00  0.00     0.036 C 
HETATM    2  C2  UNL     1      21.128   1.393  52.973  1.00  0.00    -0.024 C 
HETATM    3  C3  UNL     1      22.321   1.032  52.460  1.00  0.00    -0.060 C 
HETATM    4  C4  UNL     1      22.850   1.850  51.376  1.00  0.00     0.034 C 
HETATM    5  C5  UNL     1      24.083   2.111  50.979  1.00  0.00     0.037 C 
HETATM    6  C6  UNL     1      24.181   3.015  49.804  1.00  0.00     0.199 C 
HETATM    7  N1  UNL     1      25.425   3.757  49.854  1.00  0.00    -0.307 N 
HETATM    8  N2  UNL     1      26.576   3.233  50.495  1.00  0.00    -0.174 NA
HETATM    9  C7  UNL     1      26.480   2.235  51.307  1.00  0.00     0.236 C 
HETATM   10  N3  UNL     1      25.244   1.561  51.645  1.00  0.00    -0.310 N 
HETATM   11  C8  UNL     1      25.432   0.472  52.590  1.00  0.00     0.019 C 
HETATM   12  C9  UNL     1      26.580  -0.163  52.321  1.00  0.00     0.006 C 
HETATM   13  C13 UNL     1      24.406   0.223  53.604  1.00  0.00     0.040 C 
HETATM   14  C16 UNL     1      23.059  -0.124  52.935  1.00  0.00     0.049 C 
HETATM   15  H8  UNL     1      25.515   4.697  49.424  1.00  0.00     0.182 HD
ENDROOT
BRANCH  12  16
HETATM   16  C10 UNL     1      27.455  -1.262  52.741  1.00  0.00     0.096 C 
BRANCH  16  17
HETATM   17  C11 UNL     1      28.564  -0.797  53.644  1.00  0.00     0.078 A 
HETATM   18  C12 UNL     1      29.820  -0.514  53.817  1.00  0.00     0.175 A 
HETATM   19  O1  UNL     1      28.975  -0.362  54.891  1.00  0.00    -0.322 OA
ENDBRANCH  16  17
ENDBRANCH  12  16
BRANCH  13  20
HETATM   20  C14 UNL     1      24.714  -0.892  54.575  1.00  0.00     0.006 C 
HETATM   21  C15 UNL     1      23.425  -1.268  55.334  1.00  0.00     0.006 C 
ENDBRANCH  13  20
TORSDOF 3
ENDMDL
MODEL 3
REMARK VINA RESULT:      -7.7      2.546      4.838
REMARK  3 active torsions:
REMARK  status: ('A' for Active; 'I' for Inactive)
REMARK    1  A    between atoms: C9_12  and  C10_13 
REMARK    2  A    between atoms: C10_13  and  C11_14 
REMARK    3  A    between atoms: C13_17  and  C14_18 
ROOT
HETATM    1  C1  UNL     1      26.089   4.619  49.433  1.00  0.00     0.036 C 
HETATM    2  C2  UNL     1      26.674   3.466  50.122  1.00  0.00    -0.024 C 
HETATM    3  C3  UNL     1      25.991   2.498  50.763  1.00  0.00    -0.060 C 
HETATM    4  C4  UNL     1      26.774   1.438  51.386  1.00  0.00     0.034 C 
HETATM    5  C5  UNL     1      26.546   0.658  52.429  1.00  0.00     0.037 C 
HETATM    6  C6  UNL     1      27.630  -0.311  52.730  1.00  0.00     0.199 C 
HETATM    7  N1  UNL     1      27.643  -0.611  54.149  1.00  0.00    -0.307 N 
HETATM    8  N2  UNL     1      26.467  -0.533  54.935  1.00  0.00    -0.174 NA
HETATM    9  C7  UNL     1      25.424   0.089  54.499  1.00  0.00     0.236 C 
HETATM   10  N3  UNL     1      25.334   0.751  53.214  1.00  0.00    -0.310 N 
HETATM   11  C8  UNL     1      24.040   1.375  52.987  1.00  0.00     0.019 C 
HETATM   12  C9  UNL     1      23.073   0.603  53.500  1.00  0.00     0.006 C 
HETATM   13  C13 UNL     1      23.979   2.645  52.261  1.00  0.00     0.040 C 
HETATM   14  C16 UNL     1      24.542   2.477  50.833  1.00  0.00     0.049 C 
HETATM   15  H8  UNL     1      28.516  -0.890  54.636  1.00  0.00     0.182 HD
ENDROOT
BRANCH  12  16
HETATM   16  C10 UNL     1      21.625   0.491  53.697  1.00  0.00     0.096 C 
BRANCH  16  17
HETATM   17  C11 UNL     1      21.225  -0.852  54.245  1.00  0.00     0.078 A 
HETATM   18  C12 UNL     1      20.409  -1.863  54.240  1.00  0.00     0.175 A 
HETATM   19  O1  UNL     1      21.467  -1.897  55.118  1.00  0.00    -0.322 OA
ENDBRANCH  16  17
ENDBRANCH  12  16
BRANCH  13  20
HETATM   20  C14 UNL     1      22.600   3.245  52.122  1.00  0.00     0.006 C 
HETATM   21  C15 UNL     1      22.679   4.759  52.401  1.00  0.00     0.006 C 
ENDBRANCH  13  20
TORSDOF 3
ENDMDL
MODEL 4
REMARK VINA RESULT:      -7.5      2.535      4.851
REMARK  3 active torsions:
REMARK  status: ('A' for Active; 'I' for Inactive)
REMARK    1  A    between atoms: C9_12  and  C10_13 
REMARK    2  A    between atoms: C10_13  and  C11_14 
REMARK    3  A    between atoms: C13_17  and  C14_18 
ROOT
HETATM    1  C1  UNL     1      19.562  -0.841  53.403  1.00  0.00     0.036 C 
HETATM    2  C2  UNL     1      20.953  -0.930  53.852  1.00  0.00    -0.024 C 
HETATM    3  C3  UNL     1      21.943  -0.072  53.537  1.00  0.00    -0.060 C 
HETATM    4  C4  UNL     1      23.261  -0.349  54.094  1.00  0.00     0.034 C 
HETATM    5  C5  UNL     1      24.482  -0.072  53.671  1.00  0.00     0.037 C 
HETATM    6  C6  UNL     1      25.572  -0.545  54.561  1.00  0.00     0.199 C 
HETATM    7  N1  UNL     1      26.763  -0.818  53.781  1.00  0.00    -0.307 N 
HETATM    8  N2  UNL     1      27.029  -0.133  52.569  1.00  0.00    -0.174 NA
HETATM    9  C7  UNL     1      26.097   0.523  51.966  1.00  0.00     0.236 C 
HETATM   10  N3  UNL     1      24.730   0.634  52.432  1.00  0.00    -0.310 N 
HETATM   11  C8  UNL     1      23.893   1.432  51.550  1.00  0.00     0.019 C 
HETATM   12  C9  UNL     1      24.602   2.458  51.064  1.00  0.00     0.006 C 
HETATM   13  C13 UNL     1      22.494   1.047  51.356  1.00  0.00     0.040 C 
HETATM   14  C16 UNL     1      21.731   1.093  52.698  1.00  0.00     0.049 C 
HETATM   15  H8  UNL     1      27.461  -1.525  54.083  1.00  0.00     0.182 HD
ENDROOT
BRANCH  12  16
HETATM   16  C10 UNL     1      24.543   3.631  50.186  1.00  0.00     0.096 C 
BRANCH  16  17
HETATM   17  C11 UNL     1      25.891   3.997  49.630  1.00  0.00     0.078 A 
HETATM   18  C12 UNL     1      26.665   4.870  49.057  1.00  0.00     0.175 A 
HETATM   19  O1  UNL     1      27.201   3.641  49.362  1.00  0.00    -0.322 OA
ENDBRANCH  16  17
ENDBRANCH  12  16
BRANCH  13  20
HETATM   20  C14 UNL     1      21.718   1.901  50.381  1.00  0.00     0.006 C 
HETATM   21  C15 UNL     1      21.439   1.080  49.105  1.00  0.00     0.006 C 
ENDBRANCH  13  20
TORSDOF 3
ENDMDL
MODEL 5
REMARK VINA RESULT:      -7.5      2.985      4.974
REMARK  3 active torsions:
REMARK  status: ('A' for Active; 'I' for Inactive)
REMARK    1  A    between atoms: C9_12  and  C10_13 
REMARK    2  A    between atoms: C10_13  and  C11_14 
REMARK    3  A    between atoms: C13_17  and  C14_18 
ROOT
HETATM    1  C1  UNL     1      22.511  -1.518  55.224  1.00  0.00     0.036 C 
HETATM    2  C2  UNL     1      21.812  -0.479  54.464  1.00  0.00    -0.024 C 
HETATM    3  C3  UNL     1      22.326   0.234  53.442  1.00  0.00    -0.060 C 
HETATM    4  C4  UNL     1      21.455   1.225  52.823  1.00  0.00     0.034 C 
HETATM    5  C5  UNL     1      21.704   2.361  52.195  1.00  0.00     0.037 C 
HETATM    6  C6  UNL     1      20.500   3.080  51.707  1.00  0.00     0.199 C 
HETATM    7  N1  UNL     1      20.759   4.506  51.668  1.00  0.00    -0.307 N 
HETATM    8  N2  UNL     1      22.067   5.017  51.476  1.00  0.00    -0.174 NA
HETATM    9  C7  UNL     1      23.099   4.260  51.633  1.00  0.00     0.236 C 
HETATM   10  N3  UNL     1      23.049   2.861  52.006  1.00  0.00    -0.310 N 
HETATM   11  C8  UNL     1      24.367   2.256  52.115  1.00  0.00     0.019 C 
HETATM   12  C9  UNL     1      25.168   2.746  51.160  1.00  0.00     0.006 C 
HETATM   13  C13 UNL     1      24.605   1.252  53.154  1.00  0.00     0.040 C 
HETATM   14  C16 UNL     1      23.677   0.035  52.950  1.00  0.00     0.049 C 
HETATM   15  H8  UNL     1      19.995   5.200  51.781  1.00  0.00     0.182 HD
ENDROOT
BRANCH  12  16
HETATM   16  C10 UNL     1      26.523   2.691  50.605  1.00  0.00     0.096 C 
BRANCH  16  17
HETATM   17  C11 UNL     1      26.797   3.823  49.654  1.00  0.00     0.078 A 
HETATM   18  C12 UNL     1      26.400   4.913  49.068  1.00  0.00     0.175 A 
HETATM   19  O1  UNL     1      27.661   4.450  48.773  1.00  0.00    -0.322 OA
ENDBRANCH  16  17
ENDBRANCH  12  16
BRANCH  13  20
HETATM   20  C14 UNL     1      26.017   0.720  53.226  1.00  0.00     0.006 C 
HETATM   21  C15 UNL     1      26.004  -0.788  52.900  1.00  0.00     0.006 C 
ENDBRANCH  13  20
TORSDOF 3
ENDMDL
MODEL 6
REMARK VINA RESULT:      -7.3      2.790      5.001
REMARK  3 active torsions:
REMARK  status: ('A' for Active; 'I' for Inactive)
REMARK    1  A    between atoms: C9_12  and  C10_13 
REMARK    2  A    between atoms: C10_13  and  C11_14 
REMARK    3  A    between atoms: C13_17  and  C14_18 
ROOT
HETATM    1  C1  UNL     1      18.134  -1.400  52.942  1.00  0.00     0.036 C 
HETATM    2  C2  UNL     1      19.314  -1.520  53.801  1.00  0.00    -0.024 C 
HETATM    3  C3  UNL     1      20.404  -0.727  53.765  1.00  0.00    -0.060 C 
HETATM    4  C4  UNL     1      21.470  -1.024  54.712  1.00  0.00     0.034 C 
HETATM    5  C5  UNL     1      22.777  -0.829  54.672  1.00  0.00     0.037 C 
HETATM    6  C6  UNL     1      23.513  -1.290  55.876  1.00  0.00     0.199 C 
HETATM    7  N1  UNL     1      24.866  -1.664  55.514  1.00  0.00    -0.307 N 
HETATM    8  N2  UNL     1      25.529  -1.072  54.411  1.00  0.00    -0.174 NA
HETATM    9  C7  UNL     1      24.867  -0.417  53.519  1.00  0.00     0.236 C 
HETATM   10  N3  UNL     1      23.432  -0.216  53.537  1.00  0.00    -0.310 N 
HETATM   11  C8  UNL     1      22.954   0.557  52.402  1.00  0.00     0.019 C 
HETATM   12  C9  UNL     1      23.839   1.518  52.107  1.00  0.00     0.006 C 
HETATM   13  C13 UNL     1      21.659   0.222  51.806  1.00  0.00     0.040 C 
HETATM   14  C16 UNL     1      20.529   0.388  52.845  1.00  0.00     0.049 C 
HETATM   15  H8  UNL     1      25.394  -2.380  56.050  1.00  0.00     0.182 HD
ENDROOT
BRANCH  12  16
HETATM   16  C10 UNL     1      24.121   2.633  51.198  1.00  0.00     0.096 C 
BRANCH  16  17
HETATM   17  C11 UNL     1      23.490   3.919  51.657  1.00  0.00     0.078 A 
HETATM   18  C12 UNL     1      22.428   4.580  52.006  1.00  0.00     0.175 A 
HETATM   19  O1  UNL     1      23.629   5.249  52.009  1.00  0.00    -0.322 OA
ENDBRANCH  16  17
ENDBRANCH  12  16
BRANCH  13  20
HETATM   20  C14 UNL     1      21.271   1.043  50.599  1.00  0.00     0.006 C 
HETATM   21  C15 UNL     1      19.741   0.973  50.415  1.00  0.00     0.006 C 
ENDBRANCH  13  20
TORSDOF 3
ENDMDL
MODEL 7
REMARK VINA RESULT:      -7.2      4.206      6.175
REMARK  3 active torsions:
REMARK  status: ('A' for Active; 'I' for Inactive)
REMARK    1  A    between atoms: C9_12  and  C10_13 
REMARK    2  A    between atoms: C10_13  and  C11_14 
REMARK    3  A    between atoms: C13_17  and  C14_18 
ROOT
HETATM    1  C1  UNL     1      22.803   0.176  53.256  1.00  0.00     0.036 C 
HETATM    2  C2  UNL     1      22.310   1.494  52.849  1.00  0.00    -0.024 C 
HETATM    3  C3  UNL     1      22.861   2.292  51.913  1.00  0.00    -0.060 C 
HETATM    4  C4  UNL     1      22.207   3.570  51.664  1.00  0.00     0.034 C 
HETATM    5  C5  UNL     1      22.663   4.735  51.237  1.00  0.00     0.037 C 
HETATM    6  C6  UNL     1      21.635   5.801  51.120  1.00  0.00     0.199 C 
HETATM    7  N1  UNL     1      22.248   7.100  51.316  1.00  0.00    -0.307 N 
HETATM    8  N2  UNL     1      23.610   7.333  51.000  1.00  0.00    -0.174 NA
HETATM    9  C7  UNL     1      24.422   6.347  50.820  1.00  0.00     0.236 C 
HETATM   10  N3  UNL     1      24.057   4.949  50.914  1.00  0.00    -0.310 N 
HETATM   11  C8  UNL     1      25.176   4.053  50.667  1.00  0.00     0.019 C 
HETATM   12  C9  UNL     1      25.952   4.559  49.701  1.00  0.00     0.006 C 
HETATM   13  C13 UNL     1      25.272   2.807  51.430  1.00  0.00     0.040 C 
HETATM   14  C16 UNL     1      24.043   1.913  51.160  1.00  0.00     0.049 C 
HETATM   15  H8  UNL     1      21.710   7.903  51.696  1.00  0.00     0.182 HD
ENDROOT
BRANCH  12  16
HETATM   16  C10 UNL     1      27.168   4.331  48.914  1.00  0.00     0.096 C 
BRANCH  16  17
HETATM   17  C11 UNL     1      27.836   5.615  48.507  1.00  0.00     0.078 A 
HETATM   18  C12 UNL     1      27.741   6.834  48.067  1.00  0.00     0.175 A 
HETATM   19  O1  UNL     1      28.998   6.346  48.334  1.00  0.00    -0.322 OA
ENDBRANCH  16  17
ENDBRANCH  12  16
BRANCH  13  20
HETATM   20  C14 UNL     1      26.495   1.968  51.146  1.00  0.00     0.006 C 
HETATM   21  C15 UNL     1      26.483   0.731  52.067  1.00  0.00     0.006 C 
ENDBRANCH  13  20
TORSDOF 3
ENDMDL
MODEL 8
REMARK VINA RESULT:      -6.8      2.937      4.982
REMARK  3 active torsions:
REMARK  status: ('A' for Active; 'I' for Inactive)
REMARK    1  A    between atoms: C9_12  and  C10_13 
REMARK    2  A    between atoms: C10_13  and  C11_14 
REMARK    3  A    between atoms: C13_17  and  C14_18 
ROOT
HETATM    1  C1  UNL     1      26.566   3.155  50.306  1.00  0.00     0.036 C 
HETATM    2  C2  UNL     1      25.206   3.254  49.771  1.00  0.00    -0.024 C 
HETATM    3  C3  UNL     1      24.068   3.026  50.455  1.00  0.00    -0.060 C 
HETATM    4  C4  UNL     1      22.815   3.180  49.727  1.00  0.00     0.034 C 
HETATM    5  C5  UNL     1      21.627   2.620  49.872  1.00  0.00     0.037 C 
HETATM    6  C6  UNL     1      20.604   3.070  48.893  1.00  0.00     0.199 C 
HETATM    7  N1  UNL     1      19.636   2.013  48.671  1.00  0.00    -0.307 N 
HETATM    8  N2  UNL     1      19.347   1.050  49.670  1.00  0.00    -0.174 NA
HETATM    9  C7  UNL     1      20.135   0.891  50.679  1.00  0.00     0.236 C 
HETATM   10  N3  UNL     1      21.352   1.643  50.903  1.00  0.00    -0.310 N 
HETATM   11  C8  UNL     1      22.046   1.250  52.119  1.00  0.00     0.019 C 
HETATM   12  C9  UNL     1      21.152   0.974  53.077  1.00  0.00     0.006 C 
HETATM   13  C13 UNL     1      23.510   1.241  52.133  1.00  0.00     0.040 C 
HETATM   14  C16 UNL     1      24.060   2.657  51.859  1.00  0.00     0.049 C 
HETATM   15  H8  UNL     1      19.124   1.926  47.772  1.00  0.00     0.182 HD
ENDROOT
BRANCH  12  16
HETATM   16  C10 UNL     1      21.000   0.541  54.469  1.00  0.00     0.096 C 
BRANCH  16  17
HETATM   17  C11 UNL     1      21.467  -0.872  54.683  1.00  0.00     0.078 A 
HETATM   18  C12 UNL     1      21.455  -2.120  54.322  1.00  0.00     0.175 A 
HETATM   19  O1  UNL     1      22.222  -1.775  55.411  1.00  0.00    -0.322 OA
ENDBRANCH  16  17
ENDBRANCH  12  16
BRANCH  13  20
HETATM   20  C14 UNL     1      24.141   0.767  53.421  1.00  0.00     0.006 C 
HETATM   21  C15 UNL     1      24.952  -0.515  53.142  1.00  0.00     0.006 C 
ENDBRANCH  13  20
TORSDOF 3
ENDMDL
MODEL 9
REMARK VINA RESULT:      -6.7      2.650      3.475
REMARK  3 active torsions:
REMARK  status: ('A' for Active; 'I' for Inactive)
REMARK    1  A    between atoms: C9_12  and  C10_13 
REMARK    2  A    between atoms: C10_13  and  C11_14 
REMARK    3  A    between atoms: C13_17  and  C14_18 
ROOT
HETATM    1  C1  UNL     1      23.991   6.922  48.574  1.00  0.00     0.036 C 
HETATM    2  C2  UNL     1      23.072   6.183  49.443  1.00  0.00    -0.024 C 
HETATM    3  C3  UNL     1      23.413   5.206  50.307  1.00  0.00    -0.060 C 
HETATM    4  C4  UNL     1      22.336   4.599  51.078  1.00  0.00     0.034 C 
HETATM    5  C5  UNL     1      22.187   3.396  51.606  1.00  0.00     0.037 C 
HETATM    6  C6  UNL     1      20.907   3.188  52.329  1.00  0.00     0.199 C 
HETATM    7  N1  UNL     1      20.531   1.788  52.273  1.00  0.00    -0.307 N 
HETATM    8  N2  UNL     1      21.503   0.763  52.158  1.00  0.00    -0.174 NA
HETATM    9  C7  UNL     1      22.710   1.039  51.796  1.00  0.00     0.236 C 
HETATM   10  N3  UNL     1      23.196   2.366  51.480  1.00  0.00    -0.310 N 
HETATM   11  C8  UNL     1      24.599   2.381  51.098  1.00  0.00     0.019 C 
HETATM   12  C9  UNL     1      25.276   1.495  51.839  1.00  0.00     0.006 C 
HETATM   13  C13 UNL     1      25.044   3.311  50.059  1.00  0.00     0.040 C 
HETATM   14  C16 UNL     1      24.785   4.770  50.493  1.00  0.00     0.049 C 
HETATM   15  H8  UNL     1      19.538   1.491  52.314  1.00  0.00     0.182 HD
ENDROOT
BRANCH  12  16
HETATM   16  C10 UNL     1      26.602   0.919  52.083  1.00  0.00     0.096 C 
BRANCH  16  17
HETATM   17  C11 UNL     1      27.411   1.736  53.053  1.00  0.00     0.078 A 
HETATM   18  C12 UNL     1      28.517   2.350  53.346  1.00  0.00     0.175 A 
HETATM   19  O1  UNL     1      27.506   2.372  54.278  1.00  0.00    -0.322 OA
ENDBRANCH  16  17
ENDBRANCH  12  16
BRANCH  13  20
HETATM   20  C14 UNL     1      26.506   3.216  49.689  1.00  0.00     0.006 C 
HETATM   21  C15 UNL     1      26.939   4.532  49.010  1.00  0.00     0.006 C 
ENDBRANCH  13  20
TORSDOF 3
ENDMDL
