MODEL 1
REMARK VINA RESULT:      -8.2      0.000      0.000
REMARK  2 active torsions:
REMARK  status: ('A' for Active; 'I' for Inactive)
REMARK    1  A    between atoms: O1_2  and  C2_3 
REMARK    2  A    between atoms: N3_11  and  C8_12 
ROOT
HETATM    1  C2  UNL     1      20.341  -0.587  53.429  1.00  0.00     0.051 A 
HETATM    2  C3  UNL     1      21.435  -0.751  54.186  1.00  0.00     0.035 A 
HETATM    3  C4  UNL     1      22.638  -0.122  53.651  1.00  0.00     0.036 A 
HETATM    4  C5  UNL     1      22.602   0.543  52.512  1.00  0.00     0.084 A 
HETATM    5  C6  UNL     1      21.398   0.708  51.714  1.00  0.00     0.070 A 
HETATM    6  N1  UNL     1      21.528   1.401  50.636  1.00  0.00    -0.242 NA
HETATM    7  C7  UNL     1      22.790   1.969  50.257  1.00  0.00     0.255 A 
HETATM    8  N2  UNL     1      23.885   1.851  50.930  1.00  0.00    -0.160 NA
HETATM    9  N3  UNL     1      23.849   1.104  52.136  1.00  0.00    -0.231 N 
HETATM   10  C17 UNL     1      20.123   0.115  52.142  1.00  0.00     0.126 A 
ENDROOT
BRANCH   9  11
HETATM   11  C8  UNL     1      25.112   1.060  52.767  1.00  0.00     0.059 A 
HETATM   12  C9  UNL     1      25.760   2.010  53.526  1.00  0.00     0.032 A 
HETATM   13  C10 UNL     1      27.016   1.813  54.055  1.00  0.00     0.010 A 
HETATM   14  C11 UNL     1      27.694   0.634  53.844  1.00  0.00    -0.052 A 
HETATM   15  C12 UNL     1      27.120  -0.351  53.107  1.00  0.00    -0.050 A 
HETATM   16  C16 UNL     1      29.040   0.219  54.316  1.00  0.00     0.039 C 
HETATM   17  C13 UNL     1      25.860  -0.112  52.596  1.00  0.00     0.039 A 
HETATM   18  C14 UNL     1      28.025  -1.523  53.014  1.00  0.00     0.039 C 
HETATM   19  C15 UNL     1      29.362  -0.937  53.393  1.00  0.00     0.009 C 
ENDBRANCH   9  11
BRANCH   1  20
HETATM   20  O1  UNL     1      19.125  -1.137  53.827  1.00  0.00    -0.360 OA
HETATM   21  C1  UNL     1      17.964  -1.106  53.030  1.00  0.00     0.209 C 
ENDBRANCH   1  20
TORSDOF 2
ENDMDL
MODEL 2
REMARK VINA RESULT:      -8.0      1.894      2.909
REMARK  2 active torsions:
REMARK  status: ('A' for Active; 'I' for Inactive)
REMARK    1  A    between atoms: O1_2  and  C2_3 
REMARK    2  A    between atoms: N3_11  and  C8_12 
ROOT
HETATM    1  C2  UNL     1      21.218   1.256  50.558  1.00  0.00     0.051 A 
HETATM    2  C3  UNL     1      22.477   1.709  50.482  1.00  0.00     0.035 A 
HETATM    3  C4  UNL     1      23.352   1.241  51.553  1.00  0.00     0.036 A 
HETATM    4  C5  UNL     1      22.894   0.439  52.495  1.00  0.00     0.084 A 
HETATM    5  C6  UNL     1      21.522  -0.040  52.550  1.00  0.00     0.070 A 
HETATM    6  N1  UNL     1      21.240  -0.831  53.526  1.00  0.00    -0.242 NA
HETATM    7  C7  UNL     1      22.229  -1.209  54.495  1.00  0.00     0.255 A 
HETATM    8  N2  UNL     1      23.457  -0.811  54.490  1.00  0.00    -0.160 NA
HETATM    9  N3  UNL     1      23.871   0.066  53.454  1.00  0.00    -0.231 N 
HETATM   10  C17 UNL     1      20.542   0.367  51.533  1.00  0.00     0.126 A 
ENDROOT
BRANCH   9  11
HETATM   11  C8  UNL     1      25.234   0.416  53.571  1.00  0.00     0.059 A 
HETATM   12  C9  UNL     1      25.822   1.648  53.754  1.00  0.00     0.032 A 
HETATM   13  C10 UNL     1      27.186   1.821  53.823  1.00  0.00     0.010 A 
HETATM   14  C11 UNL     1      28.040   0.748  53.711  1.00  0.00    -0.052 A 
HETATM   15  C12 UNL     1      27.535  -0.500  53.530  1.00  0.00    -0.050 A 
HETATM   16  C16 UNL     1      29.525   0.712  53.756  1.00  0.00     0.039 C 
HETATM   17  C13 UNL     1      26.163  -0.627  53.466  1.00  0.00     0.039 A 
HETATM   18  C14 UNL     1      28.633  -1.493  53.437  1.00  0.00     0.039 C 
HETATM   19  C15 UNL     1      29.833  -0.633  53.131  1.00  0.00     0.009 C 
ENDBRANCH   9  11
BRANCH   1  20
HETATM   20  O1  UNL     1      20.281   1.627  49.598  1.00  0.00    -0.360 OA
HETATM   21  C1  UNL     1      20.629   2.093  48.314  1.00  0.00     0.209 C 
ENDBRANCH   1  20
TORSDOF 2
ENDMDL
MODEL 3
REMARK VINA RESULT:      -8.0      2.830      7.368
REMARK  2 active torsions:
REMARK  status: ('A' for Active; 'I' for Inactive)
REMARK    1  A    between atoms: O1_2  and  C2_3 
REMARK    2  A    between atoms: N3_11  and  C8_12 
ROOT
HETATM    1  C2  UNL     1      26.506   0.807  53.025  1.00  0.00     0.051 A 
HETATM    2  C3  UNL     1      25.492   1.106  52.202  1.00  0.00     0.035 A 
HETATM    3  C4  UNL     1      24.203   0.555  52.609  1.00  0.00     0.036 A 
HETATM    4  C5  UNL     1      24.095  -0.171  53.705  1.00  0.00     0.084 A 
HETATM    5  C6  UNL     1      25.214  -0.476  54.582  1.00  0.00     0.070 A 
HETATM    6  N1  UNL     1      24.938  -1.183  55.622  1.00  0.00    -0.242 NA
HETATM    7  C7  UNL     1      23.602  -1.637  55.888  1.00  0.00     0.255 A 
HETATM    8  N2  UNL     1      22.578  -1.394  55.141  1.00  0.00    -0.160 NA
HETATM    9  N3  UNL     1      22.776  -0.621  53.967  1.00  0.00    -0.231 N 
HETATM   10  C17 UNL     1      26.566   0.014  54.278  1.00  0.00     0.126 A 
ENDROOT
BRANCH   9  11
HETATM   11  C8  UNL     1      21.574  -0.432  53.251  1.00  0.00     0.059 A 
HETATM   12  C9  UNL     1      21.312   0.347  52.145  1.00  0.00     0.032 A 
HETATM   13  C10 UNL     1      20.061   0.441  51.577  1.00  0.00     0.010 A 
HETATM   14  C11 UNL     1      18.995  -0.256  52.099  1.00  0.00    -0.052 A 
HETATM   15  C12 UNL     1      19.175  -1.047  53.189  1.00  0.00    -0.050 A 
HETATM   16  C16 UNL     1      17.580  -0.298  51.648  1.00  0.00     0.039 C 
HETATM   17  C13 UNL     1      20.444  -1.111  53.726  1.00  0.00     0.039 A 
HETATM   18  C14 UNL     1      17.897  -1.696  53.572  1.00  0.00     0.039 C 
HETATM   19  C15 UNL     1      16.870  -0.847  52.867  1.00  0.00     0.009 C 
ENDBRANCH   9  11
BRANCH   1  20
HETATM   20  O1  UNL     1      27.790   1.271  52.753  1.00  0.00    -0.360 OA
HETATM   21  C1  UNL     1      28.417   2.294  53.491  1.00  0.00     0.209 C 
ENDBRANCH   1  20
TORSDOF 2
ENDMDL
MODEL 4
REMARK VINA RESULT:      -7.8      2.403      6.857
REMARK  2 active torsions:
REMARK  status: ('A' for Active; 'I' for Inactive)
REMARK    1  A    between atoms: O1_2  and  C2_3 
REMARK    2  A    between atoms: N3_11  and  C8_12 
ROOT
HETATM    1  C2  UNL     1      27.214  -0.273  53.042  1.00  0.00     0.051 A 
HETATM    2  C3  UNL     1      26.232  -1.122  53.375  1.00  0.00     0.035 A 
HETATM    3  C4  UNL     1      24.889  -0.558  53.283  1.00  0.00     0.036 A 
HETATM    4  C5  UNL     1      24.708   0.691  52.898  1.00  0.00     0.084 A 
HETATM    5  C6  UNL     1      25.794   1.589  52.538  1.00  0.00     0.070 A 
HETATM    6  N1  UNL     1      25.447   2.772  52.167  1.00  0.00    -0.242 NA
HETATM    7  C7  UNL     1      24.068   3.168  52.116  1.00  0.00     0.255 A 
HETATM    8  N2  UNL     1      23.071   2.410  52.425  1.00  0.00    -0.160 NA
HETATM    9  N3  UNL     1      23.346   1.084  52.848  1.00  0.00    -0.231 N 
HETATM   10  C17 UNL     1      27.193   1.141  52.598  1.00  0.00     0.126 A 
ENDROOT
BRANCH   9  11
HETATM   11  C8  UNL     1      22.166   0.370  53.150  1.00  0.00     0.059 A 
HETATM   12  C9  UNL     1      21.950  -0.648  54.053  1.00  0.00     0.032 A 
HETATM   13  C10 UNL     1      20.726  -1.261  54.208  1.00  0.00     0.010 A 
HETATM   14  C11 UNL     1      19.643  -0.876  53.452  1.00  0.00    -0.052 A 
HETATM   15  C12 UNL     1      19.777   0.123  52.540  1.00  0.00    -0.050 A 
HETATM   16  C16 UNL     1      18.251  -1.396  53.458  1.00  0.00     0.039 C 
HETATM   17  C13 UNL     1      21.020   0.709  52.418  1.00  0.00     0.039 A 
HETATM   18  C14 UNL     1      18.488   0.368  51.848  1.00  0.00     0.039 C 
HETATM   19  C15 UNL     1      17.714  -0.894  52.134  1.00  0.00     0.009 C 
ENDBRANCH   9  11
BRANCH   1  20
HETATM   20  O1  UNL     1      28.543  -0.687  53.086  1.00  0.00    -0.360 OA
HETATM   21  C1  UNL     1      29.536  -0.024  53.834  1.00  0.00     0.209 C 
ENDBRANCH   1  20
TORSDOF 2
ENDMDL
MODEL 5
REMARK VINA RESULT:      -7.8      3.917      6.632
REMARK  2 active torsions:
REMARK  status: ('A' for Active; 'I' for Inactive)
REMARK    1  A    between atoms: O1_2  and  C2_3 
REMARK    2  A    between atoms: N3_11  and  C8_12 
ROOT
HETATM    1  C2  UNL     1      26.549   4.413  49.336  1.00  0.00     0.051 A 
HETATM    2  C3  UNL     1      26.582   3.173  49.845  1.00  0.00     0.035 A 
HETATM    3  C4  UNL     1      25.491   2.870  50.766  1.00  0.00     0.036 A 
HETATM    4  C5  UNL     1      24.572   3.775  51.044  1.00  0.00     0.084 A 
HETATM    5  C6  UNL     1      24.560   5.113  50.474  1.00  0.00     0.070 A 
HETATM    6  N1  UNL     1      23.583   5.870  50.834  1.00  0.00    -0.242 NA
HETATM    7  C7  UNL     1      22.574   5.410  51.746  1.00  0.00     0.255 A 
HETATM    8  N2  UNL     1      22.542   4.235  52.279  1.00  0.00    -0.160 NA
HETATM    9  N3  UNL     1      23.575   3.322  51.946  1.00  0.00    -0.231 N 
HETATM   10  C17 UNL     1      25.609   5.542  49.538  1.00  0.00     0.126 A 
ENDROOT
BRANCH   9  11
HETATM   11  C8  UNL     1      23.412   2.079  52.596  1.00  0.00     0.059 A 
HETATM   12  C9  UNL     1      24.352   1.148  52.981  1.00  0.00     0.032 A 
HETATM   13  C10 UNL     1      24.018  -0.041  53.591  1.00  0.00     0.010 A 
HETATM   14  C11 UNL     1      22.704  -0.357  53.849  1.00  0.00    -0.052 A 
HETATM   15  C12 UNL     1      21.720   0.512  53.500  1.00  0.00    -0.050 A 
HETATM   16  C16 UNL     1      22.130  -1.569  54.490  1.00  0.00     0.039 C 
HETATM   17  C13 UNL     1      22.099   1.691  52.891  1.00  0.00     0.039 A 
HETATM   18  C14 UNL     1      20.392  -0.033  53.874  1.00  0.00     0.039 C 
HETATM   19  C15 UNL     1      20.679  -1.501  54.063  1.00  0.00     0.009 C 
ENDBRANCH   9  11
BRANCH   1  20
HETATM   20  O1  UNL     1      27.532   4.830  48.443  1.00  0.00    -0.360 OA
HETATM   21  C1  UNL     1      27.860   6.183  48.229  1.00  0.00     0.209 C 
ENDBRANCH   1  20
TORSDOF 2
ENDMDL
MODEL 6
REMARK VINA RESULT:      -7.7      3.083      4.684
REMARK  2 active torsions:
REMARK  status: ('A' for Active; 'I' for Inactive)
REMARK    1  A    between atoms: O1_2  and  C2_3 
REMARK    2  A    between atoms: N3_11  and  C8_12 
ROOT
HETATM    1  C2  UNL     1      24.584   4.689  49.310  1.00  0.00     0.051 A 
HETATM    2  C3  UNL     1      25.838   4.307  49.587  1.00  0.00     0.035 A 
HETATM    3  C4  UNL     1      25.947   3.331  50.667  1.00  0.00     0.036 A 
HETATM    4  C5  UNL     1      24.870   2.892  51.289  1.00  0.00     0.084 A 
HETATM    5  C6  UNL     1      23.520   3.322  50.964  1.00  0.00     0.070 A 
HETATM    6  N1  UNL     1      22.576   2.784  51.655  1.00  0.00    -0.242 NA
HETATM    7  C7  UNL     1      22.853   1.820  52.681  1.00  0.00     0.255 A 
HETATM    8  N2  UNL     1      24.031   1.407  53.007  1.00  0.00    -0.160 NA
HETATM    9  N3  UNL     1      25.143   1.939  52.305  1.00  0.00    -0.231 N 
HETATM   10  C17 UNL     1      23.279   4.307  49.901  1.00  0.00     0.126 A 
ENDROOT
BRANCH   9  11
HETATM   11  C8  UNL     1      26.365   1.398  52.761  1.00  0.00     0.059 A 
HETATM   12  C9  UNL     1      27.479   2.027  53.272  1.00  0.00     0.032 A 
HETATM   13  C10 UNL     1      28.613   1.345  53.652  1.00  0.00     0.010 A 
HETATM   14  C11 UNL     1      28.684  -0.025  53.537  1.00  0.00    -0.052 A 
HETATM   15  C12 UNL     1      27.625  -0.716  53.043  1.00  0.00    -0.050 A 
HETATM   16  C16 UNL     1      29.797  -0.947  53.884  1.00  0.00     0.039 C 
HETATM   17  C13 UNL     1      26.509   0.007  52.674  1.00  0.00     0.039 A 
HETATM   18  C14 UNL     1      27.924  -2.169  53.012  1.00  0.00     0.039 C 
HETATM   19  C15 UNL     1      29.428  -2.199  53.115  1.00  0.00     0.009 C 
ENDBRANCH   9  11
BRANCH   1  20
HETATM   20  O1  UNL     1      24.341   5.616  48.300  1.00  0.00    -0.360 OA
HETATM   21  C1  UNL     1      23.286   6.549  48.342  1.00  0.00     0.209 C 
ENDBRANCH   1  20
TORSDOF 2
ENDMDL
MODEL 7
REMARK VINA RESULT:      -7.6      4.125      5.840
REMARK  2 active torsions:
REMARK  status: ('A' for Active; 'I' for Inactive)
REMARK    1  A    between atoms: O1_2  and  C2_3 
REMARK    2  A    between atoms: N3_11  and  C8_12 
ROOT
HETATM    1  C2  UNL     1      25.882   5.658  48.965  1.00  0.00     0.051 A 
HETATM    2  C3  UNL     1      26.704   4.602  49.042  1.00  0.00     0.035 A 
HETATM    3  C4  UNL     1      26.390   3.670  50.120  1.00  0.00     0.036 A 
HETATM    4  C5  UNL     1      25.370   3.892  50.927  1.00  0.00     0.084 A 
HETATM    5  C6  UNL     1      24.492   5.046  50.818  1.00  0.00     0.070 A 
HETATM    6  N1  UNL     1      23.532   5.107  51.673  1.00  0.00    -0.242 NA
HETATM    7  C7  UNL     1      23.350   4.090  52.671  1.00  0.00     0.255 A 
HETATM    8  N2  UNL     1      24.102   3.050  52.809  1.00  0.00    -0.160 NA
HETATM    9  N3  UNL     1      25.191   2.889  51.914  1.00  0.00    -0.231 N 
HETATM   10  C17 UNL     1      24.708   6.062  49.777  1.00  0.00     0.126 A 
ENDROOT
BRANCH   9  11
HETATM   11  C8  UNL     1      25.922   1.710  52.178  1.00  0.00     0.059 A 
HETATM   12  C9  UNL     1      25.575   0.390  51.995  1.00  0.00     0.032 A 
HETATM   13  C10 UNL     1      26.407  -0.655  52.333  1.00  0.00     0.010 A 
HETATM   14  C11 UNL     1      27.649  -0.420  52.879  1.00  0.00    -0.052 A 
HETATM   15  C12 UNL     1      28.062   0.857  53.089  1.00  0.00    -0.050 A 
HETATM   16  C16 UNL     1      28.691  -1.387  53.310  1.00  0.00     0.039 C 
HETATM   17  C13 UNL     1      27.197   1.872  52.736  1.00  0.00     0.039 A 
HETATM   18  C14 UNL     1      29.423   0.869  53.680  1.00  0.00     0.039 C 
HETATM   19  C15 UNL     1      29.567  -0.537  54.207  1.00  0.00     0.009 C 
ENDBRANCH   9  11
BRANCH   1  20
HETATM   20  O1  UNL     1      26.071   6.623  47.980  1.00  0.00    -0.360 OA
HETATM   21  C1  UNL     1      25.911   8.004  48.207  1.00  0.00     0.209 C 
ENDBRANCH   1  20
TORSDOF 2
ENDMDL
MODEL 8
REMARK VINA RESULT:      -7.5      2.169      3.920
REMARK  2 active torsions:
REMARK  status: ('A' for Active; 'I' for Inactive)
REMARK    1  A    between atoms: O1_2  and  C2_3 
REMARK    2  A    between atoms: N3_11  and  C8_12 
ROOT
HETATM    1  C2  UNL     1      20.086  -0.649  53.296  1.00  0.00     0.051 A 
HETATM    2  C3  UNL     1      20.636   0.117  52.343  1.00  0.00     0.035 A 
HETATM    3  C4  UNL     1      22.075   0.315  52.483  1.00  0.00     0.036 A 
HETATM    4  C5  UNL     1      22.737  -0.236  53.483  1.00  0.00     0.084 A 
HETATM    5  C6  UNL     1      22.114  -1.066  54.501  1.00  0.00     0.070 A 
HETATM    6  N1  UNL     1      22.904  -1.543  55.399  1.00  0.00    -0.242 NA
HETATM    7  C7  UNL     1      24.312  -1.263  55.386  1.00  0.00     0.255 A 
HETATM    8  N2  UNL     1      24.910  -0.533  54.506  1.00  0.00    -0.160 NA
HETATM    9  N3  UNL     1      24.128   0.041  53.470  1.00  0.00    -0.231 N 
HETATM   10  C17 UNL     1      20.669  -1.334  54.475  1.00  0.00     0.126 A 
ENDROOT
BRANCH   9  11
HETATM   11  C8  UNL     1      24.911   0.809  52.581  1.00  0.00     0.059 A 
HETATM   12  C9  UNL     1      26.272   0.808  52.367  1.00  0.00     0.032 A 
HETATM   13  C10 UNL     1      26.887   1.650  51.468  1.00  0.00     0.010 A 
HETATM   14  C11 UNL     1      26.153   2.549  50.727  1.00  0.00    -0.052 A 
HETATM   15  C12 UNL     1      24.805   2.608  50.881  1.00  0.00    -0.050 A 
HETATM   16  C16 UNL     1      26.610   3.535  49.714  1.00  0.00     0.039 C 
HETATM   17  C13 UNL     1      24.230   1.747  51.793  1.00  0.00     0.039 A 
HETATM   18  C14 UNL     1      24.228   3.641  49.986  1.00  0.00     0.039 C 
HETATM   19  C15 UNL     1      25.429   4.480  49.631  1.00  0.00     0.009 C 
ENDBRANCH   9  11
BRANCH   1  20
HETATM   20  O1  UNL     1      18.720  -0.916  53.279  1.00  0.00    -0.360 OA
HETATM   21  C1  UNL     1      17.896  -0.667  52.164  1.00  0.00     0.209 C 
ENDBRANCH   1  20
TORSDOF 2
ENDMDL
MODEL 9
REMARK VINA RESULT:      -7.5      2.802      6.546
REMARK  2 active torsions:
REMARK  status: ('A' for Active; 'I' for Inactive)
REMARK    1  A    between atoms: O1_2  and  C2_3 
REMARK    2  A    between atoms: N3_11  and  C8_12 
ROOT
HETATM    1  C2  UNL     1      26.869  -0.353  53.341  1.00  0.00     0.051 A 
HETATM    2  C3  UNL     1      26.985   0.574  52.380  1.00  0.00     0.035 A 
HETATM    3  C4  UNL     1      25.723   1.188  51.977  1.00  0.00     0.036 A 
HETATM    4  C5  UNL     1      24.588   0.826  52.543  1.00  0.00     0.084 A 
HETATM    5  C6  UNL     1      24.492  -0.181  53.588  1.00  0.00     0.070 A 
HETATM    6  N1  UNL     1      23.311  -0.406  54.047  1.00  0.00    -0.242 NA
HETATM    7  C7  UNL     1      22.165   0.301  53.549  1.00  0.00     0.255 A 
HETATM    8  N2  UNL     1      22.198   1.201  52.625  1.00  0.00    -0.160 NA
HETATM    9  N3  UNL     1      23.455   1.523  52.051  1.00  0.00    -0.231 N 
HETATM   10  C17 UNL     1      25.692  -0.877  54.075  1.00  0.00     0.126 A 
ENDROOT
BRANCH   9  11
HETATM   11  C8  UNL     1      23.342   2.521  51.058  1.00  0.00     0.059 A 
HETATM   12  C9  UNL     1      23.579   3.877  51.131  1.00  0.00     0.032 A 
HETATM   13  C10 UNL     1      23.393   4.725  50.062  1.00  0.00     0.010 A 
HETATM   14  C11 UNL     1      22.956   4.246  48.848  1.00  0.00    -0.052 A 
HETATM   15  C12 UNL     1      22.702   2.920  48.698  1.00  0.00    -0.050 A 
HETATM   16  C16 UNL     1      22.693   4.976  47.581  1.00  0.00     0.039 C 
HETATM   17  C13 UNL     1      22.900   2.106  49.795  1.00  0.00     0.039 A 
HETATM   18  C14 UNL     1      22.246   2.633  47.316  1.00  0.00     0.039 C 
HETATM   19  C15 UNL     1      21.830   3.994  46.817  1.00  0.00     0.009 C 
ENDBRANCH   9  11
BRANCH   1  20
HETATM   20  O1  UNL     1      27.998  -1.014  53.817  1.00  0.00    -0.360 OA
HETATM   21  C1  UNL     1      29.285  -0.443  53.824  1.00  0.00     0.209 C 
ENDBRANCH   1  20
TORSDOF 2
ENDMDL
