MODEL 1
REMARK VINA RESULT:      -8.7      0.000      0.000
REMARK  3 active torsions:
REMARK  status: ('A' for Active; 'I' for Inactive)
REMARK    1  A    between atoms: C1_2  and  N5_21 
REMARK    2  A    between atoms: N3_11  and  N4_12 
REMARK    3  A    between atoms: N4_12  and  C7_13 
ROOT
HETATM    1  O1  UNL     1      24.906   1.132  52.383  1.00  0.00     0.000 OA
HETATM    2  C1  UNL     1      25.688   0.828  53.291  1.00  0.00     0.119 A 
HETATM    3  O2  UNL     1      24.803   1.173  52.255  1.00  0.00     0.000 OA
HETATM    4  C2  UNL     1      23.469   1.514  52.475  1.00  0.00     0.019 A 
HETATM    5  C3  UNL     1      23.039   0.412  53.014  1.00  0.00     0.006 C 
HETATM    6  C4  UNL     1      21.586   0.508  53.316  1.00  0.00     0.282 C 
HETATM    7  N1  UNL     1      20.462   1.109  53.234  1.00  0.00    -0.383 NA
HETATM    8  C5  UNL     1      20.245   2.344  52.522  1.00  0.00     0.191 C 
HETATM    9  N2  UNL     1      20.510   3.049  51.487  1.00  0.00    -0.270 NA
HETATM   10  C6  UNL     1      21.420   2.537  50.458  1.00  0.00     0.263 C 
HETATM   11  N3  UNL     1      22.747   3.124  50.735  1.00  0.00    -0.210 NA
HETATM   12  C13 UNL     1      23.053   2.849  52.112  1.00  0.00     0.131 C 
ENDROOT
BRANCH   2  13
HETATM   13  N5  UNL     1      27.065   0.496  53.131  1.00  0.00    -0.393 N 
HETATM   14  C14 UNL     1      27.295  -0.907  52.825  1.00  0.00     0.144 C 
HETATM   15  C15 UNL     1      28.703  -1.233  53.281  1.00  0.00     0.187 C 
HETATM   16  O3  UNL     1      28.925  -0.632  54.501  1.00  0.00    -0.388 OA
HETATM   17  C16 UNL     1      29.040   0.753  54.414  1.00  0.00     0.187 C 
HETATM   18  C17 UNL     1      28.292   1.299  53.216  1.00  0.00     0.144 C 
ENDBRANCH   2  13
BRANCH  11  19
HETATM   19  N4  UNL     1      23.719   2.834  49.844  1.00  0.00    -0.318 N 
HETATM   20  H6  UNL     1      23.808   1.952  49.258  1.00  0.00     0.181 HD
BRANCH  19  21
HETATM   21  C7  UNL     1      24.847   3.673  49.502  1.00  0.00     0.044 A 
HETATM   22  C8  UNL     1      26.192   3.386  49.510  1.00  0.00     0.030 A 
HETATM   23  C9  UNL     1      27.140   4.307  49.143  1.00  0.00     0.004 A 
HETATM   24  C10 UNL     1      26.795   5.566  48.747  1.00  0.00     0.024 A 
HETATM   25  C11 UNL     1      25.448   5.883  48.728  1.00  0.00     0.036 A 
HETATM   26 CL1  UNL     1      25.081   7.513  48.210  1.00  0.00    -0.084 Cl
HETATM   27  C12 UNL     1      24.456   4.962  49.098  1.00  0.00     0.054 A 
ENDBRANCH  19  21
ENDBRANCH  11  19
TORSDOF 3
ENDMDL
MODEL 2
REMARK VINA RESULT:      -8.7      1.608      2.184
REMARK  3 active torsions:
REMARK  status: ('A' for Active; 'I' for Inactive)
REMARK    1  A    between atoms: C1_2  and  N5_21 
REMARK    2  A    between atoms: N3_11  and  N4_12 
REMARK    3  A    between atoms: N4_12  and  C7_13 
ROOT
HETATM    1  O1  UNL     1      24.679   0.529  52.835  1.00  0.00     0.000 OA
HETATM    2  C1  UNL     1      25.604   0.548  53.655  1.00  0.00     0.119 A 
HETATM    3  O2  UNL     1      24.556   0.527  52.719  1.00  0.00     0.000 OA
HETATM    4  C2  UNL     1      23.223   0.323  53.072  1.00  0.00     0.019 A 
HETATM    5  C3  UNL     1      23.308  -0.862  53.599  1.00  0.00     0.006 C 
HETATM    6  C4  UNL     1      21.968  -1.340  54.035  1.00  0.00     0.282 C 
HETATM    7  N1  UNL     1      20.698  -1.222  54.080  1.00  0.00    -0.383 NA
HETATM    8  C5  UNL     1      19.950  -0.166  53.444  1.00  0.00     0.191 C 
HETATM    9  N2  UNL     1      19.818   0.592  52.421  1.00  0.00    -0.270 NA
HETATM   10  C6  UNL     1      20.747   0.479  51.293  1.00  0.00     0.263 C 
HETATM   11  N3  UNL     1      21.766   1.534  51.475  1.00  0.00    -0.210 NA
HETATM   12  C13 UNL     1      22.290   1.392  52.806  1.00  0.00     0.131 C 
ENDROOT
BRANCH   2  13
HETATM   13  N5  UNL     1      26.979   0.778  53.358  1.00  0.00    -0.393 N 
HETATM   14  C14 UNL     1      27.860  -0.287  53.813  1.00  0.00     0.144 C 
HETATM   15  C15 UNL     1      29.233   0.327  53.998  1.00  0.00     0.187 C 
HETATM   16  O3  UNL     1      29.091   1.560  54.596  1.00  0.00    -0.388 OA
HETATM   17  C16 UNL     1      28.540   2.517  53.748  1.00  0.00     0.187 C 
HETATM   18  C17 UNL     1      27.673   1.882  52.682  1.00  0.00     0.144 C 
ENDBRANCH   2  13
BRANCH  11  19
HETATM   19  N4  UNL     1      22.680   1.649  50.489  1.00  0.00    -0.318 N 
HETATM   20  H6  UNL     1      23.156   0.859  49.962  1.00  0.00     0.181 HD
BRANCH  19  21
HETATM   21  C7  UNL     1      23.203   2.882  49.943  1.00  0.00     0.044 A 
HETATM   22  C8  UNL     1      22.536   3.991  49.477  1.00  0.00     0.030 A 
HETATM   23  C9  UNL     1      23.195   5.094  48.995  1.00  0.00     0.004 A 
HETATM   24  C10 UNL     1      24.557   5.148  48.952  1.00  0.00     0.024 A 
HETATM   25  C11 UNL     1      25.255   4.047  49.415  1.00  0.00     0.036 A 
HETATM   26 CL1  UNL     1      26.997   4.187  49.330  1.00  0.00    -0.084 Cl
HETATM   27  C12 UNL     1      24.608   2.905  49.914  1.00  0.00     0.054 A 
ENDBRANCH  19  21
ENDBRANCH  11  19
TORSDOF 3
ENDMDL
MODEL 3
REMARK VINA RESULT:      -8.5      2.498      5.643
REMARK  3 active torsions:
REMARK  status: ('A' for Active; 'I' for Inactive)
REMARK    1  A    between atoms: C1_2  and  N5_21 
REMARK    2  A    between atoms: N3_11  and  N4_12 
REMARK    3  A    between atoms: N4_12  and  C7_13 
ROOT
HETATM    1  O1  UNL     1      24.416   0.339  53.392  1.00  0.00     0.000 OA
HETATM    2  C1  UNL     1      23.649  -0.630  53.421  1.00  0.00     0.119 A 
HETATM    3  O2  UNL     1      24.517   0.475  53.388  1.00  0.00     0.000 OA
HETATM    4  C2  UNL     1      25.901   0.359  53.502  1.00  0.00     0.019 A 
HETATM    5  C3  UNL     1      25.988  -0.178  54.683  1.00  0.00     0.006 C 
HETATM    6  C4  UNL     1      27.411  -0.374  55.068  1.00  0.00     0.282 C 
HETATM    7  N1  UNL     1      28.659  -0.195  54.869  1.00  0.00    -0.383 NA
HETATM    8  C5  UNL     1      29.214   0.564  53.776  1.00  0.00     0.191 C 
HETATM    9  N2  UNL     1      29.116   1.596  53.026  1.00  0.00    -0.270 NA
HETATM   10  C6  UNL     1      28.014   2.544  53.214  1.00  0.00     0.263 C 
HETATM   11  N3  UNL     1      26.976   2.190  52.223  1.00  0.00    -0.210 NA
HETATM   12  C13 UNL     1      26.703   0.788  52.380  1.00  0.00     0.131 C 
ENDROOT
BRANCH   2  13
HETATM   13  N5  UNL     1      22.231  -0.578  53.283  1.00  0.00    -0.393 N 
HETATM   14  C14 UNL     1      21.790  -0.120  51.975  1.00  0.00     0.144 C 
HETATM   15  C15 UNL     1      20.401   0.459  52.157  1.00  0.00     0.187 C 
HETATM   16  O3  UNL     1      20.378   1.203  53.317  1.00  0.00    -0.388 OA
HETATM   17  C16 UNL     1      20.439   0.421  54.467  1.00  0.00     0.187 C 
HETATM   18  C17 UNL     1      21.135  -0.898  54.207  1.00  0.00     0.144 C 
ENDBRANCH   2  13
BRANCH  11  19
HETATM   19  N4  UNL     1      25.898   3.001  52.181  1.00  0.00    -0.318 N 
HETATM   20  H6  UNL     1      25.397   3.443  53.006  1.00  0.00     0.181 HD
BRANCH  19  21
HETATM   21  C7  UNL     1      25.200   3.439  50.992  1.00  0.00     0.044 A 
HETATM   22  C8  UNL     1      25.459   4.504  50.161  1.00  0.00     0.030 A 
HETATM   23  C9  UNL     1      24.692   4.774  49.056  1.00  0.00     0.004 A 
HETATM   24  C10 UNL     1      23.624   3.994  48.721  1.00  0.00     0.024 A 
HETATM   25  C11 UNL     1      23.341   2.915  49.538  1.00  0.00     0.036 A 
HETATM   26 CL1  UNL     1      21.960   1.959  49.046  1.00  0.00    -0.084 Cl
HETATM   27  C12 UNL     1      24.108   2.613  50.674  1.00  0.00     0.054 A 
ENDBRANCH  19  21
ENDBRANCH  11  19
TORSDOF 3
ENDMDL
MODEL 4
REMARK VINA RESULT:      -8.4      3.036      7.170
REMARK  3 active torsions:
REMARK  status: ('A' for Active; 'I' for Inactive)
REMARK    1  A    between atoms: C1_2  and  N5_21 
REMARK    2  A    between atoms: N3_11  and  N4_12 
REMARK    3  A    between atoms: N4_12  and  C7_13 
ROOT
HETATM    1  O1  UNL     1      24.837   2.514  52.014  1.00  0.00     0.000 OA
HETATM    2  C1  UNL     1      24.553   3.697  51.791  1.00  0.00     0.119 A 
HETATM    3  O2  UNL     1      24.872   2.351  52.041  1.00  0.00     0.000 OA
HETATM    4  C2  UNL     1      25.945   1.958  52.840  1.00  0.00     0.019 A 
HETATM    5  C3  UNL     1      26.929   2.481  52.172  1.00  0.00     0.006 C 
HETATM    6  C4  UNL     1      28.230   2.162  52.817  1.00  0.00     0.282 C 
HETATM    7  N1  UNL     1      28.926   1.532  53.682  1.00  0.00    -0.383 NA
HETATM    8  C5  UNL     1      28.395   0.572  54.619  1.00  0.00     0.191 C 
HETATM    9  N2  UNL     1      27.574  -0.387  54.824  1.00  0.00    -0.270 NA
HETATM   10  C6  UNL     1      26.701  -0.858  53.744  1.00  0.00     0.263 C 
HETATM   11  N3  UNL     1      25.394  -0.196  53.935  1.00  0.00    -0.210 NA
HETATM   12  C13 UNL     1      25.646   1.215  54.042  1.00  0.00     0.131 C 
ENDROOT
BRANCH   2  13
HETATM   13  N5  UNL     1      23.457   4.159  51.006  1.00  0.00    -0.393 N 
HETATM   14  C14 UNL     1      22.586   5.087  51.710  1.00  0.00     0.144 C 
HETATM   15  C15 UNL     1      21.226   5.005  51.047  1.00  0.00     0.187 C 
HETATM   16  O3  UNL     1      20.941   3.684  50.781  1.00  0.00    -0.388 OA
HETATM   17  C16 UNL     1      21.716   3.155  49.752  1.00  0.00     0.187 C 
HETATM   18  C17 UNL     1      23.040   3.876  49.626  1.00  0.00     0.144 C 
ENDBRANCH   2  13
BRANCH  11  19
HETATM   19  N4  UNL     1      24.417  -0.559  53.078  1.00  0.00    -0.318 N 
HETATM   20  H6  UNL     1      24.530  -0.838  52.059  1.00  0.00     0.181 HD
BRANCH  19  21
HETATM   21  C7  UNL     1      23.004  -0.643  53.374  1.00  0.00     0.044 A 
HETATM   22  C8  UNL     1      22.366  -1.150  54.482  1.00  0.00     0.030 A 
HETATM   23  C9  UNL     1      20.999  -1.143  54.607  1.00  0.00     0.004 A 
HETATM   24  C10 UNL     1      20.196  -0.632  53.631  1.00  0.00     0.024 A 
HETATM   25  C11 UNL     1      20.811  -0.115  52.504  1.00  0.00     0.036 A 
HETATM   26 CL1  UNL     1      19.720   0.525  51.295  1.00  0.00    -0.084 Cl
HETATM   27  C12 UNL     1      22.206  -0.107  52.349  1.00  0.00     0.054 A 
ENDBRANCH  19  21
ENDBRANCH  11  19
TORSDOF 3
ENDMDL
MODEL 5
REMARK VINA RESULT:      -8.3      2.813      5.388
REMARK  3 active torsions:
REMARK  status: ('A' for Active; 'I' for Inactive)
REMARK    1  A    between atoms: C1_2  and  N5_21 
REMARK    2  A    between atoms: N3_11  and  N4_12 
REMARK    3  A    between atoms: N4_12  and  C7_13 
ROOT
HETATM    1  O1  UNL     1      25.355   2.387  51.951  1.00  0.00     0.000 OA
HETATM    2  C1  UNL     1      26.523   1.984  51.929  1.00  0.00     0.119 A 
HETATM    3  O2  UNL     1      25.195   2.441  51.959  1.00  0.00     0.000 OA
HETATM    4  C2  UNL     1      24.542   2.960  50.842  1.00  0.00     0.019 A 
HETATM    5  C3  UNL     1      25.306   3.980  50.587  1.00  0.00     0.006 C 
HETATM    6  C4  UNL     1      24.786   4.748  49.424  1.00  0.00     0.282 C 
HETATM    7  N1  UNL     1      23.881   4.990  48.557  1.00  0.00    -0.383 NA
HETATM    8  C5  UNL     1      22.620   4.296  48.474  1.00  0.00     0.191 C 
HETATM    9  N2  UNL     1      21.640   3.769  49.105  1.00  0.00    -0.270 NA
HETATM   10  C6  UNL     1      21.614   3.780  50.571  1.00  0.00     0.263 C 
HETATM   11  N3  UNL     1      22.120   2.465  51.015  1.00  0.00    -0.210 NA
HETATM   12  C13 UNL     1      23.380   2.252  50.358  1.00  0.00     0.131 C 
ENDROOT
BRANCH   2  13
HETATM   13  N5  UNL     1      27.233   1.420  53.029  1.00  0.00    -0.393 N 
HETATM   14  C14 UNL     1      28.268   2.291  53.563  1.00  0.00     0.144 C 
HETATM   15  C15 UNL     1      29.288   1.399  54.242  1.00  0.00     0.187 C 
HETATM   16  O3  UNL     1      29.502   0.290  53.454  1.00  0.00    -0.388 OA
HETATM   17  C16 UNL     1      28.421  -0.588  53.442  1.00  0.00     0.187 C 
HETATM   18  C17 UNL     1      27.118   0.130  53.723  1.00  0.00     0.144 C 
ENDBRANCH   2  13
BRANCH  11  19
HETATM   19  N4  UNL     1      22.102   2.244  52.346  1.00  0.00    -0.318 N 
HETATM   20  H6  UNL     1      22.254   2.960  53.116  1.00  0.00     0.181 HD
BRANCH  19  21
HETATM   21  C7  UNL     1      21.871   0.975  53.002  1.00  0.00     0.044 A 
HETATM   22  C8  UNL     1      22.748   0.165  53.684  1.00  0.00     0.030 A 
HETATM   23  C9  UNL     1      22.355  -1.017  54.261  1.00  0.00     0.004 A 
HETATM   24  C10 UNL     1      21.065  -1.453  54.186  1.00  0.00     0.024 A 
HETATM   25  C11 UNL     1      20.161  -0.657  53.506  1.00  0.00     0.036 A 
HETATM   26 CL1  UNL     1      18.526  -1.279  53.452  1.00  0.00    -0.084 Cl
HETATM   27  C12 UNL     1      20.533   0.556  52.907  1.00  0.00     0.054 A 
ENDBRANCH  19  21
ENDBRANCH  11  19
TORSDOF 3
ENDMDL
MODEL 6
REMARK VINA RESULT:      -8.0      1.998      5.544
REMARK  3 active torsions:
REMARK  status: ('A' for Active; 'I' for Inactive)
REMARK    1  A    between atoms: C1_2  and  N5_21 
REMARK    2  A    between atoms: N3_11  and  N4_12 
REMARK    3  A    between atoms: N4_12  and  C7_13 
ROOT
HETATM    1  O1  UNL     1      23.661   0.923  53.076  1.00  0.00     0.000 OA
HETATM    2  C1  UNL     1      22.701   0.144  53.101  1.00  0.00     0.119 A 
HETATM    3  O2  UNL     1      23.789   1.033  53.073  1.00  0.00     0.000 OA
HETATM    4  C2  UNL     1      25.114   0.619  53.195  1.00  0.00     0.019 A 
HETATM    5  C3  UNL     1      25.075   0.079  54.376  1.00  0.00     0.006 C 
HETATM    6  C4  UNL     1      26.419  -0.422  54.770  1.00  0.00     0.282 C 
HETATM    7  N1  UNL     1      27.677  -0.521  54.578  1.00  0.00    -0.383 NA
HETATM    8  C5  UNL     1      28.390   0.097  53.488  1.00  0.00     0.191 C 
HETATM    9  N2  UNL     1      28.524   1.125  52.737  1.00  0.00    -0.270 NA
HETATM   10  C6  UNL     1      27.654   2.291  52.918  1.00  0.00     0.263 C 
HETATM   11  N3  UNL     1      26.569   2.170  51.921  1.00  0.00    -0.210 NA
HETATM   12  C13 UNL     1      25.996   0.861  52.077  1.00  0.00     0.131 C 
ENDROOT
BRANCH   2  13
HETATM   13  N5  UNL     1      21.329   0.504  52.955  1.00  0.00    -0.393 N 
HETATM   14  C14 UNL     1      20.407  -0.481  53.497  1.00  0.00     0.144 C 
HETATM   15  C15 UNL     1      19.092  -0.303  52.765  1.00  0.00     0.187 C 
HETATM   16  O3  UNL     1      19.353  -0.100  51.427  1.00  0.00    -0.388 OA
HETATM   17  C16 UNL     1      19.917   1.146  51.164  1.00  0.00     0.187 C 
HETATM   18  C17 UNL     1      20.673   1.678  52.363  1.00  0.00     0.144 C 
ENDBRANCH   2  13
BRANCH  11  19
HETATM   19  N4  UNL     1      25.694   3.196  51.872  1.00  0.00    -0.318 N 
HETATM   20  H6  UNL     1      25.461   3.877  52.654  1.00  0.00     0.181 HD
BRANCH  19  21
HETATM   21  C7  UNL     1      24.889   3.583  50.734  1.00  0.00     0.044 A 
HETATM   22  C8  UNL     1      23.789   2.967  50.185  1.00  0.00     0.030 A 
HETATM   23  C9  UNL     1      23.130   3.481  49.096  1.00  0.00     0.004 A 
HETATM   24  C10 UNL     1      23.535   4.638  48.497  1.00  0.00     0.024 A 
HETATM   25  C11 UNL     1      24.640   5.279  49.030  1.00  0.00     0.036 A 
HETATM   26 CL1  UNL     1      25.101   6.756  48.212  1.00  0.00    -0.084 Cl
HETATM   27  C12 UNL     1      25.333   4.778  50.142  1.00  0.00     0.054 A 
ENDBRANCH  19  21
ENDBRANCH  11  19
TORSDOF 3
ENDMDL
MODEL 7
REMARK VINA RESULT:      -7.8      3.062      5.051
REMARK  3 active torsions:
REMARK  status: ('A' for Active; 'I' for Inactive)
REMARK    1  A    between atoms: C1_2  and  N5_21 
REMARK    2  A    between atoms: N3_11  and  N4_12 
REMARK    3  A    between atoms: N4_12  and  C7_13 
ROOT
HETATM    1  O1  UNL     1      24.856   2.136  51.747  1.00  0.00     0.000 OA
HETATM    2  C1  UNL     1      26.060   2.203  52.021  1.00  0.00     0.119 A 
HETATM    3  O2  UNL     1      24.691   2.122  51.712  1.00  0.00     0.000 OA
HETATM    4  C2  UNL     1      23.959   3.197  51.210  1.00  0.00     0.019 A 
HETATM    5  C3  UNL     1      24.095   4.041  52.188  1.00  0.00     0.006 C 
HETATM    6  C4  UNL     1      23.350   5.297  51.907  1.00  0.00     0.282 C 
HETATM    7  N1  UNL     1      22.528   5.978  51.206  1.00  0.00    -0.383 NA
HETATM    8  C5  UNL     1      21.828   5.477  50.049  1.00  0.00     0.191 C 
HETATM    9  N2  UNL     1      21.219   4.492  49.505  1.00  0.00    -0.270 NA
HETATM   10  C6  UNL     1      21.069   3.226  50.227  1.00  0.00     0.263 C 
HETATM   11  N3  UNL     1      22.149   2.335  49.752  1.00  0.00    -0.210 NA
HETATM   12  C13 UNL     1      23.384   3.057  49.892  1.00  0.00     0.131 C 
ENDROOT
BRANCH   2  13
HETATM   13  N5  UNL     1      26.865   1.134  52.510  1.00  0.00    -0.393 N 
HETATM   14  C14 UNL     1      26.581  -0.146  51.880  1.00  0.00     0.144 C 
HETATM   15  C15 UNL     1      27.009  -1.223  52.857  1.00  0.00     0.187 C 
HETATM   16  O3  UNL     1      26.622  -0.850  54.126  1.00  0.00    -0.388 OA
HETATM   17  C16 UNL     1      27.367   0.211  54.634  1.00  0.00     0.187 C 
HETATM   18  C17 UNL     1      27.925   1.079  53.526  1.00  0.00     0.144 C 
ENDBRANCH   2  13
BRANCH  11  19
HETATM   19  N4  UNL     1      22.139   1.080  50.246  1.00  0.00    -0.318 N 
HETATM   20  H6  UNL     1      22.787   0.281  49.978  1.00  0.00     0.181 HD
BRANCH  19  21
HETATM   21  C7  UNL     1      21.236   0.559  51.250  1.00  0.00     0.044 A 
HETATM   22  C8  UNL     1      19.877   0.357  51.191  1.00  0.00     0.030 A 
HETATM   23  C9  UNL     1      19.168  -0.161  52.246  1.00  0.00     0.004 A 
HETATM   24  C10 UNL     1      19.778  -0.503  53.417  1.00  0.00     0.024 A 
HETATM   25  C11 UNL     1      21.146  -0.310  53.504  1.00  0.00     0.036 A 
HETATM   26 CL1  UNL     1      21.860  -0.771  55.033  1.00  0.00    -0.084 Cl
HETATM   27  C12 UNL     1      21.898   0.217  52.442  1.00  0.00     0.054 A 
ENDBRANCH  19  21
ENDBRANCH  11  19
TORSDOF 3
ENDMDL
MODEL 8
REMARK VINA RESULT:      -7.8      2.800      5.786
REMARK  3 active torsions:
REMARK  status: ('A' for Active; 'I' for Inactive)
REMARK    1  A    between atoms: C1_2  and  N5_21 
REMARK    2  A    between atoms: N3_11  and  N4_12 
REMARK    3  A    between atoms: N4_12  and  C7_13 
ROOT
HETATM    1  O1  UNL     1      23.286   3.565  51.537  1.00  0.00     0.000 OA
HETATM    2  C1  UNL     1      23.391   4.391  50.624  1.00  0.00     0.119 A 
HETATM    3  O2  UNL     1      23.276   3.454  51.665  1.00  0.00     0.000 OA
HETATM    4  C2  UNL     1      22.228   2.539  51.754  1.00  0.00     0.019 A 
HETATM    5  C3  UNL     1      21.221   3.355  51.842  1.00  0.00     0.006 C 
HETATM    6  C4  UNL     1      19.946   2.603  51.990  1.00  0.00     0.282 C 
HETATM    7  N1  UNL     1      19.303   1.517  52.177  1.00  0.00    -0.383 NA
HETATM    8  C5  UNL     1      19.916   0.229  52.388  1.00  0.00     0.191 C 
HETATM    9  N2  UNL     1      20.864  -0.433  52.936  1.00  0.00    -0.270 NA
HETATM   10  C6  UNL     1      21.873   0.254  53.747  1.00  0.00     0.263 C 
HETATM   11  N3  UNL     1      23.041   0.481  52.871  1.00  0.00    -0.210 NA
HETATM   12  C13 UNL     1      22.559   1.135  51.685  1.00  0.00     0.131 C 
ENDROOT
BRANCH   2  13
HETATM   13  N5  UNL     1      24.451   5.331  50.466  1.00  0.00    -0.393 N 
HETATM   14  C14 UNL     1      24.219   6.591  51.155  1.00  0.00     0.144 C 
HETATM   15  C15 UNL     1      25.043   7.642  50.438  1.00  0.00     0.187 C 
HETATM   16  O3  UNL     1      24.935   7.440  49.079  1.00  0.00    -0.388 OA
HETATM   17  C16 UNL     1      25.609   6.303  48.642  1.00  0.00     0.187 C 
HETATM   18  C17 UNL     1      25.728   5.269  49.742  1.00  0.00     0.144 C 
ENDBRANCH   2  13
BRANCH  11  19
HETATM   19  N4  UNL     1      24.120   1.040  53.457  1.00  0.00    -0.318 N 
HETATM   20  H6  UNL     1      24.136   1.901  54.080  1.00  0.00     0.181 HD
BRANCH  19  21
HETATM   21  C7  UNL     1      25.487   0.577  53.357  1.00  0.00     0.044 A 
HETATM   22  C8  UNL     1      25.973  -0.673  53.054  1.00  0.00     0.030 A 
HETATM   23  C9  UNL     1      27.317  -0.942  52.992  1.00  0.00     0.004 A 
HETATM   24  C10 UNL     1      28.249   0.026  53.230  1.00  0.00     0.024 A 
HETATM   25  C11 UNL     1      27.789   1.294  53.536  1.00  0.00     0.036 A 
HETATM   26 CL1  UNL     1      29.040   2.483  53.828  1.00  0.00    -0.084 Cl
HETATM   27  C12 UNL     1      26.420   1.598  53.606  1.00  0.00     0.054 A 
ENDBRANCH  19  21
ENDBRANCH  11  19
TORSDOF 3
ENDMDL
MODEL 9
REMARK VINA RESULT:      -7.8      6.732     10.532
REMARK  3 active torsions:
REMARK  status: ('A' for Active; 'I' for Inactive)
REMARK    1  A    between atoms: C1_2  and  N5_21 
REMARK    2  A    between atoms: N3_11  and  N4_12 
REMARK    3  A    between atoms: N4_12  and  C7_13 
ROOT
HETATM    1  O1  UNL     1      30.660   8.782  47.831  1.00  0.00     0.000 OA
HETATM    2  C1  UNL     1      30.833   9.964  48.147  1.00  0.00     0.119 A 
HETATM    3  O2  UNL     1      30.632   8.621  47.785  1.00  0.00     0.000 OA
HETATM    4  C2  UNL     1      31.594   7.630  47.973  1.00  0.00     0.019 A 
HETATM    5  C3  UNL     1      32.553   8.101  47.233  1.00  0.00     0.006 C 
HETATM    6  C4  UNL     1      33.719   7.178  47.234  1.00  0.00     0.282 C 
HETATM    7  N1  UNL     1      34.261   6.059  47.526  1.00  0.00    -0.383 NA
HETATM    8  C5  UNL     1      33.587   4.971  48.190  1.00  0.00     0.191 C 
HETATM    9  N2  UNL     1      32.509   4.293  48.318  1.00  0.00    -0.270 NA
HETATM   10  C6  UNL     1      31.328   4.623  47.515  1.00  0.00     0.263 C 
HETATM   11  N3  UNL     1      30.458   5.462  48.365  1.00  0.00    -0.210 NA
HETATM   12  C13 UNL     1      31.266   6.541  48.864  1.00  0.00     0.131 C 
ENDROOT
BRANCH   2  13
HETATM   13  N5  UNL     1      29.880  11.015  48.005  1.00  0.00    -0.393 N 
HETATM   14  C14 UNL     1      30.123  12.146  48.886  1.00  0.00     0.144 C 
HETATM   15  C15 UNL     1      28.793  12.846  49.082  1.00  0.00     0.187 C 
HETATM   16  O3  UNL     1      27.812  11.894  49.252  1.00  0.00    -0.388 OA
HETATM   17  C16 UNL     1      27.519  11.197  48.083  1.00  0.00     0.187 C 
HETATM   18  C17 UNL     1      28.703  11.171  47.140  1.00  0.00     0.144 C 
ENDBRANCH   2  13
BRANCH  11  19
HETATM   19  N4  UNL     1      29.270   5.812  47.829  1.00  0.00    -0.318 N 
HETATM   20  H6  UNL     1      29.098   6.221  46.864  1.00  0.00     0.181 HD
BRANCH  19  21
HETATM   21  C7  UNL     1      27.976   5.700  48.466  1.00  0.00     0.044 A 
HETATM   22  C8  UNL     1      27.280   4.580  48.856  1.00  0.00     0.030 A 
HETATM   23  C9  UNL     1      26.052   4.654  49.464  1.00  0.00     0.004 A 
HETATM   24  C10 UNL     1      25.451   5.853  49.713  1.00  0.00     0.024 A 
HETATM   25  C11 UNL     1      26.128   6.998  49.331  1.00  0.00     0.036 A 
HETATM   26 CL1  UNL     1      25.298   8.498  49.683  1.00  0.00    -0.084 Cl
HETATM   27  C12 UNL     1      27.386   6.953  48.710  1.00  0.00     0.054 A 
ENDBRANCH  19  21
ENDBRANCH  11  19
TORSDOF 3
ENDMDL
