MODEL 1
REMARK VINA RESULT:      -8.1      0.000      0.000
REMARK  6 active torsions:
REMARK  status: ('A' for Active; 'I' for Inactive)
REMARK    1  A    between atoms: C3_4  and  C4_5 
REMARK    2  A    between atoms: C4_5  and  N1_6 
REMARK    3  A    between atoms: C4_5  and  C5_7 
REMARK    4  A    between atoms: C5_7  and  C6_8 
REMARK    5  A    between atoms: C11_14  and  C12_15 
REMARK    6  A    between atoms: C13_16  and  C14_17 
ROOT
HETATM    1  C6  UNL     1      25.531   0.618  52.375  1.00  0.00    -0.055 A 
HETATM    2  C7  UNL     1      24.298   1.156  52.764  1.00  0.00     0.009 A 
HETATM    3  C8  UNL     1      23.903   2.360  52.261  1.00  0.00     0.033 A 
HETATM    4  C9  UNL     1      24.688   3.053  51.382  1.00  0.00     0.066 A 
HETATM    5  N2  UNL     1      24.293   4.243  50.888  1.00  0.00    -0.260 NA
HETATM    6  C10 UNL     1      25.038   4.951  50.023  1.00  0.00     0.128 A 
HETATM    7  C11 UNL     1      26.273   4.512  49.573  1.00  0.00    -0.018 A 
HETATM    8  C15 UNL     1      26.638   3.293  50.103  1.00  0.00     0.026 A 
HETATM    9  C16 UNL     1      25.904   2.536  50.991  1.00  0.00    -0.006 A 
HETATM   10  C17 UNL     1      26.332   1.331  51.475  1.00  0.00     0.021 A 
ENDROOT
BRANCH   1  11
HETATM   11  C5  UNL     1      25.997  -0.680  52.894  1.00  0.00     0.077 C 
BRANCH  11  12
HETATM   12  C4  UNL     1      26.598  -0.614  54.267  1.00  0.00     0.246 C 
BRANCH  12  13
HETATM   13  C3  UNL     1      27.373   0.635  54.491  1.00  0.00     0.027 C 
HETATM   14  C2  UNL     1      28.674   0.844  54.313  1.00  0.00     0.006 C 
HETATM   15  C1  UNL     1      29.557   2.029  54.499  1.00  0.00     0.061 C 
HETATM   16 CL1  UNL     1      29.513  -0.607  53.736  1.00  0.00    -0.090 Cl
ENDBRANCH  12  13
BRANCH  12  17
HETATM   17  N1  UNL     1      25.660  -0.901  55.320  1.00  0.00     0.086 N 
HETATM   18  H6  UNL     1      26.022  -0.712  56.271  1.00  0.00     0.313 HD
HETATM   19  H7  UNL     1      24.799  -0.371  55.109  1.00  0.00     0.313 HD
ENDBRANCH  12  17
ENDBRANCH  11  12
ENDBRANCH   1  11
BRANCH   7  20
HETATM   20  C12 UNL     1      27.053   5.293  48.643  1.00  0.00     0.017 C 
HETATM   21  C13 UNL     1      27.322   6.558  48.583  1.00  0.00     0.069 C 
BRANCH  21  22
HETATM   22  C14 UNL     1      27.073   7.812  49.274  1.00  0.00     0.303 A 
HETATM   23  N3  UNL     1      26.727   8.284  50.555  1.00  0.00     0.101 N 
HETATM   24  H15 UNL     1      26.525   7.720  51.434  1.00  0.00     0.325 HD
HETATM   25  H16 UNL     1      26.524   7.733  51.435  1.00  0.00     0.325 HD
HETATM   26  O1  UNL     1      26.988   9.064  49.306  1.00  0.00    -0.127 OA
ENDBRANCH  21  22
ENDBRANCH   7  20
TORSDOF 6
ENDMDL
MODEL 2
REMARK VINA RESULT:      -7.9      3.225      6.784
REMARK  6 active torsions:
REMARK  status: ('A' for Active; 'I' for Inactive)
REMARK    1  A    between atoms: C3_4  and  C4_5 
REMARK    2  A    between atoms: C4_5  and  N1_6 
REMARK    3  A    between atoms: C4_5  and  C5_7 
REMARK    4  A    between atoms: C5_7  and  C6_8 
REMARK    5  A    between atoms: C11_14  and  C12_15 
REMARK    6  A    between atoms: C13_16  and  C14_17 
ROOT
HETATM    1  C6  UNL     1      25.003   4.718  49.579  1.00  0.00    -0.055 A 
HETATM    2  C7  UNL     1      23.658   4.397  49.803  1.00  0.00     0.009 A 
HETATM    3  C8  UNL     1      23.345   3.279  50.517  1.00  0.00     0.033 A 
HETATM    4  C9  UNL     1      24.321   2.464  51.020  1.00  0.00     0.066 A 
HETATM    5  N2  UNL     1      24.006   1.359  51.726  1.00  0.00    -0.260 NA
HETATM    6  C10 UNL     1      24.937   0.536  52.235  1.00  0.00     0.128 A 
HETATM    7  C11 UNL     1      26.296   0.759  52.073  1.00  0.00    -0.018 A 
HETATM    8  C15 UNL     1      26.572   1.898  51.346  1.00  0.00     0.026 A 
HETATM    9  C16 UNL     1      25.648   2.767  50.808  1.00  0.00    -0.006 A 
HETATM   10  C17 UNL     1      25.998   3.881  50.096  1.00  0.00     0.021 A 
ENDROOT
BRANCH   1  11
HETATM   11  C5  UNL     1      25.385   5.917  48.813  1.00  0.00     0.077 C 
BRANCH  11  12
HETATM   12  C4  UNL     1      26.560   6.659  49.376  1.00  0.00     0.246 C 
BRANCH  12  13
HETATM   13  C3  UNL     1      27.326   7.394  48.334  1.00  0.00     0.027 C 
HETATM   14  C2  UNL     1      28.427   7.013  47.694  1.00  0.00     0.006 C 
HETATM   15  C1  UNL     1      29.275   7.646  46.647  1.00  0.00     0.061 C 
HETATM   16 CL1  UNL     1      28.985   5.413  48.217  1.00  0.00    -0.090 Cl
ENDBRANCH  12  13
BRANCH  12  17
HETATM   17  N1  UNL     1      26.235   7.468  50.522  1.00  0.00     0.086 N 
HETATM   18  H6  UNL     1      26.298   6.965  51.425  1.00  0.00     0.313 HD
HETATM   19  H7  UNL     1      26.844   8.301  50.486  1.00  0.00     0.313 HD
ENDBRANCH  12  17
ENDBRANCH  11  12
ENDBRANCH   1  11
BRANCH   7  20
HETATM   20  C12 UNL     1      27.275  -0.142  52.631  1.00  0.00     0.017 C 
HETATM   21  C13 UNL     1      28.249   0.041  53.464  1.00  0.00     0.069 C 
BRANCH  21  22
HETATM   22  C14 UNL     1      28.897   1.076  54.253  1.00  0.00     0.303 A 
HETATM   23  N3  UNL     1      29.636   2.260  54.075  1.00  0.00     0.101 N 
HETATM   24  H15 UNL     1      29.942   2.717  53.164  1.00  0.00     0.325 HD
HETATM   25  H16 UNL     1      29.946   2.724  53.175  1.00  0.00     0.325 HD
HETATM   26  O1  UNL     1      29.223   1.595  55.349  1.00  0.00    -0.127 OA
ENDBRANCH  21  22
ENDBRANCH   7  20
TORSDOF 6
ENDMDL
MODEL 3
REMARK VINA RESULT:      -7.8      3.662      5.165
REMARK  6 active torsions:
REMARK  status: ('A' for Active; 'I' for Inactive)
REMARK    1  A    between atoms: C3_4  and  C4_5 
REMARK    2  A    between atoms: C4_5  and  N1_6 
REMARK    3  A    between atoms: C4_5  and  C5_7 
REMARK    4  A    between atoms: C5_7  and  C6_8 
REMARK    5  A    between atoms: C11_14  and  C12_15 
REMARK    6  A    between atoms: C13_16  and  C14_17 
ROOT
HETATM    1  C6  UNL     1      23.464  -0.121  53.112  1.00  0.00    -0.055 A 
HETATM    2  C7  UNL     1      24.758  -0.553  53.429  1.00  0.00     0.009 A 
HETATM    3  C8  UNL     1      25.832   0.104  52.904  1.00  0.00     0.033 A 
HETATM    4  C9  UNL     1      25.669   1.179  52.075  1.00  0.00     0.066 A 
HETATM    5  N2  UNL     1      26.733   1.825  51.560  1.00  0.00    -0.260 NA
HETATM    6  C10 UNL     1      26.611   2.884  50.742  1.00  0.00     0.128 A 
HETATM    7  C11 UNL     1      25.379   3.394  50.364  1.00  0.00    -0.018 A 
HETATM    8  C15 UNL     1      24.319   2.704  50.914  1.00  0.00     0.026 A 
HETATM    9  C16 UNL     1      24.401   1.615  51.755  1.00  0.00    -0.006 A 
HETATM   10  C17 UNL     1      23.302   0.980  52.263  1.00  0.00     0.021 A 
ENDROOT
BRANCH   1  11
HETATM   11  C5  UNL     1      22.276  -0.802  53.656  1.00  0.00     0.077 C 
BRANCH  11  12
HETATM   12  C4  UNL     1      21.067   0.076  53.785  1.00  0.00     0.246 C 
BRANCH  12  13
HETATM   13  C3  UNL     1      19.966  -0.329  52.872  1.00  0.00     0.027 C 
HETATM   14  C2  UNL     1      19.267   0.428  52.032  1.00  0.00     0.006 C 
HETATM   15  C1  UNL     1      18.158   0.147  51.079  1.00  0.00     0.061 C 
HETATM   16 CL1  UNL     1      19.780   2.125  52.076  1.00  0.00    -0.090 Cl
ENDBRANCH  12  13
BRANCH  12  17
HETATM   17  N1  UNL     1      20.639   0.269  55.146  1.00  0.00     0.086 N 
HETATM   18  H6  UNL     1      20.306  -0.594  55.610  1.00  0.00     0.313 HD
HETATM   19  H7  UNL     1      21.424   0.714  55.648  1.00  0.00     0.313 HD
ENDBRANCH  12  17
ENDBRANCH  11  12
ENDBRANCH   1  11
BRANCH   7  20
HETATM   20  C12 UNL     1      25.276   4.532  49.485  1.00  0.00     0.017 C 
HETATM   21  C13 UNL     1      26.170   5.233  48.863  1.00  0.00     0.069 C 
BRANCH  21  22
HETATM   22  C14 UNL     1      27.606   5.333  48.662  1.00  0.00     0.303 A 
HETATM   23  N3  UNL     1      28.656   6.252  48.847  1.00  0.00     0.101 N 
HETATM   24  H15 UNL     1      28.606   7.246  49.222  1.00  0.00     0.325 HD
HETATM   25  H16 UNL     1      28.619   7.242  49.219  1.00  0.00     0.325 HD
HETATM   26  O1  UNL     1      28.711   4.863  48.295  1.00  0.00    -0.127 OA
ENDBRANCH  21  22
ENDBRANCH   7  20
TORSDOF 6
ENDMDL
MODEL 4
REMARK VINA RESULT:      -7.8      4.062      6.265
REMARK  6 active torsions:
REMARK  status: ('A' for Active; 'I' for Inactive)
REMARK    1  A    between atoms: C3_4  and  C4_5 
REMARK    2  A    between atoms: C4_5  and  N1_6 
REMARK    3  A    between atoms: C4_5  and  C5_7 
REMARK    4  A    between atoms: C5_7  and  C6_8 
REMARK    5  A    between atoms: C11_14  and  C12_15 
REMARK    6  A    between atoms: C13_16  and  C14_17 
ROOT
HETATM    1  C6  UNL     1      25.678   2.390  51.094  1.00  0.00    -0.055 A 
HETATM    2  C7  UNL     1      25.421   3.211  49.988  1.00  0.00     0.009 A 
HETATM    3  C8  UNL     1      24.160   3.266  49.472  1.00  0.00     0.033 A 
HETATM    4  C9  UNL     1      23.140   2.535  50.015  1.00  0.00     0.066 A 
HETATM    5  N2  UNL     1      21.895   2.594  49.502  1.00  0.00    -0.260 NA
HETATM    6  C10 UNL     1      20.869   1.890  50.009  1.00  0.00     0.128 A 
HETATM    7  C11 UNL     1      21.012   1.048  51.100  1.00  0.00    -0.018 A 
HETATM    8  C15 UNL     1      22.300   1.019  51.593  1.00  0.00     0.026 A 
HETATM    9  C16 UNL     1      23.378   1.724  51.103  1.00  0.00    -0.006 A 
HETATM   10  C17 UNL     1      24.630   1.644  51.647  1.00  0.00     0.021 A 
ENDROOT
BRANCH   1  11
HETATM   11  C5  UNL     1      27.026   2.300  51.683  1.00  0.00     0.077 C 
BRANCH  11  12
HETATM   12  C4  UNL     1      27.058   1.701  53.057  1.00  0.00     0.246 C 
BRANCH  12  13
HETATM   13  C3  UNL     1      28.204   0.772  53.248  1.00  0.00     0.027 C 
HETATM   14  C2  UNL     1      28.216  -0.555  53.166  1.00  0.00     0.006 C 
HETATM   15  C1  UNL     1      29.279  -1.583  53.333  1.00  0.00     0.061 C 
HETATM   16 CL1  UNL     1      26.616  -1.215  52.779  1.00  0.00    -0.090 Cl
ENDBRANCH  12  13
BRANCH  12  17
HETATM   17  N1  UNL     1      26.928   2.673  54.111  1.00  0.00     0.086 N 
HETATM   18  H6  UNL     1      27.706   3.356  54.154  1.00  0.00     0.313 HD
HETATM   19  H7  UNL     1      26.007   3.124  53.993  1.00  0.00     0.313 HD
ENDBRANCH  12  17
ENDBRANCH  11  12
ENDBRANCH   1  11
BRANCH   7  20
HETATM   20  C12 UNL     1      19.893   0.304  51.625  1.00  0.00     0.017 C 
HETATM   21  C13 UNL     1      19.739  -0.384  52.711  1.00  0.00     0.069 C 
BRANCH  21  22
HETATM   22  C14 UNL     1      20.449  -0.797  53.911  1.00  0.00     0.303 A 
HETATM   23  N3  UNL     1      21.086  -0.231  55.031  1.00  0.00     0.101 N 
HETATM   24  H15 UNL     1      21.217   0.798  55.267  1.00  0.00     0.325 HD
HETATM   25  H16 UNL     1      21.223   0.790  55.276  1.00  0.00     0.325 HD
HETATM   26  O1  UNL     1      20.918  -1.674  54.676  1.00  0.00    -0.127 OA
ENDBRANCH  21  22
ENDBRANCH   7  20
TORSDOF 6
ENDMDL
MODEL 5
REMARK VINA RESULT:      -7.8      3.685      5.240
REMARK  6 active torsions:
REMARK  status: ('A' for Active; 'I' for Inactive)
REMARK    1  A    between atoms: C3_4  and  C4_5 
REMARK    2  A    between atoms: C4_5  and  N1_6 
REMARK    3  A    between atoms: C4_5  and  C5_7 
REMARK    4  A    between atoms: C5_7  and  C6_8 
REMARK    5  A    between atoms: C11_14  and  C12_15 
REMARK    6  A    between atoms: C13_16  and  C14_17 
ROOT
HETATM    1  C6  UNL     1      23.317  -0.138  53.030  1.00  0.00    -0.055 A 
HETATM    2  C7  UNL     1      24.603  -0.553  53.398  1.00  0.00     0.009 A 
HETATM    3  C8  UNL     1      25.688   0.109  52.905  1.00  0.00     0.033 A 
HETATM    4  C9  UNL     1      25.544   1.172  52.057  1.00  0.00     0.066 A 
HETATM    5  N2  UNL     1      26.620   1.823  51.572  1.00  0.00    -0.260 NA
HETATM    6  C10 UNL     1      26.517   2.870  50.738  1.00  0.00     0.128 A 
HETATM    7  C11 UNL     1      25.294   3.363  50.310  1.00  0.00    -0.018 A 
HETATM    8  C15 UNL     1      24.222   2.668  50.829  1.00  0.00     0.026 A 
HETATM    9  C16 UNL     1      24.285   1.591  51.686  1.00  0.00    -0.006 A 
HETATM   10  C17 UNL     1      23.174   0.950  52.162  1.00  0.00     0.021 A 
ENDROOT
BRANCH   1  11
HETATM   11  C5  UNL     1      22.116  -0.826  53.540  1.00  0.00     0.077 C 
BRANCH  11  12
HETATM   12  C4  UNL     1      20.933   0.073  53.744  1.00  0.00     0.246 C 
BRANCH  12  13
HETATM   13  C3  UNL     1      19.734  -0.383  52.991  1.00  0.00     0.027 C 
HETATM   14  C2  UNL     1      19.053   0.264  52.050  1.00  0.00     0.006 C 
HETATM   15  C1  UNL     1      17.855  -0.077  51.234  1.00  0.00     0.061 C 
HETATM   16 CL1  UNL     1      19.731   1.868  51.717  1.00  0.00    -0.090 Cl
ENDBRANCH  12  13
BRANCH  12  17
HETATM   17  N1  UNL     1      20.663   0.363  55.128  1.00  0.00     0.086 N 
HETATM   18  H6  UNL     1      19.659   0.319  55.380  1.00  0.00     0.313 HD
HETATM   19  H7  UNL     1      21.243  -0.281  55.689  1.00  0.00     0.313 HD
ENDBRANCH  12  17
ENDBRANCH  11  12
ENDBRANCH   1  11
BRANCH   7  20
HETATM   20  C12 UNL     1      25.211   4.489  49.413  1.00  0.00     0.017 C 
HETATM   21  C13 UNL     1      24.893   5.730  49.603  1.00  0.00     0.069 C 
BRANCH  21  22
HETATM   22  C14 UNL     1      24.481   6.656  50.646  1.00  0.00     0.303 A 
HETATM   23  N3  UNL     1      24.329   6.701  52.044  1.00  0.00     0.101 N 
HETATM   24  H15 UNL     1      24.497   5.925  52.753  1.00  0.00     0.325 HD
HETATM   25  H16 UNL     1      24.493   5.937  52.758  1.00  0.00     0.325 HD
HETATM   26  O1  UNL     1      24.069   7.775  51.037  1.00  0.00    -0.127 OA
ENDBRANCH  21  22
ENDBRANCH   7  20
TORSDOF 6
ENDMDL
MODEL 6
REMARK VINA RESULT:      -7.8      2.942      3.954
REMARK  6 active torsions:
REMARK  status: ('A' for Active; 'I' for Inactive)
REMARK    1  A    between atoms: C3_4  and  C4_5 
REMARK    2  A    between atoms: C4_5  and  N1_6 
REMARK    3  A    between atoms: C4_5  and  C5_7 
REMARK    4  A    between atoms: C5_7  and  C6_8 
REMARK    5  A    between atoms: C11_14  and  C12_15 
REMARK    6  A    between atoms: C13_16  and  C14_17 
ROOT
HETATM    1  C6  UNL     1      23.920  -0.244  53.762  1.00  0.00    -0.055 A 
HETATM    2  C7  UNL     1      22.722  -0.863  54.142  1.00  0.00     0.009 A 
HETATM    3  C8  UNL     1      21.535  -0.253  53.865  1.00  0.00     0.033 A 
HETATM    4  C9  UNL     1      21.491   0.953  53.221  1.00  0.00     0.066 A 
HETATM    5  N2  UNL     1      20.315   1.551  52.949  1.00  0.00    -0.260 NA
HETATM    6  C10 UNL     1      20.233   2.735  52.319  1.00  0.00     0.128 A 
HETATM    7  C11 UNL     1      21.355   3.433  51.899  1.00  0.00    -0.018 A 
HETATM    8  C15 UNL     1      22.535   2.785  52.197  1.00  0.00     0.026 A 
HETATM    9  C16 UNL     1      22.661   1.573  52.841  1.00  0.00    -0.006 A 
HETATM   10  C17 UNL     1      23.870   0.989  53.103  1.00  0.00     0.021 A 
ENDROOT
BRANCH   1  11
HETATM   11  C5  UNL     1      25.225  -0.869  54.042  1.00  0.00     0.077 C 
BRANCH  11  12
HETATM   12  C4  UNL     1      26.296  -0.528  53.048  1.00  0.00     0.246 C 
BRANCH  12  13
HETATM   13  C3  UNL     1      27.346   0.356  53.622  1.00  0.00     0.027 C 
HETATM   14  C2  UNL     1      27.780   1.528  53.166  1.00  0.00     0.006 C 
HETATM   15  C1  UNL     1      28.808   2.495  53.640  1.00  0.00     0.061 C 
HETATM   16 CL1  UNL     1      26.945   2.019  51.681  1.00  0.00    -0.090 Cl
ENDBRANCH  12  13
BRANCH  12  17
HETATM   17  N1  UNL     1      26.828  -1.675  52.360  1.00  0.00     0.086 N 
HETATM   18  H6  UNL     1      27.849  -1.631  52.193  1.00  0.00     0.313 HD
HETATM   19  H7  UNL     1      26.548  -2.508  52.902  1.00  0.00     0.313 HD
ENDBRANCH  12  17
ENDBRANCH  11  12
ENDBRANCH   1  11
BRANCH   7  20
HETATM   20  C12 UNL     1      21.239   4.702  51.224  1.00  0.00     0.017 C 
HETATM   21  C13 UNL     1      22.086   5.660  51.023  1.00  0.00     0.069 C 
BRANCH  21  22
HETATM   22  C14 UNL     1      23.465   6.039  51.287  1.00  0.00     0.303 A 
HETATM   23  N3  UNL     1      24.275   6.474  52.352  1.00  0.00     0.101 N 
HETATM   24  H15 UNL     1      23.994   6.665  53.361  1.00  0.00     0.325 HD
HETATM   25  H16 UNL     1      24.007   6.668  53.358  1.00  0.00     0.325 HD
HETATM   26  O1  UNL     1      24.652   6.228  50.926  1.00  0.00    -0.127 OA
ENDBRANCH  21  22
ENDBRANCH   7  20
TORSDOF 6
ENDMDL
MODEL 7
REMARK VINA RESULT:      -7.7      3.299      6.767
REMARK  6 active torsions:
REMARK  status: ('A' for Active; 'I' for Inactive)
REMARK    1  A    between atoms: C3_4  and  C4_5 
REMARK    2  A    between atoms: C4_5  and  N1_6 
REMARK    3  A    between atoms: C4_5  and  C5_7 
REMARK    4  A    between atoms: C5_7  and  C6_8 
REMARK    5  A    between atoms: C11_14  and  C12_15 
REMARK    6  A    between atoms: C13_16  and  C14_17 
ROOT
HETATM    1  C6  UNL     1      23.352   3.871  51.085  1.00  0.00    -0.055 A 
HETATM    2  C7  UNL     1      22.156   3.415  51.654  1.00  0.00     0.009 A 
HETATM    3  C8  UNL     1      22.144   2.232  52.331  1.00  0.00     0.033 A 
HETATM    4  C9  UNL     1      23.279   1.482  52.467  1.00  0.00     0.066 A 
HETATM    5  N2  UNL     1      23.262   0.313  53.138  1.00  0.00    -0.260 NA
HETATM    6  C10 UNL     1      24.357  -0.450  53.292  1.00  0.00     0.128 A 
HETATM    7  C11 UNL     1      25.591  -0.093  52.770  1.00  0.00    -0.018 A 
HETATM    8  C15 UNL     1      25.563   1.107  52.092  1.00  0.00     0.026 A 
HETATM    9  C16 UNL     1      24.463   1.918  51.913  1.00  0.00    -0.006 A 
HETATM   10  C17 UNL     1      24.512   3.100  51.226  1.00  0.00     0.021 A 
ENDROOT
BRANCH   1  11
HETATM   11  C5  UNL     1      23.410   5.144  50.344  1.00  0.00     0.077 C 
BRANCH  11  12
HETATM   12  C4  UNL     1      24.563   6.025  50.722  1.00  0.00     0.246 C 
BRANCH  12  13
HETATM   13  C3  UNL     1      24.998   6.907  49.607  1.00  0.00     0.027 C 
HETATM   14  C2  UNL     1      25.947   6.688  48.701  1.00  0.00     0.006 C 
HETATM   15  C1  UNL     1      26.470   7.478  47.553  1.00  0.00     0.061 C 
HETATM   16 CL1  UNL     1      26.744   5.122  48.933  1.00  0.00    -0.090 Cl
ENDBRANCH  12  13
BRANCH  12  17
HETATM   17  N1  UNL     1      24.366   6.728  51.963  1.00  0.00     0.086 N 
HETATM   18  H6  UNL     1      25.066   7.470  52.143  1.00  0.00     0.313 HD
HETATM   19  H7  UNL     1      23.398   7.087  51.956  1.00  0.00     0.313 HD
ENDBRANCH  12  17
ENDBRANCH  11  12
ENDBRANCH   1  11
BRANCH   7  20
HETATM   20  C12 UNL     1      26.751  -0.931  52.949  1.00  0.00     0.017 C 
HETATM   21  C13 UNL     1      27.920  -0.700  53.458  1.00  0.00     0.069 C 
BRANCH  21  22
HETATM   22  C14 UNL     1      28.708   0.354  54.075  1.00  0.00     0.303 A 
HETATM   23  N3  UNL     1      29.772   1.222  53.766  1.00  0.00     0.101 N 
HETATM   24  H15 UNL     1      30.329   1.288  52.863  1.00  0.00     0.325 HD
HETATM   25  H16 UNL     1      30.334   1.297  52.872  1.00  0.00     0.325 HD
HETATM   26  O1  UNL     1      28.999   1.101  55.041  1.00  0.00    -0.127 OA
ENDBRANCH  21  22
ENDBRANCH   7  20
TORSDOF 6
ENDMDL
MODEL 8
REMARK VINA RESULT:      -7.6      4.259      7.670
REMARK  6 active torsions:
REMARK  status: ('A' for Active; 'I' for Inactive)
REMARK    1  A    between atoms: C3_4  and  C4_5 
REMARK    2  A    between atoms: C4_5  and  N1_6 
REMARK    3  A    between atoms: C4_5  and  C5_7 
REMARK    4  A    between atoms: C5_7  and  C6_8 
REMARK    5  A    between atoms: C11_14  and  C12_15 
REMARK    6  A    between atoms: C13_16  and  C14_17 
ROOT
HETATM    1  C6  UNL     1      24.995   3.014  50.186  1.00  0.00    -0.055 A 
HETATM    2  C7  UNL     1      23.971   3.033  49.231  1.00  0.00     0.009 A 
HETATM    3  C8  UNL     1      22.822   2.338  49.466  1.00  0.00     0.033 A 
HETATM    4  C9  UNL     1      22.650   1.622  50.618  1.00  0.00     0.066 A 
HETATM    5  N2  UNL     1      21.513   0.937  50.846  1.00  0.00    -0.260 NA
HETATM    6  C10 UNL     1      21.309   0.223  51.965  1.00  0.00     0.128 A 
HETATM    7  C11 UNL     1      22.255   0.136  52.974  1.00  0.00    -0.018 A 
HETATM    8  C15 UNL     1      23.402   0.851  52.701  1.00  0.00     0.026 A 
HETATM    9  C16 UNL     1      23.650   1.595  51.567  1.00  0.00    -0.006 A 
HETATM   10  C17 UNL     1      24.815   2.281  51.364  1.00  0.00     0.021 A 
ENDROOT
BRANCH   1  11
HETATM   11  C5  UNL     1      26.254   3.752  49.972  1.00  0.00     0.077 C 
BRANCH  11  12
HETATM   12  C4  UNL     1      26.070   5.136  49.424  1.00  0.00     0.246 C 
BRANCH  12  13
HETATM   13  C3  UNL     1      25.170   5.969  50.266  1.00  0.00     0.027 C 
HETATM   14  C2  UNL     1      24.113   6.682  49.891  1.00  0.00     0.006 C 
HETATM   15  C1  UNL     1      23.145   7.544  50.624  1.00  0.00     0.061 C 
HETATM   16 CL1  UNL     1      23.815   6.570  48.146  1.00  0.00    -0.090 Cl
ENDBRANCH  12  13
BRANCH  12  17
HETATM   17  N1  UNL     1      27.308   5.790  49.090  1.00  0.00     0.086 N 
HETATM   18  H6  UNL     1      27.557   6.571  49.724  1.00  0.00     0.313 HD
HETATM   19  H7  UNL     1      28.036   5.059  49.055  1.00  0.00     0.313 HD
ENDBRANCH  12  17
ENDBRANCH  11  12
ENDBRANCH   1  11
BRANCH   7  20
HETATM   20  C12 UNL     1      22.011  -0.637  54.167  1.00  0.00     0.017 C 
HETATM   21  C13 UNL     1      22.807  -1.132  55.061  1.00  0.00     0.069 C 
BRANCH  21  22
HETATM   22  C14 UNL     1      24.216  -1.227  55.407  1.00  0.00     0.303 A 
HETATM   23  N3  UNL     1      25.036  -1.376  56.541  1.00  0.00     0.101 N 
HETATM   24  H15 UNL     1      24.746  -1.446  57.562  1.00  0.00     0.325 HD
HETATM   25  H16 UNL     1      24.759  -1.447  57.560  1.00  0.00     0.325 HD
HETATM   26  O1  UNL     1      25.434  -1.249  55.105  1.00  0.00    -0.127 OA
ENDBRANCH  21  22
ENDBRANCH   7  20
TORSDOF 6
ENDMDL
MODEL 9
REMARK VINA RESULT:      -7.5      4.616      6.723
REMARK  6 active torsions:
REMARK  status: ('A' for Active; 'I' for Inactive)
REMARK    1  A    between atoms: C3_4  and  C4_5 
REMARK    2  A    between atoms: C4_5  and  N1_6 
REMARK    3  A    between atoms: C4_5  and  C5_7 
REMARK    4  A    between atoms: C5_7  and  C6_8 
REMARK    5  A    between atoms: C11_14  and  C12_15 
REMARK    6  A    between atoms: C13_16  and  C14_17 
ROOT
HETATM    1  C6  UNL     1      24.006   0.524  52.666  1.00  0.00    -0.055 A 
HETATM    2  C7  UNL     1      23.971  -0.352  53.758  1.00  0.00     0.009 A 
HETATM    3  C8  UNL     1      22.778  -0.880  54.157  1.00  0.00     0.033 A 
HETATM    4  C9  UNL     1      21.615  -0.569  53.509  1.00  0.00     0.066 A 
HETATM    5  N2  UNL     1      20.439  -1.094  53.907  1.00  0.00    -0.260 NA
HETATM    6  C10 UNL     1      19.276  -0.812  53.296  1.00  0.00     0.128 A 
HETATM    7  C11 UNL     1      19.197   0.042  52.207  1.00  0.00    -0.018 A 
HETATM    8  C15 UNL     1      20.421   0.555  51.834  1.00  0.00     0.026 A 
HETATM    9  C16 UNL     1      21.634   0.291  52.434  1.00  0.00    -0.006 A 
HETATM   10  C17 UNL     1      22.812   0.839  52.006  1.00  0.00     0.021 A 
ENDROOT
BRANCH   1  11
HETATM   11  C5  UNL     1      25.273   1.117  52.202  1.00  0.00     0.077 C 
BRANCH  11  12
HETATM   12  C4  UNL     1      26.288   1.327  53.286  1.00  0.00     0.246 C 
BRANCH  12  13
HETATM   13  C3  UNL     1      27.646   0.864  52.893  1.00  0.00     0.027 C 
HETATM   14  C2  UNL     1      28.565   0.264  53.644  1.00  0.00     0.006 C 
HETATM   15  C1  UNL     1      29.939  -0.240  53.375  1.00  0.00     0.061 C 
HETATM   16 CL1  UNL     1      28.014   0.028  55.313  1.00  0.00    -0.090 Cl
ENDBRANCH  12  13
BRANCH  12  17
HETATM   17  N1  UNL     1      26.274   2.656  53.838  1.00  0.00     0.086 N 
HETATM   18  H6  UNL     1      26.875   2.772  54.673  1.00  0.00     0.313 HD
HETATM   19  H7  UNL     1      26.526   3.302  53.073  1.00  0.00     0.313 HD
ENDBRANCH  12  17
ENDBRANCH  11  12
ENDBRANCH   1  11
BRANCH   7  20
HETATM   20  C12 UNL     1      17.936   0.327  51.568  1.00  0.00     0.017 C 
HETATM   21  C13 UNL     1      17.287   1.432  51.379  1.00  0.00     0.069 C 
BRANCH  21  22
HETATM   22  C14 UNL     1      17.371   2.862  51.629  1.00  0.00     0.303 A 
HETATM   23  N3  UNL     1      16.526   3.975  51.797  1.00  0.00     0.101 N 
HETATM   24  H15 UNL     1      15.464   4.011  51.750  1.00  0.00     0.325 HD
HETATM   25  H16 UNL     1      15.470   4.024  51.753  1.00  0.00     0.325 HD
HETATM   26  O1  UNL     1      18.021   3.917  51.832  1.00  0.00    -0.127 OA
ENDBRANCH  21  22
ENDBRANCH   7  20
TORSDOF 6
ENDMDL
