MODEL 1
REMARK VINA RESULT:      -7.8      0.000      0.000
REMARK  3 active torsions:
REMARK  status: ('A' for Active; 'I' for Inactive)
REMARK       I    between atoms: C1_2  and  N1_3 
REMARK    1  A    between atoms: C1_2  and  C8_14 
REMARK    2  A    between atoms: N1_3  and  S1_4 
REMARK    3  A    between atoms: S1_4  and  C2_7 
ROOT
HETATM    1  O1  UNL     1      26.609   1.710  51.453  1.00  0.00    -0.267 OA
HETATM    2  C1  UNL     1      26.474   0.880  52.381  1.00  0.00     0.268 C 
HETATM    3  N1  UNL     1      25.184   0.633  52.916  1.00  0.00    -0.246 N 
HETATM    4  H1  UNL     1      25.167  -0.080  53.695  1.00  0.00     0.182 HD
ENDROOT
BRANCH   3   5
HETATM    5  S1  UNL     1      23.708   1.344  52.450  1.00  0.00     0.265 S 
HETATM    6  O2  UNL     1      23.632   2.721  53.053  1.00  0.00    -0.200 OA
HETATM    7  O3  UNL     1      23.732   1.549  50.961  1.00  0.00    -0.200 OA
BRANCH   5   8
HETATM    8  C2  UNL     1      22.313   0.379  52.922  1.00  0.00     0.080 A 
HETATM    9  C3  UNL     1      21.131   0.741  52.269  1.00  0.00     0.027 A 
HETATM   10  C4  UNL     1      19.958   0.068  52.542  1.00  0.00     0.025 A 
HETATM   11  C5  UNL     1      19.995  -0.957  53.469  1.00  0.00     0.034 A 
HETATM   12 CL1  UNL     1      18.489  -1.799  53.801  1.00  0.00    -0.084 Cl
HETATM   13  C6  UNL     1      21.170  -1.333  54.133  1.00  0.00     0.025 A 
HETATM   14  C7  UNL     1      22.332  -0.647  53.844  1.00  0.00     0.027 A 
ENDBRANCH   5   8
ENDBRANCH   3   5
BRANCH   2  15
HETATM   15  C8  UNL     1      27.664   0.179  52.897  1.00  0.00     0.073 A 
HETATM   16  C9  UNL     1      27.686  -1.193  52.760  1.00  0.00     0.022 A 
HETATM   17  C10 UNL     1      28.796  -1.872  53.240  1.00  0.00     0.020 A 
HETATM   18  C11 UNL     1      29.843  -1.201  53.833  1.00  0.00     0.118 A 
HETATM   19  N2  UNL     1      29.775   0.140  53.945  1.00  0.00    -0.248 NA
HETATM   20  C12 UNL     1      28.711   0.844  53.491  1.00  0.00     0.141 A 
HETATM   21 CL2  UNL     1      28.652   2.605  53.653  1.00  0.00    -0.061 Cl
ENDBRANCH   2  15
TORSDOF 3
ENDMDL
MODEL 2
REMARK VINA RESULT:      -7.8      4.514      6.955
REMARK  3 active torsions:
REMARK  status: ('A' for Active; 'I' for Inactive)
REMARK       I    between atoms: C1_2  and  N1_3 
REMARK    1  A    between atoms: C1_2  and  C8_14 
REMARK    2  A    between atoms: N1_3  and  S1_4 
REMARK    3  A    between atoms: S1_4  and  C2_7 
ROOT
HETATM    1  O1  UNL     1      26.611   2.757  49.249  1.00  0.00    -0.267 OA
HETATM    2  C1  UNL     1      26.321   3.869  49.744  1.00  0.00     0.268 C 
HETATM    3  N1  UNL     1      25.662   3.925  50.999  1.00  0.00    -0.246 N 
HETATM    4  H1  UNL     1      25.457   4.904  51.337  1.00  0.00     0.182 HD
ENDROOT
BRANCH   3   5
HETATM    5  S1  UNL     1      25.184   2.621  51.984  1.00  0.00     0.265 S 
HETATM    6  O2  UNL     1      24.432   3.170  53.168  1.00  0.00    -0.200 OA
HETATM    7  O3  UNL     1      24.193   1.790  51.219  1.00  0.00    -0.200 OA
BRANCH   5   8
HETATM    8  C2  UNL     1      26.544   1.637  52.513  1.00  0.00     0.080 A 
HETATM    9  C3  UNL     1      26.349   0.264  52.335  1.00  0.00     0.027 A 
HETATM   10  C4  UNL     1      27.335  -0.627  52.705  1.00  0.00     0.025 A 
HETATM   11  C5  UNL     1      28.501  -0.120  53.250  1.00  0.00     0.034 A 
HETATM   12 CL1  UNL     1      29.742  -1.273  53.715  1.00  0.00    -0.084 Cl
HETATM   13  C6  UNL     1      28.714   1.252  53.436  1.00  0.00     0.025 A 
HETATM   14  C7  UNL     1      27.714   2.126  53.057  1.00  0.00     0.027 A 
ENDBRANCH   5   8
ENDBRANCH   3   5
BRANCH   2  15
HETATM   15  C8  UNL     1      26.671   5.098  49.007  1.00  0.00     0.073 A 
HETATM   16  C9  UNL     1      27.997   5.263  48.667  1.00  0.00     0.022 A 
HETATM   17  C10 UNL     1      28.347   6.412  47.975  1.00  0.00     0.020 A 
HETATM   18  C11 UNL     1      27.405   7.358  47.637  1.00  0.00     0.118 A 
HETATM   19  N2  UNL     1      26.122   7.153  47.992  1.00  0.00    -0.248 NA
HETATM   20  C12 UNL     1      25.734   6.046  48.668  1.00  0.00     0.141 A 
HETATM   21 CL2  UNL     1      24.040   5.804  49.120  1.00  0.00    -0.061 Cl
ENDBRANCH   2  15
TORSDOF 3
ENDMDL
MODEL 3
REMARK VINA RESULT:      -7.6      3.945      6.077
REMARK  3 active torsions:
REMARK  status: ('A' for Active; 'I' for Inactive)
REMARK       I    between atoms: C1_2  and  N1_3 
REMARK    1  A    between atoms: C1_2  and  C8_14 
REMARK    2  A    between atoms: N1_3  and  S1_4 
REMARK    3  A    between atoms: S1_4  and  C2_7 
ROOT
HETATM    1  O1  UNL     1      24.969   0.944  53.180  1.00  0.00    -0.267 OA
HETATM    2  C1  UNL     1      26.038   1.016  52.531  1.00  0.00     0.268 C 
HETATM    3  N1  UNL     1      26.175   1.996  51.515  1.00  0.00    -0.246 N 
HETATM    4  H1  UNL     1      27.108   1.981  51.022  1.00  0.00     0.182 HD
ENDROOT
BRANCH   3   5
HETATM    5  S1  UNL     1      25.028   3.154  51.023  1.00  0.00     0.265 S 
HETATM    6  O2  UNL     1      23.945   2.452  50.247  1.00  0.00    -0.200 OA
HETATM    7  O3  UNL     1      24.360   3.708  52.250  1.00  0.00    -0.200 OA
BRANCH   5   8
HETATM    8  C2  UNL     1      25.741   4.449  50.066  1.00  0.00     0.080 A 
HETATM    9  C3  UNL     1      26.879   4.061  49.355  1.00  0.00     0.027 A 
HETATM   10  C4  UNL     1      27.542   4.975  48.561  1.00  0.00     0.025 A 
HETATM   11  C5  UNL     1      27.046   6.265  48.500  1.00  0.00     0.034 A 
HETATM   12 CL1  UNL     1      27.907   7.412  47.484  1.00  0.00    -0.084 Cl
HETATM   13  C6  UNL     1      25.907   6.671  49.206  1.00  0.00     0.025 A 
HETATM   14  C7  UNL     1      25.260   5.740  49.993  1.00  0.00     0.027 A 
ENDBRANCH   5   8
ENDBRANCH   3   5
BRANCH   2  15
HETATM   15  C8  UNL     1      27.131   0.076  52.841  1.00  0.00     0.073 A 
HETATM   16  C9  UNL     1      26.897  -1.259  52.583  1.00  0.00     0.022 A 
HETATM   17  C10 UNL     1      27.912  -2.159  52.868  1.00  0.00     0.020 A 
HETATM   18  C11 UNL     1      29.115  -1.738  53.390  1.00  0.00     0.118 A 
HETATM   19  N2  UNL     1      29.297  -0.424  53.625  1.00  0.00    -0.248 NA
HETATM   20  C12 UNL     1      28.334   0.491  53.362  1.00  0.00     0.141 A 
HETATM   21 CL2  UNL     1      28.604   2.211  53.682  1.00  0.00    -0.061 Cl
ENDBRANCH   2  15
TORSDOF 3
ENDMDL
MODEL 4
REMARK VINA RESULT:      -7.5      3.788      6.682
REMARK  3 active torsions:
REMARK  status: ('A' for Active; 'I' for Inactive)
REMARK       I    between atoms: C1_2  and  N1_3 
REMARK    1  A    between atoms: C1_2  and  C8_14 
REMARK    2  A    between atoms: N1_3  and  S1_4 
REMARK    3  A    between atoms: S1_4  and  C2_7 
ROOT
HETATM    1  O1  UNL     1      22.857   1.229  50.725  1.00  0.00    -0.267 OA
HETATM    2  C1  UNL     1      22.901   1.632  51.909  1.00  0.00     0.268 C 
HETATM    3  N1  UNL     1      23.000   3.023  52.172  1.00  0.00    -0.246 N 
HETATM    4  H1  UNL     1      23.032   3.269  53.197  1.00  0.00     0.182 HD
ENDROOT
BRANCH   3   5
HETATM    5  S1  UNL     1      23.071   4.294  51.041  1.00  0.00     0.265 S 
HETATM    6  O2  UNL     1      21.985   4.083  50.019  1.00  0.00    -0.200 OA
HETATM    7  O3  UNL     1      22.726   5.575  51.747  1.00  0.00    -0.200 OA
BRANCH   5   8
HETATM    8  C2  UNL     1      24.644   4.419  50.261  1.00  0.00     0.080 A 
HETATM    9  C3  UNL     1      24.949   5.707  49.812  1.00  0.00     0.027 A 
HETATM   10  C4  UNL     1      26.152   5.952  49.181  1.00  0.00     0.025 A 
HETATM   11  C5  UNL     1      27.026   4.893  49.012  1.00  0.00     0.034 A 
HETATM   12 CL1  UNL     1      28.551   5.227  48.205  1.00  0.00    -0.084 Cl
HETATM   13  C6  UNL     1      26.737   3.596  49.455  1.00  0.00     0.025 A 
HETATM   14  C7  UNL     1      25.528   3.375  50.084  1.00  0.00     0.027 A 
ENDBRANCH   5   8
ENDBRANCH   3   5
BRANCH   2  15
HETATM   15  C8  UNL     1      22.850   0.648  53.006  1.00  0.00     0.073 A 
HETATM   16  C9  UNL     1      21.625   0.452  53.610  1.00  0.00     0.022 A 
HETATM   17  C10 UNL     1      21.556  -0.469  54.644  1.00  0.00     0.020 A 
HETATM   18  C11 UNL     1      22.670  -1.166  55.057  1.00  0.00     0.118 A 
HETATM   19  N2  UNL     1      23.844  -0.939  54.437  1.00  0.00    -0.248 NA
HETATM   20  C12 UNL     1      23.959  -0.050  53.422  1.00  0.00     0.141 A 
HETATM   21 CL2  UNL     1      25.517   0.225  52.627  1.00  0.00    -0.061 Cl
ENDBRANCH   2  15
TORSDOF 3
ENDMDL
MODEL 5
REMARK VINA RESULT:      -7.5      4.284      6.523
REMARK  3 active torsions:
REMARK  status: ('A' for Active; 'I' for Inactive)
REMARK       I    between atoms: C1_2  and  N1_3 
REMARK    1  A    between atoms: C1_2  and  C8_14 
REMARK    2  A    between atoms: N1_3  and  S1_4 
REMARK    3  A    between atoms: S1_4  and  C2_7 
ROOT
HETATM    1  O1  UNL     1      26.696   1.916  50.653  1.00  0.00    -0.267 OA
HETATM    2  C1  UNL     1      26.431   2.199  51.843  1.00  0.00     0.268 C 
HETATM    3  N1  UNL     1      25.455   3.188  52.127  1.00  0.00    -0.246 N 
HETATM    4  H1  UNL     1      25.299   3.360  53.157  1.00  0.00     0.182 HD
ENDROOT
BRANCH   3   5
HETATM    5  S1  UNL     1      24.539   4.097  51.016  1.00  0.00     0.265 S 
HETATM    6  O2  UNL     1      23.826   3.144  50.094  1.00  0.00    -0.200 OA
HETATM    7  O3  UNL     1      23.460   4.820  51.773  1.00  0.00    -0.200 OA
BRANCH   5   8
HETATM    8  C2  UNL     1      25.522   5.233  50.098  1.00  0.00     0.080 A 
HETATM    9  C3  UNL     1      25.270   6.573  50.407  1.00  0.00     0.027 A 
HETATM   10  C4  UNL     1      25.969   7.573  49.763  1.00  0.00     0.025 A 
HETATM   11  C5  UNL     1      26.910   7.206  48.817  1.00  0.00     0.034 A 
HETATM   12 CL1  UNL     1      27.788   8.496  48.009  1.00  0.00    -0.084 Cl
HETATM   13  C6  UNL     1      27.175   5.869  48.495  1.00  0.00     0.025 A 
HETATM   14  C7  UNL     1      26.464   4.885  49.152  1.00  0.00     0.027 A 
ENDBRANCH   5   8
ENDBRANCH   3   5
BRANCH   2  15
HETATM   15  C8  UNL     1      27.144   1.494  52.925  1.00  0.00     0.073 A 
HETATM   16  C9  UNL     1      28.366   2.010  53.304  1.00  0.00     0.022 A 
HETATM   17  C10 UNL     1      29.053   1.362  54.319  1.00  0.00     0.020 A 
HETATM   18  C11 UNL     1      28.536   0.242  54.930  1.00  0.00     0.118 A 
HETATM   19  N2  UNL     1      27.339  -0.225  54.525  1.00  0.00    -0.248 NA
HETATM   20  C12 UNL     1      26.632   0.375  53.538  1.00  0.00     0.141 A 
HETATM   21 CL2  UNL     1      25.061  -0.262  53.029  1.00  0.00    -0.061 Cl
ENDBRANCH   2  15
TORSDOF 3
ENDMDL
MODEL 6
REMARK VINA RESULT:      -7.5      2.373      2.634
REMARK  3 active torsions:
REMARK  status: ('A' for Active; 'I' for Inactive)
REMARK       I    between atoms: C1_2  and  N1_3 
REMARK    1  A    between atoms: C1_2  and  C8_14 
REMARK    2  A    between atoms: N1_3  and  S1_4 
REMARK    3  A    between atoms: S1_4  and  C2_7 
ROOT
HETATM    1  O1  UNL     1      25.816   1.642  51.345  1.00  0.00    -0.267 OA
HETATM    2  C1  UNL     1      25.868   1.975  52.551  1.00  0.00     0.268 C 
HETATM    3  N1  UNL     1      24.896   2.867  53.072  1.00  0.00    -0.246 N 
HETATM    4  H1  UNL     1      25.019   3.092  54.096  1.00  0.00     0.182 HD
ENDROOT
BRANCH   3   5
HETATM    5  S1  UNL     1      23.594   3.590  52.245  1.00  0.00     0.265 S 
HETATM    6  O2  UNL     1      23.120   4.773  53.046  1.00  0.00    -0.200 OA
HETATM    7  O3  UNL     1      24.110   4.150  50.950  1.00  0.00    -0.200 OA
BRANCH   5   8
HETATM    8  C2  UNL     1      22.271   2.466  51.953  1.00  0.00     0.080 A 
HETATM    9  C3  UNL     1      21.020   2.957  52.335  1.00  0.00     0.027 A 
HETATM   10  C4  UNL     1      19.891   2.182  52.163  1.00  0.00     0.025 A 
HETATM   11  C5  UNL     1      20.043   0.923  51.609  1.00  0.00     0.034 A 
HETATM   12 CL1  UNL     1      18.593  -0.046  51.400  1.00  0.00    -0.084 Cl
HETATM   13  C6  UNL     1      21.289   0.415  51.221  1.00  0.00     0.025 A 
HETATM   14  C7  UNL     1      22.404   1.208  51.401  1.00  0.00     0.027 A 
ENDBRANCH   5   8
ENDBRANCH   3   5
BRANCH   2  15
HETATM   15  C8  UNL     1      26.943   1.432  53.402  1.00  0.00     0.073 A 
HETATM   16  C9  UNL     1      28.145   2.108  53.393  1.00  0.00     0.022 A 
HETATM   17  C10 UNL     1      29.169   1.612  54.186  1.00  0.00     0.020 A 
HETATM   18  C11 UNL     1      28.994   0.484  54.957  1.00  0.00     0.118 A 
HETATM   19  N2  UNL     1      27.802  -0.142  54.931  1.00  0.00    -0.248 NA
HETATM   20  C12 UNL     1      26.774   0.306  54.173  1.00  0.00     0.141 A 
HETATM   21 CL2  UNL     1      25.219  -0.539  54.161  1.00  0.00    -0.061 Cl
ENDBRANCH   2  15
TORSDOF 3
ENDMDL
MODEL 7
REMARK VINA RESULT:      -7.4      2.328      7.224
REMARK  3 active torsions:
REMARK  status: ('A' for Active; 'I' for Inactive)
REMARK       I    between atoms: C1_2  and  N1_3 
REMARK    1  A    between atoms: C1_2  and  C8_14 
REMARK    2  A    between atoms: N1_3  and  S1_4 
REMARK    3  A    between atoms: S1_4  and  C2_7 
ROOT
HETATM    1  O1  UNL     1      21.667   2.817  52.322  1.00  0.00    -0.267 OA
HETATM    2  C1  UNL     1      21.815   1.578  52.424  1.00  0.00     0.268 C 
HETATM    3  N1  UNL     1      23.123   1.032  52.482  1.00  0.00    -0.246 N 
HETATM    4  H1  UNL     1      23.150  -0.020  52.566  1.00  0.00     0.182 HD
ENDROOT
BRANCH   3   5
HETATM    5  S1  UNL     1      24.605   1.869  52.431  1.00  0.00     0.265 S 
HETATM    6  O2  UNL     1      24.724   2.545  51.091  1.00  0.00    -0.200 OA
HETATM    7  O3  UNL     1      24.558   2.976  53.446  1.00  0.00    -0.200 OA
BRANCH   5   8
HETATM    8  C2  UNL     1      25.987   0.817  52.723  1.00  0.00     0.080 A 
HETATM    9  C3  UNL     1      27.119   1.492  53.188  1.00  0.00     0.027 A 
HETATM   10  C4  UNL     1      28.277   0.791  53.460  1.00  0.00     0.025 A 
HETATM   11  C5  UNL     1      28.274  -0.577  53.256  1.00  0.00     0.034 A 
HETATM   12 CL1  UNL     1      29.759  -1.448  53.607  1.00  0.00    -0.084 Cl
HETATM   13  C6  UNL     1      27.149  -1.269  52.790  1.00  0.00     0.025 A 
HETATM   14  C7  UNL     1      26.001  -0.548  52.526  1.00  0.00     0.027 A 
ENDBRANCH   5   8
ENDBRANCH   3   5
BRANCH   2  15
HETATM   15  C8  UNL     1      20.621   0.714  52.479  1.00  0.00     0.073 A 
HETATM   16  C9  UNL     1      19.745   0.793  51.417  1.00  0.00     0.022 A 
HETATM   17  C10 UNL     1      18.616  -0.011  51.451  1.00  0.00     0.020 A 
HETATM   18  C11 UNL     1      18.375  -0.861  52.507  1.00  0.00     0.118 A 
HETATM   19  N2  UNL     1      19.260  -0.903  53.522  1.00  0.00    -0.248 NA
HETATM   20  C12 UNL     1      20.376  -0.136  53.532  1.00  0.00     0.141 A 
HETATM   21 CL2  UNL     1      21.519  -0.214  54.881  1.00  0.00    -0.061 Cl
ENDBRANCH   2  15
TORSDOF 3
ENDMDL
MODEL 8
REMARK VINA RESULT:      -7.3      3.744      6.651
REMARK  3 active torsions:
REMARK  status: ('A' for Active; 'I' for Inactive)
REMARK       I    between atoms: C1_2  and  N1_3 
REMARK    1  A    between atoms: C1_2  and  C8_14 
REMARK    2  A    between atoms: N1_3  and  S1_4 
REMARK    3  A    between atoms: S1_4  and  C2_7 
ROOT
HETATM    1  O1  UNL     1      23.254   3.214  52.655  1.00  0.00    -0.267 OA
HETATM    2  C1  UNL     1      22.999   2.076  52.203  1.00  0.00     0.268 C 
HETATM    3  N1  UNL     1      22.754   1.913  50.815  1.00  0.00    -0.246 N 
HETATM    4  H1  UNL     1      22.547   0.920  50.525  1.00  0.00     0.182 HD
ENDROOT
BRANCH   3   5
HETATM    5  S1  UNL     1      22.758   3.115  49.608  1.00  0.00     0.265 S 
HETATM    6  O2  UNL     1      22.242   2.508  48.331  1.00  0.00    -0.200 OA
HETATM    7  O3  UNL     1      21.761   4.172  49.992  1.00  0.00    -0.200 OA
BRANCH   5   8
HETATM    8  C2  UNL     1      24.351   3.823  49.363  1.00  0.00     0.080 A 
HETATM    9  C3  UNL     1      24.316   5.131  48.872  1.00  0.00     0.027 A 
HETATM   10  C4  UNL     1      25.493   5.811  48.632  1.00  0.00     0.025 A 
HETATM   11  C5  UNL     1      26.686   5.159  48.891  1.00  0.00     0.034 A 
HETATM   12 CL1  UNL     1      28.172   6.042  48.578  1.00  0.00    -0.084 Cl
HETATM   13  C6  UNL     1      26.739   3.849  49.383  1.00  0.00     0.025 A 
HETATM   14  C7  UNL     1      25.549   3.189  49.616  1.00  0.00     0.027 A 
ENDBRANCH   5   8
ENDBRANCH   3   5
BRANCH   2  15
HETATM   15  C8  UNL     1      22.958   0.927  53.127  1.00  0.00     0.073 A 
HETATM   16  C9  UNL     1      21.740   0.634  53.703  1.00  0.00     0.022 A 
HETATM   17  C10 UNL     1      21.681  -0.442  54.575  1.00  0.00     0.020 A 
HETATM   18  C11 UNL     1      22.799  -1.195  54.858  1.00  0.00     0.118 A 
HETATM   19  N2  UNL     1      23.967  -0.870  54.271  1.00  0.00    -0.248 NA
HETATM   20  C12 UNL     1      24.072   0.172  53.412  1.00  0.00     0.141 A 
HETATM   21 CL2  UNL     1      25.621   0.573  52.656  1.00  0.00    -0.061 Cl
ENDBRANCH   2  15
TORSDOF 3
ENDMDL
MODEL 9
REMARK VINA RESULT:      -6.9      2.640      7.228
REMARK  3 active torsions:
REMARK  status: ('A' for Active; 'I' for Inactive)
REMARK       I    between atoms: C1_2  and  N1_3 
REMARK    1  A    between atoms: C1_2  and  C8_14 
REMARK    2  A    between atoms: N1_3  and  S1_4 
REMARK    3  A    between atoms: S1_4  and  C2_7 
ROOT
HETATM    1  O1  UNL     1      21.765   3.226  52.351  1.00  0.00    -0.267 OA
HETATM    2  C1  UNL     1      21.950   1.988  52.362  1.00  0.00     0.268 C 
HETATM    3  N1  UNL     1      23.272   1.479  52.448  1.00  0.00    -0.246 N 
HETATM    4  H1  UNL     1      23.331   0.426  52.449  1.00  0.00     0.182 HD
ENDROOT
BRANCH   3   5
HETATM    5  S1  UNL     1      24.725   2.363  52.543  1.00  0.00     0.265 S 
HETATM    6  O2  UNL     1      24.882   3.158  51.274  1.00  0.00    -0.200 OA
HETATM    7  O3  UNL     1      24.590   3.374  53.647  1.00  0.00    -0.200 OA
BRANCH   5   8
HETATM    8  C2  UNL     1      26.127   1.333  52.811  1.00  0.00     0.080 A 
HETATM    9  C3  UNL     1      25.897  -0.016  52.528  1.00  0.00     0.027 A 
HETATM   10  C4  UNL     1      26.910  -0.939  52.693  1.00  0.00     0.025 A 
HETATM   11  C5  UNL     1      28.137  -0.486  53.143  1.00  0.00     0.034 A 
HETATM   12 CL1  UNL     1      29.411  -1.678  53.346  1.00  0.00    -0.084 Cl
HETATM   13  C6  UNL     1      28.385   0.862  53.432  1.00  0.00     0.025 A 
HETATM   14  C7  UNL     1      27.358   1.768  53.258  1.00  0.00     0.027 A 
ENDBRANCH   5   8
ENDBRANCH   3   5
BRANCH   2  15
HETATM   15  C8  UNL     1      20.786   1.086  52.284  1.00  0.00     0.073 A 
HETATM   16  C9  UNL     1      20.442   0.414  53.439  1.00  0.00     0.022 A 
HETATM   17  C10 UNL     1      19.351  -0.440  53.386  1.00  0.00     0.020 A 
HETATM   18  C11 UNL     1      18.633  -0.614  52.223  1.00  0.00     0.118 A 
HETATM   19  N2  UNL     1      19.009   0.064  51.122  1.00  0.00    -0.248 NA
HETATM   20  C12 UNL     1      20.067   0.909  51.126  1.00  0.00     0.141 A 
HETATM   21 CL2  UNL     1      20.536   1.785  49.661  1.00  0.00    -0.061 Cl
ENDBRANCH   2  15
TORSDOF 3
ENDMDL
