MODEL 1
REMARK VINA RESULT:      -7.2      0.000      0.000
REMARK  6 active torsions:
REMARK  status: ('A' for Active; 'I' for Inactive)
REMARK    1  A    between atoms: O1_2  and  C2_3 
REMARK    2  A    between atoms: C4_5  and  N1_6 
REMARK    3  A    between atoms: N1_6  and  C6_8 
REMARK    4  A    between atoms: C6_8  and  C7_9 
REMARK    5  A    between atoms: C7_9  and  N2_10 
REMARK    6  A    between atoms: N3_20  and  C16_21 
ROOT
HETATM    1  C2  UNL     1      24.506   3.740  51.818  1.00  0.00     0.266 C 
HETATM    2  C3  UNL     1      24.846   2.574  52.575  1.00  0.00     0.056 C 
HETATM    3  C4  UNL     1      24.094   1.454  52.644  1.00  0.00     0.030 C 
HETATM    4  C10 UNL     1      22.962   0.663  52.096  1.00  0.00     0.033 C 
HETATM    5  C11 UNL     1      22.113   0.788  51.069  1.00  0.00     0.057 C 
HETATM    6  C12 UNL     1      21.641   1.531  49.879  1.00  0.00     0.171 C 
HETATM    7  O2  UNL     1      20.521   1.225  49.341  1.00  0.00    -0.289 OA
HETATM    8  C13 UNL     1      22.155   2.613  49.015  1.00  0.00     0.052 C 
HETATM    9  C14 UNL     1      23.340   3.246  48.879  1.00  0.00    -0.003 C 
HETATM   10  C15 UNL     1      24.498   2.863  49.721  1.00  0.00     0.172 C 
HETATM   11  N3  UNL     1      24.929   3.974  50.493  1.00  0.00    -0.179 N 
ENDROOT
BRANCH   3  12
HETATM   12  N1  UNL     1      24.869   0.600  53.551  1.00  0.00    -0.384 N 
HETATM   13  C5  UNL     1      24.159  -0.635  53.935  1.00  0.00     0.149 C 
BRANCH  12  14
HETATM   14  C6  UNL     1      26.153   0.670  54.174  1.00  0.00     0.152 C 
BRANCH  14  15
HETATM   15  C7  UNL     1      27.159  -0.322  53.710  1.00  0.00     0.291 C 
BRANCH  15  16
HETATM   16  N2  UNL     1      28.479  -0.182  54.268  1.00  0.00     0.081 N 
HETATM   17  C8  UNL     1      29.456  -1.038  53.648  1.00  0.00     0.309 C 
HETATM   18  C9  UNL     1      28.933   1.201  54.175  1.00  0.00     0.309 C 
ENDBRANCH  15  16
ENDBRANCH  14  15
ENDBRANCH  12  14
ENDBRANCH   3  12
BRANCH   1  19
HETATM   19  O1  UNL     1      23.120   4.039  51.865  1.00  0.00    -0.367 OA
HETATM   20  C1  UNL     1      22.883   5.125  52.704  1.00  0.00     0.204 C 
ENDBRANCH   1  19
BRANCH  11  21
HETATM   21  C16 UNL     1      25.607   5.123  49.996  1.00  0.00     0.744 A 
HETATM   22  N4  UNL     1      25.441   6.410  50.193  1.00  0.00     0.033 NA
HETATM   23  N5  UNL     1      26.237   7.361  49.589  1.00  0.00    -0.189 N 
HETATM   24 CL1  UNL     1      25.859   9.013  49.975  1.00  0.00     0.033 Cl
HETATM   25  C17 UNL     1      27.320   7.045  48.693  1.00  0.00     0.213 A 
HETATM   26  C18 UNL     1      27.440   5.577  48.521  1.00  0.00     0.132 A 
HETATM   27  N6  UNL     1      26.664   4.713  49.113  1.00  0.00    -0.076 NA
ENDBRANCH  11  21
TORSDOF 6
ENDMDL
MODEL 2
REMARK VINA RESULT:      -7.2      2.738      3.382
REMARK  6 active torsions:
REMARK  status: ('A' for Active; 'I' for Inactive)
REMARK    1  A    between atoms: O1_2  and  C2_3 
REMARK    2  A    between atoms: C4_5  and  N1_6 
REMARK    3  A    between atoms: N1_6  and  C6_8 
REMARK    4  A    between atoms: C6_8  and  C7_9 
REMARK    5  A    between atoms: C7_9  and  N2_10 
REMARK    6  A    between atoms: N3_20  and  C16_21 
ROOT
HETATM    1  C2  UNL     1      23.629   2.825  51.111  1.00  0.00     0.266 C 
HETATM    2  C3  UNL     1      24.667   1.969  51.596  1.00  0.00     0.056 C 
HETATM    3  C4  UNL     1      24.494   0.993  52.515  1.00  0.00     0.030 C 
HETATM    4  C10 UNL     1      23.550   0.141  53.283  1.00  0.00     0.033 C 
HETATM    5  C11 UNL     1      22.223  -0.036  53.311  1.00  0.00     0.057 C 
HETATM    6  C12 UNL     1      20.876   0.286  52.790  1.00  0.00     0.171 C 
HETATM    7  O2  UNL     1      19.837  -0.109  53.425  1.00  0.00    -0.289 OA
HETATM    8  C13 UNL     1      20.317   0.970  51.606  1.00  0.00     0.052 C 
HETATM    9  C14 UNL     1      20.825   1.435  50.444  1.00  0.00    -0.003 C 
HETATM   10  C15 UNL     1      22.267   1.286  50.139  1.00  0.00     0.172 C 
HETATM   11  N3  UNL     1      22.862   2.562  49.956  1.00  0.00    -0.179 N 
ENDROOT
BRANCH   3  12
HETATM   12  N1  UNL     1      25.849   0.451  52.670  1.00  0.00    -0.384 N 
HETATM   13  C5  UNL     1      26.785   0.921  51.632  1.00  0.00     0.149 C 
BRANCH  12  14
HETATM   14  C6  UNL     1      26.496  -0.440  53.580  1.00  0.00     0.152 C 
BRANCH  14  15
HETATM   15  C7  UNL     1      27.181   0.194  54.739  1.00  0.00     0.291 C 
BRANCH  15  16
HETATM   16  N2  UNL     1      28.619   0.128  54.727  1.00  0.00     0.081 N 
HETATM   17  C8  UNL     1      29.138  -0.860  53.820  1.00  0.00     0.309 C 
HETATM   18  C9  UNL     1      29.191   1.427  54.393  1.00  0.00     0.309 C 
ENDBRANCH  15  16
ENDBRANCH  14  15
ENDBRANCH  12  14
ENDBRANCH   3  12
BRANCH   1  19
HETATM   19  O1  UNL     1      22.720   3.215  52.127  1.00  0.00    -0.367 OA
HETATM   20  C1  UNL     1      23.056   4.471  52.626  1.00  0.00     0.204 C 
ENDBRANCH   1  19
BRANCH  11  21
HETATM   21  C16 UNL     1      22.665   3.423  48.840  1.00  0.00     0.744 A 
HETATM   22  N4  UNL     1      22.233   3.215  47.619  1.00  0.00     0.033 NA
HETATM   23  N5  UNL     1      22.124   4.227  46.688  1.00  0.00    -0.189 N 
HETATM   24 CL1  UNL     1      21.533   3.750  45.124  1.00  0.00     0.033 Cl
HETATM   25  C17 UNL     1      22.468   5.600  46.955  1.00  0.00     0.213 A 
HETATM   26  C18 UNL     1      22.947   5.752  48.350  1.00  0.00     0.132 A 
HETATM   27  N6  UNL     1      23.034   4.765  49.198  1.00  0.00    -0.076 NA
ENDBRANCH  11  21
TORSDOF 6
ENDMDL
MODEL 3
REMARK VINA RESULT:      -7.2      4.058      6.494
REMARK  6 active torsions:
REMARK  status: ('A' for Active; 'I' for Inactive)
REMARK    1  A    between atoms: O1_2  and  C2_3 
REMARK    2  A    between atoms: C4_5  and  N1_6 
REMARK    3  A    between atoms: N1_6  and  C6_8 
REMARK    4  A    between atoms: C6_8  and  C7_9 
REMARK    5  A    between atoms: C7_9  and  N2_10 
REMARK    6  A    between atoms: N3_20  and  C16_21 
ROOT
HETATM    1  C2  UNL     1      21.922   0.696  51.634  1.00  0.00     0.266 C 
HETATM    2  C3  UNL     1      23.127   0.563  52.393  1.00  0.00     0.056 C 
HETATM    3  C4  UNL     1      24.015   1.560  52.609  1.00  0.00     0.030 C 
HETATM    4  C10 UNL     1      24.314   3.013  52.549  1.00  0.00     0.033 C 
HETATM    5  C11 UNL     1      23.633   4.120  52.226  1.00  0.00     0.057 C 
HETATM    6  C12 UNL     1      22.375   4.772  51.798  1.00  0.00     0.171 C 
HETATM    7  O2  UNL     1      22.389   5.995  51.421  1.00  0.00    -0.289 OA
HETATM    8  C13 UNL     1      20.949   4.398  51.705  1.00  0.00     0.052 C 
HETATM    9  C14 UNL     1      20.206   3.352  52.127  1.00  0.00    -0.003 C 
HETATM   10  C15 UNL     1      20.830   2.245  52.889  1.00  0.00     0.172 C 
HETATM   11  N3  UNL     1      20.667   1.019  52.192  1.00  0.00    -0.179 N 
ENDROOT
BRANCH   3  12
HETATM   12  N1  UNL     1      25.055   0.898  53.405  1.00  0.00    -0.384 N 
HETATM   13  C5  UNL     1      24.783  -0.532  53.643  1.00  0.00     0.149 C 
BRANCH  12  14
HETATM   14  C6  UNL     1      26.278   1.299  54.025  1.00  0.00     0.152 C 
BRANCH  14  15
HETATM   15  C7  UNL     1      26.978   0.257  54.824  1.00  0.00     0.291 C 
BRANCH  15  16
HETATM   16  N2  UNL     1      28.383   0.101  54.553  1.00  0.00     0.081 N 
HETATM   17  C8  UNL     1      28.662  -0.854  53.513  1.00  0.00     0.309 C 
HETATM   18  C9  UNL     1      28.984   1.381  54.196  1.00  0.00     0.309 C 
ENDBRANCH  15  16
ENDBRANCH  14  15
ENDBRANCH  12  14
ENDBRANCH   3  12
BRANCH   1  19
HETATM   19  O1  UNL     1      22.084   1.514  50.487  1.00  0.00    -0.367 OA
HETATM   20  C1  UNL     1      21.556   0.886  49.361  1.00  0.00     0.204 C 
ENDBRANCH   1  19
BRANCH  11  21
HETATM   21  C16 UNL     1      19.448   0.298  52.045  1.00  0.00     0.744 A 
HETATM   22  N4  UNL     1      18.559   0.238  51.083  1.00  0.00     0.033 NA
HETATM   23  N5  UNL     1      17.429  -0.549  51.166  1.00  0.00    -0.189 N 
HETATM   24 CL1  UNL     1      16.370  -0.493  49.788  1.00  0.00     0.033 Cl
HETATM   25  C17 UNL     1      17.112  -1.377  52.302  1.00  0.00     0.213 A 
HETATM   26  C18 UNL     1      18.161  -1.252  53.343  1.00  0.00     0.132 A 
HETATM   27  N6  UNL     1      19.215  -0.494  53.222  1.00  0.00    -0.076 NA
ENDBRANCH  11  21
TORSDOF 6
ENDMDL
MODEL 4
REMARK VINA RESULT:      -6.8      2.915      6.224
REMARK  6 active torsions:
REMARK  status: ('A' for Active; 'I' for Inactive)
REMARK    1  A    between atoms: O1_2  and  C2_3 
REMARK    2  A    between atoms: C4_5  and  N1_6 
REMARK    3  A    between atoms: N1_6  and  C6_8 
REMARK    4  A    between atoms: C6_8  and  C7_9 
REMARK    5  A    between atoms: C7_9  and  N2_10 
REMARK    6  A    between atoms: N3_20  and  C16_21 
ROOT
HETATM    1  C2  UNL     1      24.296   2.708  51.340  1.00  0.00     0.266 C 
HETATM    2  C3  UNL     1      23.184   2.326  50.525  1.00  0.00     0.056 C 
HETATM    3  C4  UNL     1      22.662   3.080  49.532  1.00  0.00     0.030 C 
HETATM    4  C10 UNL     1      22.811   4.251  48.630  1.00  0.00     0.033 C 
HETATM    5  C11 UNL     1      23.761   5.165  48.393  1.00  0.00     0.057 C 
HETATM    6  C12 UNL     1      25.112   5.708  48.661  1.00  0.00     0.171 C 
HETATM    7  O2  UNL     1      25.432   6.863  48.212  1.00  0.00    -0.289 OA
HETATM    8  C13 UNL     1      26.343   5.245  49.332  1.00  0.00     0.052 C 
HETATM    9  C14 UNL     1      26.772   4.066  49.833  1.00  0.00    -0.003 C 
HETATM   10  C15 UNL     1      25.917   2.858  49.753  1.00  0.00     0.172 C 
HETATM   11  N3  UNL     1      25.637   2.370  51.056  1.00  0.00    -0.179 N 
ENDROOT
BRANCH   3  12
HETATM   12  N1  UNL     1      21.550   2.254  49.049  1.00  0.00    -0.384 N 
HETATM   13  C5  UNL     1      20.875   2.821  47.867  1.00  0.00     0.149 C 
BRANCH  12  14
HETATM   14  C6  UNL     1      20.942   1.024  49.449  1.00  0.00     0.152 C 
BRANCH  14  15
HETATM   15  C7  UNL     1      19.759   1.142  50.345  1.00  0.00     0.291 C 
BRANCH  15  16
HETATM   16  N2  UNL     1      19.837   0.410  51.582  1.00  0.00     0.081 N 
HETATM   17  C8  UNL     1      20.328   1.197  52.682  1.00  0.00     0.309 C 
HETATM   18  C9  UNL     1      18.536  -0.143  51.937  1.00  0.00     0.309 C 
ENDBRANCH  15  16
ENDBRANCH  14  15
ENDBRANCH  12  14
ENDBRANCH   3  12
BRANCH   1  19
HETATM   19  O1  UNL     1      24.282   4.085  51.677  1.00  0.00    -0.367 OA
HETATM   20  C1  UNL     1      23.719   4.274  52.937  1.00  0.00     0.204 C 
ENDBRANCH   1  19
BRANCH  11  21
HETATM   21  C16 UNL     1      26.561   1.718  51.920  1.00  0.00     0.744 A 
HETATM   22  N4  UNL     1      27.506   2.165  52.714  1.00  0.00     0.033 NA
HETATM   23  N5  UNL     1      28.295   1.325  53.472  1.00  0.00    -0.189 N 
HETATM   24 CL1  UNL     1      29.493   2.108  54.459  1.00  0.00     0.033 Cl
HETATM   25  C17 UNL     1      28.165  -0.109  53.475  1.00  0.00     0.213 A 
HETATM   26  C18 UNL     1      27.081  -0.533  52.555  1.00  0.00     0.132 A 
HETATM   27  N6  UNL     1      26.360   0.297  51.856  1.00  0.00    -0.076 NA
ENDBRANCH  11  21
TORSDOF 6
ENDMDL
MODEL 5
REMARK VINA RESULT:      -6.5      2.980      4.435
REMARK  6 active torsions:
REMARK  status: ('A' for Active; 'I' for Inactive)
REMARK    1  A    between atoms: O1_2  and  C2_3 
REMARK    2  A    between atoms: C4_5  and  N1_6 
REMARK    3  A    between atoms: N1_6  and  C6_8 
REMARK    4  A    between atoms: C6_8  and  C7_9 
REMARK    5  A    between atoms: C7_9  and  N2_10 
REMARK    6  A    between atoms: N3_20  and  C16_21 
ROOT
HETATM    1  C2  UNL     1      22.806   3.916  49.958  1.00  0.00     0.266 C 
HETATM    2  C3  UNL     1      23.123   3.015  51.023  1.00  0.00     0.056 C 
HETATM    3  C4  UNL     1      24.339   2.461  51.225  1.00  0.00     0.030 C 
HETATM    4  C10 UNL     1      25.789   2.454  50.903  1.00  0.00     0.033 C 
HETATM    5  C11 UNL     1      26.608   3.202  50.153  1.00  0.00     0.057 C 
HETATM    6  C12 UNL     1      26.825   4.361  49.258  1.00  0.00     0.171 C 
HETATM    7  O2  UNL     1      27.928   4.472  48.618  1.00  0.00    -0.289 OA
HETATM    8  C13 UNL     1      26.080   5.578  48.876  1.00  0.00     0.052 C 
HETATM    9  C14 UNL     1      24.963   6.192  49.319  1.00  0.00    -0.003 C 
HETATM   10  C15 UNL     1      24.202   5.637  50.463  1.00  0.00     0.172 C 
HETATM   11  N3  UNL     1      22.877   5.321  50.063  1.00  0.00    -0.179 N 
ENDROOT
BRANCH   3  12
HETATM   12  N1  UNL     1      24.116   1.619  52.407  1.00  0.00    -0.384 N 
HETATM   13  C5  UNL     1      22.763   1.035  52.458  1.00  0.00     0.149 C 
BRANCH  12  14
HETATM   14  C6  UNL     1      24.890   1.227  53.543  1.00  0.00     0.152 C 
BRANCH  14  15
HETATM   15  C7  UNL     1      25.051  -0.238  53.749  1.00  0.00     0.291 C 
BRANCH  15  16
HETATM   16  N2  UNL     1      26.398  -0.738  53.656  1.00  0.00     0.081 N 
HETATM   17  C8  UNL     1      26.856  -0.897  52.301  1.00  0.00     0.309 C 
HETATM   18  C9  UNL     1      27.321   0.135  54.371  1.00  0.00     0.309 C 
ENDBRANCH  15  16
ENDBRANCH  14  15
ENDBRANCH  12  14
ENDBRANCH   3  12
BRANCH   1  19
HETATM   19  O1  UNL     1      23.433   3.563  48.736  1.00  0.00    -0.367 OA
HETATM   20  C1  UNL     1      22.579   2.788  47.955  1.00  0.00     0.204 C 
ENDBRANCH   1  19
BRANCH  11  21
HETATM   21  C16 UNL     1      21.847   6.260  49.769  1.00  0.00     0.744 A 
HETATM   22  N4  UNL     1      21.839   7.566  49.651  1.00  0.00     0.033 NA
HETATM   23  N5  UNL     1      20.694   8.277  49.356  1.00  0.00    -0.189 N 
HETATM   24 CL1  UNL     1      20.888  10.001  49.243  1.00  0.00     0.033 Cl
HETATM   25  C17 UNL     1      19.406   7.667  49.147  1.00  0.00     0.213 A 
HETATM   26  C18 UNL     1      19.499   6.195  49.299  1.00  0.00     0.132 A 
HETATM   27  N6  UNL     1      20.604   5.564  49.580  1.00  0.00    -0.076 NA
ENDBRANCH  11  21
TORSDOF 6
ENDMDL
MODEL 6
REMARK VINA RESULT:      -6.5      2.938      6.964
REMARK  6 active torsions:
REMARK  status: ('A' for Active; 'I' for Inactive)
REMARK    1  A    between atoms: O1_2  and  C2_3 
REMARK    2  A    between atoms: C4_5  and  N1_6 
REMARK    3  A    between atoms: N1_6  and  C6_8 
REMARK    4  A    between atoms: C6_8  and  C7_9 
REMARK    5  A    between atoms: C7_9  and  N2_10 
REMARK    6  A    between atoms: N3_20  and  C16_21 
ROOT
HETATM    1  C2  UNL     1      24.514   3.447  49.826  1.00  0.00     0.266 C 
HETATM    2  C3  UNL     1      25.536   4.312  49.321  1.00  0.00     0.056 C 
HETATM    3  C4  UNL     1      25.354   5.612  48.998  1.00  0.00     0.030 C 
HETATM    4  C10 UNL     1      24.489   6.817  49.070  1.00  0.00     0.033 C 
HETATM    5  C11 UNL     1      23.327   7.131  49.659  1.00  0.00     0.057 C 
HETATM    6  C12 UNL     1      22.186   6.755  50.522  1.00  0.00     0.171 C 
HETATM    7  O2  UNL     1      21.151   7.506  50.571  1.00  0.00    -0.289 OA
HETATM    8  C13 UNL     1      21.871   5.672  51.476  1.00  0.00     0.052 C 
HETATM    9  C14 UNL     1      22.574   4.675  52.056  1.00  0.00    -0.003 C 
HETATM   10  C15 UNL     1      24.020   4.511  51.773  1.00  0.00     0.172 C 
HETATM   11  N3  UNL     1      24.264   3.236  51.198  1.00  0.00    -0.179 N 
ENDROOT
BRANCH   3  12
HETATM   12  N1  UNL     1      26.682   6.014  48.519  1.00  0.00    -0.384 N 
HETATM   13  C5  UNL     1      27.685   4.938  48.618  1.00  0.00     0.149 C 
BRANCH  12  14
HETATM   14  C6  UNL     1      27.257   7.207  47.984  1.00  0.00     0.152 C 
BRANCH  14  15
HETATM   15  C7  UNL     1      27.954   8.091  48.957  1.00  0.00     0.291 C 
BRANCH  15  16
HETATM   16  N2  UNL     1      29.218   8.625  48.522  1.00  0.00     0.081 N 
HETATM   17  C8  UNL     1      29.611   9.814  49.232  1.00  0.00     0.309 C 
HETATM   18  C9  UNL     1      30.271   7.625  48.651  1.00  0.00     0.309 C 
ENDBRANCH  15  16
ENDBRANCH  14  15
ENDBRANCH  12  14
ENDBRANCH   3  12
BRANCH   1  19
HETATM   19  O1  UNL     1      23.256   3.665  49.208  1.00  0.00    -0.367 OA
HETATM   20  C1  UNL     1      22.845   2.525  48.522  1.00  0.00     0.204 C 
ENDBRANCH   1  19
BRANCH  11  21
HETATM   21  C16 UNL     1      24.204   1.987  51.880  1.00  0.00     0.744 A 
HETATM   22  N4  UNL     1      23.205   1.249  52.302  1.00  0.00     0.033 NA
HETATM   23  N5  UNL     1      23.395   0.048  52.954  1.00  0.00    -0.189 N 
HETATM   24 CL1  UNL     1      21.946  -0.782  53.437  1.00  0.00     0.033 Cl
HETATM   25  C17 UNL     1      24.691  -0.514  53.234  1.00  0.00     0.213 A 
HETATM   26  C18 UNL     1      25.763   0.378  52.729  1.00  0.00     0.132 A 
HETATM   27  N6  UNL     1      25.538   1.506  52.118  1.00  0.00    -0.076 NA
ENDBRANCH  11  21
TORSDOF 6
ENDMDL
MODEL 7
REMARK VINA RESULT:      -6.4      3.287      6.880
REMARK  6 active torsions:
REMARK  status: ('A' for Active; 'I' for Inactive)
REMARK    1  A    between atoms: O1_2  and  C2_3 
REMARK    2  A    between atoms: C4_5  and  N1_6 
REMARK    3  A    between atoms: N1_6  and  C6_8 
REMARK    4  A    between atoms: C6_8  and  C7_9 
REMARK    5  A    between atoms: C7_9  and  N2_10 
REMARK    6  A    between atoms: N3_20  and  C16_21 
ROOT
HETATM    1  C2  UNL     1      24.363   3.637  50.641  1.00  0.00     0.266 C 
HETATM    2  C3  UNL     1      24.046   5.028  50.740  1.00  0.00     0.056 C 
HETATM    3  C4  UNL     1      23.565   5.782  49.726  1.00  0.00     0.030 C 
HETATM    4  C10 UNL     1      22.966   5.829  48.367  1.00  0.00     0.033 C 
HETATM    5  C11 UNL     1      22.549   4.926  47.471  1.00  0.00     0.057 C 
HETATM    6  C12 UNL     1      22.320   3.516  47.084  1.00  0.00     0.171 C 
HETATM    7  O2  UNL     1      22.040   3.228  45.869  1.00  0.00    -0.289 OA
HETATM    8  C13 UNL     1      22.276   2.208  47.768  1.00  0.00     0.052 C 
HETATM    9  C14 UNL     1      22.273   1.803  49.056  1.00  0.00    -0.003 C 
HETATM   10  C15 UNL     1      22.308   2.794  50.157  1.00  0.00     0.172 C 
HETATM   11  N3  UNL     1      23.463   2.597  50.957  1.00  0.00    -0.179 N 
ENDROOT
BRANCH   3  12
HETATM   12  N1  UNL     1      23.442   7.109  50.341  1.00  0.00    -0.384 N 
HETATM   13  C5  UNL     1      22.084   7.392  50.843  1.00  0.00     0.149 C 
BRANCH  12  14
HETATM   14  C6  UNL     1      24.316   8.215  50.569  1.00  0.00     0.152 C 
BRANCH  14  15
HETATM   15  C7  UNL     1      25.688   8.091  50.004  1.00  0.00     0.291 C 
BRANCH  15  16
HETATM   16  N2  UNL     1      26.431   9.319  49.895  1.00  0.00     0.081 N 
HETATM   17  C8  UNL     1      27.844   9.117  49.707  1.00  0.00     0.309 C 
HETATM   18  C9  UNL     1      25.919  10.135  48.801  1.00  0.00     0.309 C 
ENDBRANCH  15  16
ENDBRANCH  14  15
ENDBRANCH  12  14
ENDBRANCH   3  12
BRANCH   1  19
HETATM   19  O1  UNL     1      24.965   3.297  49.403  1.00  0.00    -0.367 OA
HETATM   20  C1  UNL     1      26.350   3.410  49.486  1.00  0.00     0.204 C 
ENDBRANCH   1  19
BRANCH  11  21
HETATM   21  C16 UNL     1      23.680   1.515  51.858  1.00  0.00     0.744 A 
HETATM   22  N4  UNL     1      22.864   0.710  52.496  1.00  0.00     0.033 NA
HETATM   23  N5  UNL     1      23.314  -0.287  53.336  1.00  0.00    -0.189 N 
HETATM   24 CL1  UNL     1      22.078  -1.249  54.090  1.00  0.00     0.033 Cl
HETATM   25  C17 UNL     1      24.707  -0.546  53.597  1.00  0.00     0.213 A 
HETATM   26  C18 UNL     1      25.560   0.405  52.844  1.00  0.00     0.132 A 
HETATM   27  N6  UNL     1      25.091   1.334  52.059  1.00  0.00    -0.076 NA
ENDBRANCH  11  21
TORSDOF 6
ENDMDL
MODEL 8
REMARK VINA RESULT:      -6.3      2.996      3.912
REMARK  6 active torsions:
REMARK  status: ('A' for Active; 'I' for Inactive)
REMARK    1  A    between atoms: O1_2  and  C2_3 
REMARK    2  A    between atoms: C4_5  and  N1_6 
REMARK    3  A    between atoms: N1_6  and  C6_8 
REMARK    4  A    between atoms: C6_8  and  C7_9 
REMARK    5  A    between atoms: C7_9  and  N2_10 
REMARK    6  A    between atoms: N3_20  and  C16_21 
ROOT
HETATM    1  C2  UNL     1      22.165   1.967  52.141  1.00  0.00     0.266 C 
HETATM    2  C3  UNL     1      22.900   1.055  52.962  1.00  0.00     0.056 C 
HETATM    3  C4  UNL     1      22.348   0.065  53.698  1.00  0.00     0.030 C 
HETATM    4  C10 UNL     1      21.152  -0.765  53.996  1.00  0.00     0.033 C 
HETATM    5  C11 UNL     1      19.918  -0.885  53.490  1.00  0.00     0.057 C 
HETATM    6  C12 UNL     1      18.898  -0.493  52.493  1.00  0.00     0.171 C 
HETATM    7  O2  UNL     1      17.682  -0.859  52.649  1.00  0.00    -0.289 OA
HETATM    8  C13 UNL     1      18.875   0.243  51.212  1.00  0.00     0.052 C 
HETATM    9  C14 UNL     1      19.815   0.716  50.365  1.00  0.00    -0.003 C 
HETATM   10  C15 UNL     1      21.255   0.513  50.649  1.00  0.00     0.172 C 
HETATM   11  N3  UNL     1      21.911   1.766  50.767  1.00  0.00    -0.179 N 
ENDROOT
BRANCH   3  12
HETATM   12  N1  UNL     1      23.514  -0.538  54.353  1.00  0.00    -0.384 N 
HETATM   13  C5  UNL     1      23.153  -1.527  55.386  1.00  0.00     0.149 C 
BRANCH  12  14
HETATM   14  C6  UNL     1      24.932  -0.399  54.247  1.00  0.00     0.152 C 
BRANCH  14  15
HETATM   15  C7  UNL     1      25.558  -0.991  53.034  1.00  0.00     0.291 C 
BRANCH  15  16
HETATM   16  N2  UNL     1      26.818  -0.418  52.638  1.00  0.00     0.081 N 
HETATM   17  C8  UNL     1      26.680   0.759  51.822  1.00  0.00     0.309 C 
HETATM   18  C9  UNL     1      27.626  -0.093  53.808  1.00  0.00     0.309 C 
ENDBRANCH  15  16
ENDBRANCH  14  15
ENDBRANCH  12  14
ENDBRANCH   3  12
BRANCH   1  19
HETATM   19  O1  UNL     1      20.939   2.371  52.730  1.00  0.00    -0.367 OA
HETATM   20  C1  UNL     1      20.685   3.712  52.457  1.00  0.00     0.204 C 
ENDBRANCH   1  19
BRANCH  11  21
HETATM   21  C16 UNL     1      22.197   2.663  49.699  1.00  0.00     0.744 A 
HETATM   22  N4  UNL     1      21.907   2.647  48.420  1.00  0.00     0.033 NA
HETATM   23  N5  UNL     1      22.301   3.649  47.557  1.00  0.00    -0.189 N 
HETATM   24 CL1  UNL     1      21.820   3.446  45.899  1.00  0.00     0.033 Cl
HETATM   25  C17 UNL     1      23.060   4.803  47.966  1.00  0.00     0.213 A 
HETATM   26  C18 UNL     1      23.348   4.746  49.419  1.00  0.00     0.132 A 
HETATM   27  N6  UNL     1      22.956   3.777  50.198  1.00  0.00    -0.076 NA
ENDBRANCH  11  21
TORSDOF 6
ENDMDL
MODEL 9
REMARK VINA RESULT:      -6.2      5.742      9.504
REMARK  6 active torsions:
REMARK  status: ('A' for Active; 'I' for Inactive)
REMARK    1  A    between atoms: O1_2  and  C2_3 
REMARK    2  A    between atoms: C4_5  and  N1_6 
REMARK    3  A    between atoms: N1_6  and  C6_8 
REMARK    4  A    between atoms: C6_8  and  C7_9 
REMARK    5  A    between atoms: C7_9  and  N2_10 
REMARK    6  A    between atoms: N3_20  and  C16_21 
ROOT
HETATM    1  C2  UNL     1      30.580   6.348  47.892  1.00  0.00     0.266 C 
HETATM    2  C3  UNL     1      29.153   6.338  47.982  1.00  0.00     0.056 C 
HETATM    3  C4  UNL     1      28.409   7.328  48.524  1.00  0.00     0.030 C 
HETATM    4  C10 UNL     1      28.344   8.726  49.021  1.00  0.00     0.033 C 
HETATM    5  C11 UNL     1      29.190   9.762  49.081  1.00  0.00     0.057 C 
HETATM    6  C12 UNL     1      30.518  10.351  48.797  1.00  0.00     0.171 C 
HETATM    7  O2  UNL     1      30.846  11.466  49.331  1.00  0.00    -0.289 OA
HETATM    8  C13 UNL     1      31.686  10.013  47.959  1.00  0.00     0.052 C 
HETATM    9  C14 UNL     1      31.937   9.103  46.992  1.00  0.00    -0.003 C 
HETATM   10  C15 UNL     1      30.881   8.161  46.553  1.00  0.00     0.172 C 
HETATM   11  N3  UNL     1      31.299   6.822  46.774  1.00  0.00    -0.179 N 
ENDROOT
BRANCH   3  12
HETATM   12  N1  UNL     1      27.041   6.814  48.389  1.00  0.00    -0.384 N 
HETATM   13  C5  UNL     1      26.201   7.627  47.490  1.00  0.00     0.149 C 
BRANCH  12  14
HETATM   14  C6  UNL     1      26.304   5.713  48.925  1.00  0.00     0.152 C 
BRANCH  14  15
HETATM   15  C7  UNL     1      24.888   5.990  49.288  1.00  0.00     0.291 C 
BRANCH  15  16
HETATM   16  N2  UNL     1      24.667   6.458  50.631  1.00  0.00     0.081 N 
HETATM   17  C8  UNL     1      24.040   7.752  50.690  1.00  0.00     0.309 C 
HETATM   18  C9  UNL     1      23.859   5.504  51.382  1.00  0.00     0.309 C 
ENDBRANCH  15  16
ENDBRANCH  14  15
ENDBRANCH  12  14
ENDBRANCH   3  12
BRANCH   1  19
HETATM   19  O1  UNL     1      31.199   6.901  49.042  1.00  0.00    -0.367 OA
HETATM   20  C1  UNL     1      31.881   5.916  49.751  1.00  0.00     0.204 C 
ENDBRANCH   1  19
BRANCH  11  21
HETATM   21  C16 UNL     1      32.297   6.126  46.034  1.00  0.00     0.744 A 
HETATM   22  N4  UNL     1      33.166   5.200  46.363  1.00  0.00     0.033 NA
HETATM   23  N5  UNL     1      34.055   4.663  45.456  1.00  0.00    -0.189 N 
HETATM   24 CL1  UNL     1      35.129   3.448  46.084  1.00  0.00     0.033 Cl
HETATM   25  C17 UNL     1      34.121   5.055  44.071  1.00  0.00     0.213 A 
HETATM   26  C18 UNL     1      33.112   6.103  43.781  1.00  0.00     0.132 A 
HETATM   27  N6  UNL     1      32.290   6.583  44.672  1.00  0.00    -0.076 NA
ENDBRANCH  11  21
TORSDOF 6
ENDMDL
