MODEL 1
REMARK VINA RESULT:     -10.3      0.000      0.000
REMARK  2 active torsions:
REMARK  status: ('A' for Active; 'I' for Inactive)
REMARK    1  A    between atoms: O1_2  and  C2_3 
REMARK    2  A    between atoms: C6_7  and  C7_8 
ROOT
HETATM    1  C7  UNL     1      24.139   2.915  52.418  1.00  0.00    -0.038 C 
HETATM    2  C8  UNL     1      23.772   3.365  51.229  1.00  0.00     0.055 C 
HETATM    3  C9  UNL     1      23.487   3.542  49.831  1.00  0.00    -0.005 C 
HETATM    4  C10 UNL     1      24.535   3.736  49.006  1.00  0.00    -0.033 C 
HETATM    5  C11 UNL     1      25.615   3.160  49.561  1.00  0.00    -0.010 C 
HETATM    6  C12 UNL     1      25.971   4.421  50.191  1.00  0.00     0.064 C 
HETATM    7  C13 UNL     1      26.630   5.337  49.213  1.00  0.00    -0.054 C 
HETATM    8  C14 UNL     1      26.483   6.591  48.897  1.00  0.00     0.007 C 
HETATM    9  C15 UNL     1      27.364   7.136  47.839  1.00  0.00     0.057 C 
HETATM   10  C16 UNL     1      28.834   6.927  48.227  1.00  0.00     0.006 C 
HETATM   11  C17 UNL     1      28.985   5.474  48.548  1.00  0.00     0.005 C 
HETATM   12  C18 UNL     1      27.684   4.710  48.387  1.00  0.00     0.036 C 
HETATM   13  N1  UNL     1      25.565   7.524  49.445  1.00  0.00    -0.392 N 
HETATM   14  C19 UNL     1      24.802   8.560  50.071  1.00  0.00     0.129 C 
HETATM   15  C20 UNL     1      23.289   8.283  49.936  1.00  0.00     0.122 C 
HETATM   16  C21 UNL     1      22.979   7.059  50.744  1.00  0.00     0.223 C 
HETATM   17  O2  UNL     1      23.962   7.132  51.515  1.00  0.00    -0.273 OA
HETATM   18  N2  UNL     1      22.549   5.897  51.396  1.00  0.00    -0.337 N 
HETATM   19  C22 UNL     1      23.064   5.185  52.500  1.00  0.00     0.091 C 
HETATM   20  C23 UNL     1      23.643   4.143  53.019  1.00  0.00     0.025 C 
HETATM   21  H20 UNL     1      24.867   6.911  48.913  1.00  0.00     0.159 HD
HETATM   22  H25 UNL     1      21.730   5.757  50.785  1.00  0.00     0.168 HD
ENDROOT
BRANCH   1  23
HETATM   23  C6  UNL     1      24.722   1.762  53.089  1.00  0.00    -0.026 A 
HETATM   24  C5  UNL     1      24.027   0.591  53.072  1.00  0.00     0.012 A 
HETATM   25  C4  UNL     1      24.628  -0.440  53.734  1.00  0.00     0.004 A 
HETATM   26  C3  UNL     1      25.855  -0.339  54.387  1.00  0.00     0.037 A 
HETATM   27  C2  UNL     1      26.478   0.883  54.347  1.00  0.00     0.069 A 
HETATM   28  C24 UNL     1      25.923   1.950  53.699  1.00  0.00     0.048 A 
BRANCH  27  29
HETATM   29  O1  UNL     1      27.687   0.951  55.003  1.00  0.00    -0.356 OA
HETATM   30  C1  UNL     1      28.819   0.185  54.652  1.00  0.00     0.210 C 
ENDBRANCH  27  29
ENDBRANCH   1  23
TORSDOF 2
ENDMDL
MODEL 2
REMARK VINA RESULT:      -9.1      1.597      1.903
REMARK  2 active torsions:
REMARK  status: ('A' for Active; 'I' for Inactive)
REMARK    1  A    between atoms: O1_2  and  C2_3 
REMARK    2  A    between atoms: C6_7  and  C7_8 
ROOT
HETATM    1  C7  UNL     1      23.558   2.236  52.206  1.00  0.00    -0.038 C 
HETATM    2  C8  UNL     1      23.161   2.517  50.976  1.00  0.00     0.055 C 
HETATM    3  C9  UNL     1      22.989   2.609  49.552  1.00  0.00    -0.005 C 
HETATM    4  C10 UNL     1      23.902   3.325  48.864  1.00  0.00    -0.033 C 
HETATM    5  C11 UNL     1      25.053   3.309  49.558  1.00  0.00    -0.010 C 
HETATM    6  C12 UNL     1      24.681   4.551  50.215  1.00  0.00     0.064 C 
HETATM    7  C13 UNL     1      24.926   5.721  49.320  1.00  0.00    -0.054 C 
HETATM    8  C14 UNL     1      24.229   6.766  48.976  1.00  0.00     0.007 C 
HETATM    9  C15 UNL     1      24.854   7.722  48.033  1.00  0.00     0.057 C 
HETATM   10  C16 UNL     1      26.186   8.223  48.606  1.00  0.00     0.006 C 
HETATM   11  C17 UNL     1      26.981   7.005  48.959  1.00  0.00     0.005 C 
HETATM   12  C18 UNL     1      26.238   5.721  48.641  1.00  0.00     0.036 C 
HETATM   13  N1  UNL     1      22.918   7.114  49.393  1.00  0.00    -0.392 N 
HETATM   14  C19 UNL     1      21.684   7.623  49.907  1.00  0.00     0.129 C 
HETATM   15  C20 UNL     1      20.520   6.662  49.584  1.00  0.00     0.122 C 
HETATM   16  C21 UNL     1      20.746   5.398  50.358  1.00  0.00     0.223 C 
HETATM   17  O2  UNL     1      21.476   5.893  51.247  1.00  0.00    -0.273 OA
HETATM   18  N2  UNL     1      20.858   4.140  50.961  1.00  0.00    -0.337 N 
HETATM   19  C22 UNL     1      21.521   3.705  52.128  1.00  0.00     0.091 C 
HETATM   20  C23 UNL     1      22.466   3.043  52.727  1.00  0.00     0.025 C 
HETATM   21  H20 UNL     1      22.670   6.270  48.783  1.00  0.00     0.159 HD
HETATM   22  H25 UNL     1      20.285   3.656  50.253  1.00  0.00     0.168 HD
ENDROOT
BRANCH   1  23
HETATM   23  C6  UNL     1      24.543   1.471  52.957  1.00  0.00    -0.026 A 
HETATM   24  C5  UNL     1      24.228   0.194  53.312  1.00  0.00     0.012 A 
HETATM   25  C4  UNL     1      25.192  -0.455  54.026  1.00  0.00     0.004 A 
HETATM   26  C3  UNL     1      26.414   0.111  54.384  1.00  0.00     0.037 A 
HETATM   27  C2  UNL     1      26.638   1.403  53.979  1.00  0.00     0.069 A 
HETATM   28  C24 UNL     1      25.709   2.102  53.261  1.00  0.00     0.048 A 
BRANCH  27  29
HETATM   29  O1  UNL     1      27.853   1.935  54.350  1.00  0.00    -0.356 OA
HETATM   30  C1  UNL     1      29.082   1.252  54.234  1.00  0.00     0.210 C 
ENDBRANCH  27  29
ENDBRANCH   1  23
TORSDOF 2
ENDMDL
MODEL 3
REMARK VINA RESULT:      -9.0      3.777      5.331
REMARK  2 active torsions:
REMARK  status: ('A' for Active; 'I' for Inactive)
REMARK    1  A    between atoms: O1_2  and  C2_3 
REMARK    2  A    between atoms: C6_7  and  C7_8 
ROOT
HETATM    1  C7  UNL     1      21.547  -0.067  52.660  1.00  0.00    -0.038 C 
HETATM    2  C8  UNL     1      21.316   0.290  51.407  1.00  0.00     0.055 C 
HETATM    3  C9  UNL     1      21.410   0.632  50.014  1.00  0.00    -0.005 C 
HETATM    4  C10 UNL     1      21.968   1.820  49.705  1.00  0.00    -0.033 C 
HETATM    5  C11 UNL     1      22.812   2.155  50.695  1.00  0.00    -0.010 C 
HETATM    6  C12 UNL     1      21.754   2.905  51.353  1.00  0.00     0.064 C 
HETATM    7  C13 UNL     1      21.563   4.236  50.703  1.00  0.00    -0.054 C 
HETATM    8  C14 UNL     1      20.527   4.909  50.293  1.00  0.00     0.007 C 
HETATM    9  C15 UNL     1      20.773   6.236  49.684  1.00  0.00     0.057 C 
HETATM   10  C16 UNL     1      21.540   7.127  50.671  1.00  0.00     0.006 C 
HETATM   11  C17 UNL     1      22.743   6.346  51.099  1.00  0.00     0.005 C 
HETATM   12  C18 UNL     1      22.810   4.983  50.438  1.00  0.00     0.036 C 
HETATM   13  N1  UNL     1      19.162   4.525  50.349  1.00  0.00    -0.392 N 
HETATM   14  C19 UNL     1      17.763   4.291  50.538  1.00  0.00     0.129 C 
HETATM   15  C20 UNL     1      17.315   3.020  49.786  1.00  0.00     0.122 C 
HETATM   16  C21 UNL     1      17.975   1.846  50.445  1.00  0.00     0.223 C 
HETATM   17  O2  UNL     1      18.172   2.388  51.557  1.00  0.00    -0.273 OA
HETATM   18  N2  UNL     1      18.570   0.667  50.909  1.00  0.00    -0.337 N 
HETATM   19  C22 UNL     1      19.112   0.310  52.162  1.00  0.00     0.091 C 
HETATM   20  C23 UNL     1      20.120   0.017  52.930  1.00  0.00     0.025 C 
HETATM   21  H20 UNL     1      19.489   3.831  49.603  1.00  0.00     0.159 HD
HETATM   22  H25 UNL     1      18.464   0.163  50.016  1.00  0.00     0.168 HD
ENDROOT
BRANCH   1  23
HETATM   23  C6  UNL     1      22.608  -0.467  53.573  1.00  0.00    -0.026 A 
HETATM   24  C5  UNL     1      22.253  -1.020  54.767  1.00  0.00     0.012 A 
HETATM   25  C4  UNL     1      23.299  -1.354  55.575  1.00  0.00     0.004 A 
HETATM   26  C3  UNL     1      24.638  -1.160  55.241  1.00  0.00     0.037 A 
HETATM   27  C2  UNL     1      24.894  -0.598  54.015  1.00  0.00     0.069 A 
HETATM   28  C24 UNL     1      23.885  -0.243  53.164  1.00  0.00     0.048 A 
BRANCH  27  29
HETATM   29  O1  UNL     1      26.225  -0.417  53.715  1.00  0.00    -0.356 OA
HETATM   30  C1  UNL     1      26.695   0.089  52.484  1.00  0.00     0.210 C 
ENDBRANCH  27  29
ENDBRANCH   1  23
TORSDOF 2
ENDMDL
MODEL 4
REMARK VINA RESULT:      -9.0      2.923      5.727
REMARK  2 active torsions:
REMARK  status: ('A' for Active; 'I' for Inactive)
REMARK    1  A    between atoms: O1_2  and  C2_3 
REMARK    2  A    between atoms: C6_7  and  C7_8 
ROOT
HETATM    1  C7  UNL     1      26.195   2.448  51.590  1.00  0.00    -0.038 C 
HETATM    2  C8  UNL     1      25.198   3.313  51.685  1.00  0.00     0.055 C 
HETATM    3  C9  UNL     1      24.155   4.197  52.129  1.00  0.00    -0.005 C 
HETATM    4  C10 UNL     1      23.023   3.633  52.595  1.00  0.00    -0.033 C 
HETATM    5  C11 UNL     1      23.330   2.414  53.070  1.00  0.00    -0.010 C 
HETATM    6  C12 UNL     1      23.007   1.823  51.782  1.00  0.00     0.064 C 
HETATM    7  C13 UNL     1      21.530   1.681  51.616  1.00  0.00    -0.054 C 
HETATM    8  C14 UNL     1      20.689   1.964  50.664  1.00  0.00     0.007 C 
HETATM    9  C15 UNL     1      19.260   1.657  50.903  1.00  0.00     0.057 C 
HETATM   10  C16 UNL     1      19.096   0.168  51.235  1.00  0.00     0.006 C 
HETATM   11  C17 UNL     1      20.046  -0.123  52.354  1.00  0.00     0.005 C 
HETATM   12  C18 UNL     1      20.827   1.104  52.781  1.00  0.00     0.036 C 
HETATM   13  N1  UNL     1      20.969   2.547  49.401  1.00  0.00    -0.392 N 
HETATM   14  C19 UNL     1      21.194   2.956  48.048  1.00  0.00     0.129 C 
HETATM   15  C20 UNL     1      21.821   4.365  48.000  1.00  0.00     0.122 C 
HETATM   16  C21 UNL     1      23.196   4.270  48.589  1.00  0.00     0.223 C 
HETATM   17  O2  UNL     1      23.363   3.046  48.388  1.00  0.00    -0.273 OA
HETATM   18  N2  UNL     1      24.466   4.352  49.171  1.00  0.00    -0.337 N 
HETATM   19  C22 UNL     1      25.479   3.390  49.373  1.00  0.00     0.091 C 
HETATM   20  C23 UNL     1      26.197   2.631  50.147  1.00  0.00     0.025 C 
HETATM   21  H20 UNL     1      21.157   3.404  50.013  1.00  0.00     0.159 HD
HETATM   22  H25 UNL     1      24.394   5.357  49.391  1.00  0.00     0.168 HD
ENDROOT
BRANCH   1  23
HETATM   23  C6  UNL     1      27.084   1.616  52.388  1.00  0.00    -0.026 A 
HETATM   24  C5  UNL     1      28.051   2.232  53.124  1.00  0.00     0.012 A 
HETATM   25  C4  UNL     1      28.855   1.389  53.832  1.00  0.00     0.004 A 
HETATM   26  C3  UNL     1      28.728   0.001  53.828  1.00  0.00     0.037 A 
HETATM   27  C2  UNL     1      27.722  -0.525  53.057  1.00  0.00     0.069 A 
HETATM   28  C24 UNL     1      26.886   0.272  52.326  1.00  0.00     0.048 A 
BRANCH  27  29
HETATM   29  O1  UNL     1      27.623  -1.899  53.072  1.00  0.00    -0.356 OA
HETATM   30  C1  UNL     1      28.733  -2.769  53.091  1.00  0.00     0.210 C 
ENDBRANCH  27  29
ENDBRANCH   1  23
TORSDOF 2
ENDMDL
MODEL 5
REMARK VINA RESULT:      -9.0      3.754      6.370
REMARK  2 active torsions:
REMARK  status: ('A' for Active; 'I' for Inactive)
REMARK    1  A    between atoms: O1_2  and  C2_3 
REMARK    2  A    between atoms: C6_7  and  C7_8 
ROOT
HETATM    1  C7  UNL     1      23.738   2.209  51.927  1.00  0.00    -0.038 C 
HETATM    2  C8  UNL     1      22.716   3.046  51.865  1.00  0.00     0.055 C 
HETATM    3  C9  UNL     1      21.570   3.871  52.134  1.00  0.00    -0.005 C 
HETATM    4  C10 UNL     1      20.383   3.250  52.287  1.00  0.00    -0.033 C 
HETATM    5  C11 UNL     1      20.619   2.000  52.719  1.00  0.00    -0.010 C 
HETATM    6  C12 UNL     1      20.612   1.517  51.348  1.00  0.00     0.064 C 
HETATM    7  C13 UNL     1      19.214   1.366  50.845  1.00  0.00    -0.054 C 
HETATM    8  C14 UNL     1      18.595   1.716  49.754  1.00  0.00     0.007 C 
HETATM    9  C15 UNL     1      17.161   1.366  49.641  1.00  0.00     0.057 C 
HETATM   10  C16 UNL     1      16.981  -0.148  49.807  1.00  0.00     0.006 C 
HETATM   11  C17 UNL     1      17.668  -0.520  51.084  1.00  0.00     0.005 C 
HETATM   12  C18 UNL     1      18.291   0.680  51.772  1.00  0.00     0.036 C 
HETATM   13  N1  UNL     1      19.128   2.411  48.637  1.00  0.00    -0.392 N 
HETATM   14  C19 UNL     1      19.633   2.938  47.407  1.00  0.00     0.129 C 
HETATM   15  C20 UNL     1      20.205   4.357  47.614  1.00  0.00     0.122 C 
HETATM   16  C21 UNL     1      21.418   4.234  48.486  1.00  0.00     0.223 C 
HETATM   17  O2  UNL     1      21.668   3.034  48.230  1.00  0.00    -0.273 OA
HETATM   18  N2  UNL     1      22.523   4.286  49.343  1.00  0.00    -0.337 N 
HETATM   19  C22 UNL     1      23.499   3.327  49.689  1.00  0.00     0.091 C 
HETATM   20  C23 UNL     1      24.054   2.516  50.540  1.00  0.00     0.025 C 
HETATM   21  H20 UNL     1      19.145   3.214  49.343  1.00  0.00     0.159 HD
HETATM   22  H25 UNL     1      22.368   5.267  49.621  1.00  0.00     0.168 HD
ENDROOT
BRANCH   1  23
HETATM   23  C6  UNL     1      24.457   1.325  52.834  1.00  0.00    -0.026 A 
HETATM   24  C5  UNL     1      23.840   0.179  53.234  1.00  0.00     0.012 A 
HETATM   25  C4  UNL     1      24.567  -0.590  54.095  1.00  0.00     0.004 A 
HETATM   26  C3  UNL     1      25.843  -0.261  54.551  1.00  0.00     0.037 A 
HETATM   27  C2  UNL     1      26.379   0.915  54.089  1.00  0.00     0.069 A 
HETATM   28  C24 UNL     1      25.697   1.725  53.225  1.00  0.00     0.048 A 
BRANCH  27  29
HETATM   29  O1  UNL     1      27.639   1.214  54.558  1.00  0.00    -0.356 OA
HETATM   30  C1  UNL     1      28.617   0.244  54.864  1.00  0.00     0.210 C 
ENDBRANCH  27  29
ENDBRANCH   1  23
TORSDOF 2
ENDMDL
MODEL 6
REMARK VINA RESULT:      -8.8      3.495      5.021
REMARK  2 active torsions:
REMARK  status: ('A' for Active; 'I' for Inactive)
REMARK    1  A    between atoms: O1_2  and  C2_3 
REMARK    2  A    between atoms: C6_7  and  C7_8 
ROOT
HETATM    1  C7  UNL     1      23.457   0.967  52.492  1.00  0.00    -0.038 C 
HETATM    2  C8  UNL     1      22.740   1.058  51.383  1.00  0.00     0.055 C 
HETATM    3  C9  UNL     1      22.275   1.188  50.029  1.00  0.00    -0.005 C 
HETATM    4  C10 UNL     1      22.348   2.411  49.465  1.00  0.00    -0.033 C 
HETATM    5  C11 UNL     1      23.341   3.088  50.066  1.00  0.00    -0.010 C 
HETATM    6  C12 UNL     1      22.391   3.659  51.007  1.00  0.00     0.064 C 
HETATM    7  C13 UNL     1      21.637   4.787  50.384  1.00  0.00    -0.054 C 
HETATM    8  C14 UNL     1      20.380   5.121  50.328  1.00  0.00     0.007 C 
HETATM    9  C15 UNL     1      20.035   6.356  49.587  1.00  0.00     0.057 C 
HETATM   10  C16 UNL     1      20.803   7.547  50.174  1.00  0.00     0.006 C 
HETATM   11  C17 UNL     1      22.246   7.153  50.195  1.00  0.00     0.005 C 
HETATM   12  C18 UNL     1      22.470   5.758  49.643  1.00  0.00     0.036 C 
HETATM   13  N1  UNL     1      19.272   4.438  50.892  1.00  0.00    -0.392 N 
HETATM   14  C19 UNL     1      18.135   3.911  51.583  1.00  0.00     0.129 C 
HETATM   15  C20 UNL     1      17.838   2.467  51.124  1.00  0.00     0.122 C 
HETATM   16  C21 UNL     1      18.975   1.604  51.579  1.00  0.00     0.223 C 
HETATM   17  O2  UNL     1      19.366   2.344  52.509  1.00  0.00    -0.273 OA
HETATM   18  N2  UNL     1      19.992   0.688  51.875  1.00  0.00    -0.337 N 
HETATM   19  C22 UNL     1      20.991   0.672  52.872  1.00  0.00     0.091 C 
HETATM   20  C23 UNL     1      22.233   0.752  53.248  1.00  0.00     0.025 C 
HETATM   21  H20 UNL     1      19.516   3.732  50.125  1.00  0.00     0.159 HD
HETATM   22  H25 UNL     1      19.745   0.039  51.114  1.00  0.00     0.168 HD
ENDROOT
BRANCH   1  23
HETATM   23  C6  UNL     1      24.825   0.981  52.990  1.00  0.00    -0.026 A 
HETATM   24  C5  UNL     1      25.345   2.170  53.404  1.00  0.00     0.012 A 
HETATM   25  C4  UNL     1      26.635   2.107  53.842  1.00  0.00     0.004 A 
HETATM   26  C3  UNL     1      27.394   0.938  53.876  1.00  0.00     0.037 A 
HETATM   27  C2  UNL     1      26.780  -0.209  53.438  1.00  0.00     0.069 A 
HETATM   28  C24 UNL     1      25.490  -0.206  52.989  1.00  0.00     0.048 A 
BRANCH  27  29
HETATM   29  O1  UNL     1      27.555  -1.346  53.482  1.00  0.00    -0.356 OA
HETATM   30  C1  UNL     1      28.966  -1.341  53.453  1.00  0.00     0.210 C 
ENDBRANCH  27  29
ENDBRANCH   1  23
TORSDOF 2
ENDMDL
MODEL 7
REMARK VINA RESULT:      -8.8      2.921      6.992
REMARK  2 active torsions:
REMARK  status: ('A' for Active; 'I' for Inactive)
REMARK    1  A    between atoms: O1_2  and  C2_3 
REMARK    2  A    between atoms: C6_7  and  C7_8 
ROOT
HETATM    1  C7  UNL     1      24.313   5.276  49.273  1.00  0.00    -0.038 C 
HETATM    2  C8  UNL     1      23.460   5.317  50.284  1.00  0.00     0.055 C 
HETATM    3  C9  UNL     1      22.819   5.440  51.565  1.00  0.00    -0.005 C 
HETATM    4  C10 UNL     1      23.030   4.454  52.460  1.00  0.00    -0.033 C 
HETATM    5  C11 UNL     1      24.215   3.885  52.182  1.00  0.00    -0.010 C 
HETATM    6  C12 UNL     1      23.552   2.892  51.353  1.00  0.00     0.064 C 
HETATM    7  C13 UNL     1      22.934   1.824  52.194  1.00  0.00    -0.054 C 
HETATM    8  C14 UNL     1      21.770   1.242  52.218  1.00  0.00     0.007 C 
HETATM    9  C15 UNL     1      21.551   0.196  53.243  1.00  0.00     0.057 C 
HETATM   10  C16 UNL     1      22.613  -0.902  53.101  1.00  0.00     0.006 C 
HETATM   11  C17 UNL     1      23.940  -0.212  53.114  1.00  0.00     0.005 C 
HETATM   12  C18 UNL     1      23.807   1.291  53.262  1.00  0.00     0.036 C 
HETATM   13  N1  UNL     1      20.657   1.489  51.373  1.00  0.00    -0.392 N 
HETATM   14  C19 UNL     1      19.565   1.550  50.450  1.00  0.00     0.129 C 
HETATM   15  C20 UNL     1      18.932   2.957  50.444  1.00  0.00     0.122 C 
HETATM   16  C21 UNL     1      19.944   3.907  49.878  1.00  0.00     0.223 C 
HETATM   17  O2  UNL     1      20.610   3.058  49.242  1.00  0.00    -0.273 OA
HETATM   18  N2  UNL     1      20.804   4.919  49.434  1.00  0.00    -0.337 N 
HETATM   19  C22 UNL     1      21.927   4.900  48.580  1.00  0.00     0.091 C 
HETATM   20  C23 UNL     1      23.205   5.007  48.369  1.00  0.00     0.025 C 
HETATM   21  H20 UNL     1      20.639   2.405  51.927  1.00  0.00     0.159 HD
HETATM   22  H25 UNL     1      20.321   5.670  49.949  1.00  0.00     0.168 HD
ENDROOT
BRANCH   1  23
HETATM   23  C6  UNL     1      25.720   5.442  48.940  1.00  0.00    -0.026 A 
HETATM   24  C5  UNL     1      26.543   4.366  49.078  1.00  0.00     0.012 A 
HETATM   25  C4  UNL     1      27.849   4.601  48.763  1.00  0.00     0.004 A 
HETATM   26  C3  UNL     1      28.340   5.832  48.331  1.00  0.00     0.037 A 
HETATM   27  C2  UNL     1      27.431   6.855  48.222  1.00  0.00     0.069 A 
HETATM   28  C24 UNL     1      26.110   6.677  48.524  1.00  0.00     0.048 A 
BRANCH  27  29
HETATM   29  O1  UNL     1      27.946   8.058  47.795  1.00  0.00    -0.356 OA
HETATM   30  C1  UNL     1      27.680   9.296  48.418  1.00  0.00     0.210 C 
ENDBRANCH  27  29
ENDBRANCH   1  23
TORSDOF 2
ENDMDL
MODEL 8
REMARK VINA RESULT:      -8.6      2.538      3.241
REMARK  2 active torsions:
REMARK  status: ('A' for Active; 'I' for Inactive)
REMARK    1  A    between atoms: O1_2  and  C2_3 
REMARK    2  A    between atoms: C6_7  and  C7_8 
ROOT
HETATM    1  C7  UNL     1      21.291   1.508  52.261  1.00  0.00    -0.038 C 
HETATM    2  C8  UNL     1      21.178   1.803  50.976  1.00  0.00     0.055 C 
HETATM    3  C9  UNL     1      21.266   1.848  49.541  1.00  0.00    -0.005 C 
HETATM    4  C10 UNL     1      22.427   2.276  49.006  1.00  0.00    -0.033 C 
HETATM    5  C11 UNL     1      23.410   2.022  49.885  1.00  0.00    -0.010 C 
HETATM    6  C12 UNL     1      23.262   3.354  50.447  1.00  0.00     0.064 C 
HETATM    7  C13 UNL     1      23.932   4.373  49.584  1.00  0.00    -0.054 C 
HETATM    8  C14 UNL     1      23.585   5.534  49.108  1.00  0.00     0.007 C 
HETATM    9  C15 UNL     1      24.573   6.249  48.267  1.00  0.00     0.057 C 
HETATM   10  C16 UNL     1      25.878   6.443  49.049  1.00  0.00     0.006 C 
HETATM   11  C17 UNL     1      26.275   5.091  49.554  1.00  0.00     0.005 C 
HETATM   12  C18 UNL     1      25.294   4.011  49.139  1.00  0.00     0.036 C 
HETATM   13  N1  UNL     1      22.354   6.215  49.290  1.00  0.00    -0.392 N 
HETATM   14  C19 UNL     1      21.221   7.041  49.578  1.00  0.00     0.129 C 
HETATM   15  C20 UNL     1      19.920   6.376  49.079  1.00  0.00     0.122 C 
HETATM   16  C21 UNL     1      19.696   5.144  49.903  1.00  0.00     0.223 C 
HETATM   17  O2  UNL     1      20.374   5.499  50.894  1.00  0.00    -0.273 OA
HETATM   18  N2  UNL     1      19.390   3.935  50.539  1.00  0.00    -0.337 N 
HETATM   19  C22 UNL     1      19.727   3.423  51.811  1.00  0.00     0.091 C 
HETATM   20  C23 UNL     1      20.367   2.587  52.574  1.00  0.00     0.025 C 
HETATM   21  H20 UNL     1      22.002   5.423  48.663  1.00  0.00     0.159 HD
HETATM   22  H25 UNL     1      18.835   3.565  49.754  1.00  0.00     0.168 HD
ENDROOT
BRANCH   1  23
HETATM   23  C6  UNL     1      21.919   0.572  53.182  1.00  0.00    -0.026 A 
HETATM   24  C5  UNL     1      21.142   0.001  54.145  1.00  0.00     0.012 A 
HETATM   25  C4  UNL     1      21.802  -0.852  54.980  1.00  0.00     0.004 A 
HETATM   26  C3  UNL     1      23.162  -1.141  54.886  1.00  0.00     0.037 A 
HETATM   27  C2  UNL     1      23.858  -0.517  53.882  1.00  0.00     0.069 A 
HETATM   28  C24 UNL     1      23.250   0.347  53.016  1.00  0.00     0.048 A 
BRANCH  27  29
HETATM   29  O1  UNL     1      25.200  -0.821  53.817  1.00  0.00    -0.356 OA
HETATM   30  C1  UNL     1      26.123  -0.144  52.993  1.00  0.00     0.210 C 
ENDBRANCH  27  29
ENDBRANCH   1  23
TORSDOF 2
ENDMDL
MODEL 9
REMARK VINA RESULT:      -8.5      2.552      4.800
REMARK  2 active torsions:
REMARK  status: ('A' for Active; 'I' for Inactive)
REMARK    1  A    between atoms: O1_2  and  C2_3 
REMARK    2  A    between atoms: C6_7  and  C7_8 
ROOT
HETATM    1  C7  UNL     1      24.740   2.651  52.257  1.00  0.00    -0.038 C 
HETATM    2  C8  UNL     1      24.044   3.774  52.187  1.00  0.00     0.055 C 
HETATM    3  C9  UNL     1      23.134   4.867  52.396  1.00  0.00    -0.005 C 
HETATM    4  C10 UNL     1      21.833   4.652  52.112  1.00  0.00    -0.033 C 
HETATM    5  C11 UNL     1      21.589   3.338  52.247  1.00  0.00    -0.010 C 
HETATM    6  C12 UNL     1      21.856   3.137  50.832  1.00  0.00     0.064 C 
HETATM    7  C13 UNL     1      20.680   3.543  50.006  1.00  0.00    -0.054 C 
HETATM    8  C14 UNL     1      20.526   4.266  48.934  1.00  0.00     0.007 C 
HETATM    9  C15 UNL     1      19.149   4.430  48.415  1.00  0.00     0.057 C 
HETATM   10  C16 UNL     1      18.529   3.055  48.137  1.00  0.00     0.006 C 
HETATM   11  C17 UNL     1      18.686   2.258  49.394  1.00  0.00     0.005 C 
HETATM   12  C18 UNL     1      19.376   3.044  50.492  1.00  0.00     0.036 C 
HETATM   13  N1  UNL     1      21.528   4.934  48.184  1.00  0.00    -0.392 N 
HETATM   14  C19 UNL     1      22.494   5.477  47.279  1.00  0.00     0.129 C 
HETATM   15  C20 UNL     1      23.337   6.570  47.970  1.00  0.00     0.122 C 
HETATM   16  C21 UNL     1      24.162   5.903  49.030  1.00  0.00     0.223 C 
HETATM   17  O2  UNL     1      24.146   4.753  48.534  1.00  0.00    -0.273 OA
HETATM   18  N2  UNL     1      24.939   5.437  50.097  1.00  0.00    -0.337 N 
HETATM   19  C22 UNL     1      25.477   4.165  50.392  1.00  0.00     0.091 C 
HETATM   20  C23 UNL     1      25.519   3.080  51.106  1.00  0.00     0.025 C 
HETATM   21  H20 UNL     1      21.552   5.549  49.060  1.00  0.00     0.159 HD
HETATM   22  H25 UNL     1      24.978   6.348  50.577  1.00  0.00     0.168 HD
ENDROOT
BRANCH   1  23
HETATM   23  C6  UNL     1      24.897   1.435  53.041  1.00  0.00    -0.026 A 
HETATM   24  C5  UNL     1      23.857   0.555  53.074  1.00  0.00     0.012 A 
HETATM   25  C4  UNL     1      24.071  -0.553  53.841  1.00  0.00     0.004 A 
HETATM   26  C3  UNL     1      25.246  -0.799  54.549  1.00  0.00     0.037 A 
HETATM   27  C2  UNL     1      26.236   0.147  54.451  1.00  0.00     0.069 A 
HETATM   28  C24 UNL     1      26.078   1.276  53.698  1.00  0.00     0.048 A 
BRANCH  27  29
HETATM   29  O1  UNL     1      27.383  -0.123  55.163  1.00  0.00    -0.356 OA
HETATM   30  C1  UNL     1      28.684  -0.042  54.623  1.00  0.00     0.210 C 
ENDBRANCH  27  29
ENDBRANCH   1  23
TORSDOF 2
ENDMDL
