MODEL 1
REMARK VINA RESULT:      -8.5      0.000      0.000
REMARK  4 active torsions:
REMARK  status: ('A' for Active; 'I' for Inactive)
REMARK    1  A    between atoms: N1_2  and  C1_3 
REMARK    2  A    between atoms: C1_3  and  C2_4 
REMARK    3  A    between atoms: C4_6  and  N2_7 
REMARK    4  A    between atoms: N2_7  and  C5_8 
ROOT
HETATM    1  C5  UNL     1      23.297  -0.145  53.593  1.00  0.00     0.160 A 
HETATM    2  N3  UNL     1      23.690  -0.825  54.684  1.00  0.00    -0.222 NA
HETATM    3  C6  UNL     1      22.787  -1.583  55.358  1.00  0.00     0.238 A 
HETATM    4  N4  UNL     1      21.513  -1.670  54.962  1.00  0.00    -0.215 NA
HETATM    5  C7  UNL     1      21.060  -1.006  53.870  1.00  0.00     0.202 A 
HETATM    6  C8  UNL     1      22.006  -0.231  53.189  1.00  0.00     0.129 A 
HETATM    7  N5  UNL     1      21.814   0.566  52.023  1.00  0.00    -0.379 N 
HETATM    8  C9  UNL     1      20.838   0.353  50.945  1.00  0.00     0.161 C 
HETATM    9  C10 UNL     1      19.475   0.129  51.460  1.00  0.00    -0.005 A 
HETATM   10  C11 UNL     1      18.556   0.725  50.593  1.00  0.00     0.035 A 
HETATM   11  C12 UNL     1      17.201   0.662  50.847  1.00  0.00     0.034 A 
HETATM   12 CL1  UNL     1      16.026   1.408  49.764  1.00  0.00    -0.084 Cl
HETATM   13  C13 UNL     1      16.704   0.014  51.955  1.00  0.00     0.026 A 
HETATM   14  C14 UNL     1      17.627  -0.571  52.804  1.00  0.00     0.039 A 
HETATM   15  C15 UNL     1      18.993  -0.520  52.568  1.00  0.00     0.086 A 
HETATM   16  O1  UNL     1      19.708  -1.180  53.563  1.00  0.00    -0.289 OA
HETATM   17  H7  UNL     1      22.463   1.370  51.993  1.00  0.00     0.160 HD
ENDROOT
BRANCH   1  18
HETATM   18  N2  UNL     1      24.314   0.616  52.955  1.00  0.00    -0.338 N 
HETATM   19  H5  UNL     1      24.408   1.345  52.222  1.00  0.00     0.167 HD
BRANCH  18  20
HETATM   20  C4  UNL     1      25.675   0.409  53.348  1.00  0.00     0.057 A 
HETATM   21  C3  UNL     1      26.517   1.307  54.163  1.00  0.00     0.041 A 
HETATM   22  C2  UNL     1      27.573   0.479  54.098  1.00  0.00    -0.017 A 
HETATM   23  C16 UNL     1      26.736  -0.381  53.307  1.00  0.00     0.068 A 
HETATM   24 CL2  UNL     1      26.876  -1.927  52.500  1.00  0.00    -0.081 Cl
BRANCH  22  25
HETATM   25  C1  UNL     1      28.966   0.467  54.614  1.00  0.00     0.163 C 
BRANCH  25  26
HETATM   26  N1  UNL     1      29.914   0.467  53.519  1.00  0.00    -0.159 NA
HETATM   27  F1  UNL     1      30.154  -0.764  53.069  1.00  0.00    -0.136 F 
HETATM   28  H1  UNL     1      30.768   1.022  53.711  1.00  0.00     0.159 HD
ENDBRANCH  25  26
ENDBRANCH  22  25
ENDBRANCH  18  20
ENDBRANCH   1  18
TORSDOF 4
ENDMDL
MODEL 2
REMARK VINA RESULT:      -8.3      1.755      2.655
REMARK  4 active torsions:
REMARK  status: ('A' for Active; 'I' for Inactive)
REMARK    1  A    between atoms: N1_2  and  C1_3 
REMARK    2  A    between atoms: C1_3  and  C2_4 
REMARK    3  A    between atoms: C4_6  and  N2_7 
REMARK    4  A    between atoms: N2_7  and  C5_8 
ROOT
HETATM    1  C5  UNL     1      23.460   0.396  52.712  1.00  0.00     0.160 A 
HETATM    2  N3  UNL     1      24.235   1.221  51.986  1.00  0.00    -0.222 NA
HETATM    3  C6  UNL     1      23.672   1.973  51.005  1.00  0.00     0.238 A 
HETATM    4  N4  UNL     1      22.363   1.913  50.742  1.00  0.00    -0.215 NA
HETATM    5  C7  UNL     1      21.533   1.099  51.441  1.00  0.00     0.202 A 
HETATM    6  C8  UNL     1      22.131   0.333  52.447  1.00  0.00     0.129 A 
HETATM    7  N5  UNL     1      21.511  -0.600  53.328  1.00  0.00    -0.379 N 
HETATM    8  C9  UNL     1      20.123  -0.586  53.813  1.00  0.00     0.161 C 
HETATM    9  C10 UNL     1      19.150  -0.417  52.718  1.00  0.00    -0.005 A 
HETATM   10  C11 UNL     1      18.012  -1.177  52.999  1.00  0.00     0.035 A 
HETATM   11  C12 UNL     1      16.942  -1.196  52.127  1.00  0.00     0.034 A 
HETATM   12 CL1  UNL     1      15.497  -2.148  52.465  1.00  0.00    -0.084 Cl
HETATM   13  C13 UNL     1      16.953  -0.473  50.956  1.00  0.00     0.026 A 
HETATM   14  C14 UNL     1      18.087   0.274  50.693  1.00  0.00     0.039 A 
HETATM   15  C15 UNL     1      19.174   0.309  51.554  1.00  0.00     0.086 A 
HETATM   16  O1  UNL     1      20.187   1.129  51.067  1.00  0.00    -0.289 OA
HETATM   17  H7  UNL     1      22.162  -1.348  53.621  1.00  0.00     0.160 HD
ENDROOT
BRANCH   1  18
HETATM   18  N2  UNL     1      24.139  -0.346  53.715  1.00  0.00    -0.338 N 
HETATM   19  H5  UNL     1      23.922  -0.999  54.492  1.00  0.00     0.167 HD
BRANCH  18  20
HETATM   20  C4  UNL     1      25.566  -0.250  53.794  1.00  0.00     0.057 A 
HETATM   21  C3  UNL     1      26.355   0.768  54.516  1.00  0.00     0.041 A 
HETATM   22  C2  UNL     1      27.522   0.219  54.140  1.00  0.00    -0.017 A 
HETATM   23  C16 UNL     1      26.734  -0.760  53.444  1.00  0.00     0.068 A 
HETATM   24 CL2  UNL     1      27.021  -2.173  52.451  1.00  0.00    -0.081 Cl
BRANCH  22  25
HETATM   25  C1  UNL     1      28.964   0.505  54.354  1.00  0.00     0.163 C 
BRANCH  25  26
HETATM   26  N1  UNL     1      29.433   1.494  53.405  1.00  0.00    -0.159 NA
HETATM   27  F1  UNL     1      29.006   2.718  53.711  1.00  0.00    -0.136 F 
HETATM   28  H1  UNL     1      29.276   1.225  52.416  1.00  0.00     0.159 HD
ENDBRANCH  25  26
ENDBRANCH  22  25
ENDBRANCH  18  20
ENDBRANCH   1  18
TORSDOF 4
ENDMDL
MODEL 3
REMARK VINA RESULT:      -8.3      5.031      5.998
REMARK  4 active torsions:
REMARK  status: ('A' for Active; 'I' for Inactive)
REMARK    1  A    between atoms: N1_2  and  C1_3 
REMARK    2  A    between atoms: C1_3  and  C2_4 
REMARK    3  A    between atoms: C4_6  and  N2_7 
REMARK    4  A    between atoms: N2_7  and  C5_8 
ROOT
HETATM    1  C5  UNL     1      25.488   2.793  50.694  1.00  0.00     0.160 A 
HETATM    2  N3  UNL     1      26.758   2.868  51.126  1.00  0.00    -0.222 NA
HETATM    3  C6  UNL     1      27.144   2.123  52.195  1.00  0.00     0.238 A 
HETATM    4  N4  UNL     1      26.289   1.315  52.828  1.00  0.00    -0.215 NA
HETATM    5  C7  UNL     1      24.996   1.198  52.437  1.00  0.00     0.202 A 
HETATM    6  C8  UNL     1      24.618   1.973  51.335  1.00  0.00     0.129 A 
HETATM    7  N5  UNL     1      23.338   2.052  50.713  1.00  0.00    -0.379 N 
HETATM    8  C9  UNL     1      22.308   1.006  50.652  1.00  0.00     0.161 C 
HETATM    9  C10 UNL     1      22.033   0.412  51.973  1.00  0.00    -0.005 A 
HETATM   10  C11 UNL     1      20.672   0.119  52.068  1.00  0.00     0.035 A 
HETATM   11  C12 UNL     1      20.148  -0.448  53.212  1.00  0.00     0.034 A 
HETATM   12 CL1  UNL     1      18.431  -0.825  53.351  1.00  0.00    -0.084 Cl
HETATM   13  C13 UNL     1      20.941  -0.746  54.298  1.00  0.00     0.026 A 
HETATM   14  C14 UNL     1      22.288  -0.450  54.187  1.00  0.00     0.039 A 
HETATM   15  C15 UNL     1      22.836   0.119  53.047  1.00  0.00     0.086 A 
HETATM   16  O1  UNL     1      24.206   0.320  53.183  1.00  0.00    -0.289 OA
HETATM   17  H7  UNL     1      23.175   2.975  50.277  1.00  0.00     0.160 HD
ENDROOT
BRANCH   1  18
HETATM   18  N2  UNL     1      25.181   3.606  49.570  1.00  0.00    -0.338 N 
HETATM   19  H5  UNL     1      24.730   3.523  48.639  1.00  0.00     0.167 HD
BRANCH  18  20
HETATM   20  C4  UNL     1      25.561   4.987  49.597  1.00  0.00     0.057 A 
HETATM   21  C3  UNL     1      24.832   6.101  50.235  1.00  0.00     0.041 A 
HETATM   22  C2  UNL     1      25.753   7.002  49.854  1.00  0.00    -0.017 A 
HETATM   23  C16 UNL     1      26.445   5.903  49.240  1.00  0.00     0.068 A 
HETATM   24 CL2  UNL     1      27.914   5.659  48.321  1.00  0.00    -0.081 Cl
BRANCH  22  25
HETATM   25  C1  UNL     1      25.954   8.467  50.006  1.00  0.00     0.163 C 
BRANCH  25  26
HETATM   26  N1  UNL     1      27.179   8.741  50.728  1.00  0.00    -0.159 NA
HETATM   27  F1  UNL     1      28.224   8.851  49.910  1.00  0.00    -0.136 F 
HETATM   28  H1  UNL     1      27.335   8.105  51.532  1.00  0.00     0.159 HD
ENDBRANCH  25  26
ENDBRANCH  22  25
ENDBRANCH  18  20
ENDBRANCH   1  18
TORSDOF 4
ENDMDL
MODEL 4
REMARK VINA RESULT:      -8.3      4.449      7.467
REMARK  4 active torsions:
REMARK  status: ('A' for Active; 'I' for Inactive)
REMARK    1  A    between atoms: N1_2  and  C1_3 
REMARK    2  A    between atoms: C1_3  and  C2_4 
REMARK    3  A    between atoms: C4_6  and  N2_7 
REMARK    4  A    between atoms: N2_7  and  C5_8 
ROOT
HETATM    1  C5  UNL     1      23.011   3.335  52.351  1.00  0.00     0.160 A 
HETATM    2  N3  UNL     1      21.756   3.024  51.983  1.00  0.00    -0.222 NA
HETATM    3  C6  UNL     1      21.398   1.718  51.874  1.00  0.00     0.238 A 
HETATM    4  N4  UNL     1      22.264   0.732  52.125  1.00  0.00    -0.215 NA
HETATM    5  C7  UNL     1      23.543   0.985  52.501  1.00  0.00     0.202 A 
HETATM    6  C8  UNL     1      23.892   2.336  52.607  1.00  0.00     0.129 A 
HETATM    7  N5  UNL     1      25.152   2.891  52.976  1.00  0.00    -0.379 N 
HETATM    8  C9  UNL     1      26.168   2.297  53.856  1.00  0.00     0.161 C 
HETATM    9  C10 UNL     1      26.479   0.903  53.490  1.00  0.00    -0.005 A 
HETATM   10  C11 UNL     1      27.840   0.670  53.697  1.00  0.00     0.035 A 
HETATM   11  C12 UNL     1      28.395  -0.565  53.428  1.00  0.00     0.034 A 
HETATM   12 CL1  UNL     1      30.112  -0.879  53.683  1.00  0.00    -0.084 Cl
HETATM   13  C13 UNL     1      27.635  -1.609  52.951  1.00  0.00     0.026 A 
HETATM   14  C14 UNL     1      26.288  -1.362  52.751  1.00  0.00     0.039 A 
HETATM   15  C15 UNL     1      25.710  -0.129  53.014  1.00  0.00     0.086 A 
HETATM   16  O1  UNL     1      24.347  -0.133  52.733  1.00  0.00    -0.289 OA
HETATM   17  H7  UNL     1      25.310   3.816  52.542  1.00  0.00     0.160 HD
ENDROOT
BRANCH   1  18
HETATM   18  N2  UNL     1      23.289   4.725  52.441  1.00  0.00    -0.338 N 
HETATM   19  H5  UNL     1      23.089   5.529  53.067  1.00  0.00     0.167 HD
BRANCH  18  20
HETATM   20  C4  UNL     1      24.075   5.335  51.410  1.00  0.00     0.057 A 
HETATM   21  C3  UNL     1      24.404   6.767  51.268  1.00  0.00     0.041 A 
HETATM   22  C2  UNL     1      25.117   6.555  50.149  1.00  0.00    -0.017 A 
HETATM   23  C16 UNL     1      24.784   5.166  50.307  1.00  0.00     0.068 A 
HETATM   24 CL2  UNL     1      25.098   3.664  49.468  1.00  0.00    -0.081 Cl
BRANCH  22  25
HETATM   25  C1  UNL     1      25.893   7.387  49.192  1.00  0.00     0.163 C 
BRANCH  25  26
HETATM   26  N1  UNL     1      27.296   7.028  49.229  1.00  0.00    -0.159 NA
HETATM   27  F1  UNL     1      27.552   5.945  48.497  1.00  0.00    -0.136 F 
HETATM   28  H1  UNL     1      27.689   6.996  50.188  1.00  0.00     0.159 HD
ENDBRANCH  25  26
ENDBRANCH  22  25
ENDBRANCH  18  20
ENDBRANCH   1  18
TORSDOF 4
ENDMDL
MODEL 5
REMARK VINA RESULT:      -8.1      6.044      8.070
REMARK  4 active torsions:
REMARK  status: ('A' for Active; 'I' for Inactive)
REMARK    1  A    between atoms: N1_2  and  C1_3 
REMARK    2  A    between atoms: C1_3  and  C2_4 
REMARK    3  A    between atoms: C4_6  and  N2_7 
REMARK    4  A    between atoms: N2_7  and  C5_8 
ROOT
HETATM    1  C5  UNL     1      24.158   4.851  50.122  1.00  0.00     0.160 A 
HETATM    2  N3  UNL     1      23.150   5.654  50.504  1.00  0.00    -0.222 NA
HETATM    3  C6  UNL     1      22.472   5.375  51.648  1.00  0.00     0.238 A 
HETATM    4  N4  UNL     1      22.784   4.319  52.406  1.00  0.00    -0.215 NA
HETATM    5  C7  UNL     1      23.792   3.475  52.071  1.00  0.00     0.202 A 
HETATM    6  C8  UNL     1      24.477   3.779  50.889  1.00  0.00     0.129 A 
HETATM    7  N5  UNL     1      25.566   3.074  50.299  1.00  0.00    -0.379 N 
HETATM    8  C9  UNL     1      26.587   2.269  50.984  1.00  0.00     0.161 C 
HETATM    9  C10 UNL     1      25.997   1.301  51.927  1.00  0.00    -0.005 A 
HETATM   10  C11 UNL     1      26.753   0.127  51.908  1.00  0.00     0.035 A 
HETATM   11  C12 UNL     1      26.411  -0.947  52.705  1.00  0.00     0.034 A 
HETATM   12 CL1  UNL     1      27.353  -2.437  52.695  1.00  0.00    -0.084 Cl
HETATM   13  C13 UNL     1      25.321  -0.904  53.545  1.00  0.00     0.026 A 
HETATM   14  C14 UNL     1      24.584   0.267  53.552  1.00  0.00     0.039 A 
HETATM   15  C15 UNL     1      24.908   1.358  52.760  1.00  0.00     0.086 A 
HETATM   16  O1  UNL     1      24.016   2.410  52.946  1.00  0.00    -0.289 OA
HETATM   17  H7  UNL     1      25.583   3.178  49.270  1.00  0.00     0.160 HD
ENDROOT
BRANCH   1  18
HETATM   18  N2  UNL     1      24.808   5.227  48.916  1.00  0.00    -0.338 N 
HETATM   19  H5  UNL     1      24.875   4.914  47.929  1.00  0.00     0.167 HD
BRANCH  18  20
HETATM   20  C4  UNL     1      25.668   6.372  48.927  1.00  0.00     0.057 A 
HETATM   21  C3  UNL     1      27.102   6.416  48.580  1.00  0.00     0.041 A 
HETATM   22  C2  UNL     1      27.182   7.736  48.816  1.00  0.00    -0.017 A 
HETATM   23  C16 UNL     1      25.786   7.670  49.150  1.00  0.00     0.068 A 
HETATM   24 CL2  UNL     1      24.535   8.775  49.676  1.00  0.00    -0.081 Cl
BRANCH  22  25
HETATM   25  C1  UNL     1      28.239   8.779  48.756  1.00  0.00     0.163 C 
BRANCH  25  26
HETATM   26  N1  UNL     1      28.631   9.183  50.091  1.00  0.00    -0.159 NA
HETATM   27  F1  UNL     1      27.579   9.495  50.846  1.00  0.00    -0.136 F 
HETATM   28  H1  UNL     1      29.387   9.893  50.103  1.00  0.00     0.159 HD
ENDBRANCH  25  26
ENDBRANCH  22  25
ENDBRANCH  18  20
ENDBRANCH   1  18
TORSDOF 4
ENDMDL
MODEL 6
REMARK VINA RESULT:      -8.1      6.056      8.639
REMARK  4 active torsions:
REMARK  status: ('A' for Active; 'I' for Inactive)
REMARK    1  A    between atoms: N1_2  and  C1_3 
REMARK    2  A    between atoms: C1_3  and  C2_4 
REMARK    3  A    between atoms: C4_6  and  N2_7 
REMARK    4  A    between atoms: N2_7  and  C5_8 
ROOT
HETATM    1  C5  UNL     1      24.039   3.642  51.829  1.00  0.00     0.160 A 
HETATM    2  N3  UNL     1      22.778   3.986  52.141  1.00  0.00    -0.222 NA
HETATM    3  C6  UNL     1      22.199   5.040  51.507  1.00  0.00     0.238 A 
HETATM    4  N4  UNL     1      22.854   5.744  50.580  1.00  0.00    -0.215 NA
HETATM    5  C7  UNL     1      24.128   5.442  50.224  1.00  0.00     0.202 A 
HETATM    6  C8  UNL     1      24.707   4.355  50.888  1.00  0.00     0.129 A 
HETATM    7  N5  UNL     1      26.017   3.819  50.721  1.00  0.00    -0.379 N 
HETATM    8  C9  UNL     1      26.846   3.846  49.508  1.00  0.00     0.161 C 
HETATM    9  C10 UNL     1      26.926   5.193  48.914  1.00  0.00    -0.005 A 
HETATM   10  C11 UNL     1      28.205   5.384  48.388  1.00  0.00     0.035 A 
HETATM   11  C12 UNL     1      28.546   6.571  47.772  1.00  0.00     0.034 A 
HETATM   12 CL1  UNL     1      30.156   6.832  47.101  1.00  0.00    -0.084 Cl
HETATM   13  C13 UNL     1      27.646   7.606  47.650  1.00  0.00     0.026 A 
HETATM   14  C14 UNL     1      26.383   7.400  48.176  1.00  0.00     0.039 A 
HETATM   15  C15 UNL     1      26.019   6.216  48.800  1.00  0.00     0.086 A 
HETATM   16  O1  UNL     1      24.700   6.255  49.243  1.00  0.00    -0.289 OA
HETATM   17  H7  UNL     1      26.369   3.378  51.587  1.00  0.00     0.160 HD
ENDROOT
BRANCH   1  18
HETATM   18  N2  UNL     1      24.556   2.527  52.542  1.00  0.00    -0.338 N 
HETATM   19  H5  UNL     1      25.432   2.233  53.016  1.00  0.00     0.167 HD
BRANCH  18  20
HETATM   20  C4  UNL     1      23.713   1.384  52.734  1.00  0.00     0.057 A 
HETATM   21  C3  UNL     1      23.782   0.398  53.830  1.00  0.00     0.041 A 
HETATM   22  C2  UNL     1      22.744  -0.305  53.345  1.00  0.00    -0.017 A 
HETATM   23  C16 UNL     1      22.696   0.667  52.287  1.00  0.00     0.068 A 
HETATM   24 CL2  UNL     1      21.733   0.966  50.857  1.00  0.00    -0.081 Cl
BRANCH  22  25
HETATM   25  C1  UNL     1      21.996  -1.528  53.734  1.00  0.00     0.163 C 
BRANCH  25  26
HETATM   26  N1  UNL     1      21.183  -1.276  54.906  1.00  0.00    -0.159 NA
HETATM   27  F1  UNL     1      20.914   0.021  55.055  1.00  0.00    -0.136 F 
HETATM   28  H1  UNL     1      21.540  -1.736  55.764  1.00  0.00     0.159 HD
ENDBRANCH  25  26
ENDBRANCH  22  25
ENDBRANCH  18  20
ENDBRANCH   1  18
TORSDOF 4
ENDMDL
MODEL 7
REMARK VINA RESULT:      -8.0      5.110      6.302
REMARK  4 active torsions:
REMARK  status: ('A' for Active; 'I' for Inactive)
REMARK    1  A    between atoms: N1_2  and  C1_3 
REMARK    2  A    between atoms: C1_3  and  C2_4 
REMARK    3  A    between atoms: C4_6  and  N2_7 
REMARK    4  A    between atoms: N2_7  and  C5_8 
ROOT
HETATM    1  C5  UNL     1      24.263   2.539  52.573  1.00  0.00     0.160 A 
HETATM    2  N3  UNL     1      23.216   1.781  52.940  1.00  0.00    -0.222 NA
HETATM    3  C6  UNL     1      22.081   1.805  52.193  1.00  0.00     0.238 A 
HETATM    4  N4  UNL     1      21.981   2.566  51.099  1.00  0.00    -0.215 NA
HETATM    5  C7  UNL     1      23.005   3.351  50.680  1.00  0.00     0.202 A 
HETATM    6  C8  UNL     1      24.165   3.312  51.463  1.00  0.00     0.129 A 
HETATM    7  N5  UNL     1      25.382   4.026  51.266  1.00  0.00    -0.379 N 
HETATM    8  C9  UNL     1      25.952   4.488  49.993  1.00  0.00     0.161 C 
HETATM    9  C10 UNL     1      24.968   5.216  49.170  1.00  0.00    -0.005 A 
HETATM   10  C11 UNL     1      25.614   6.256  48.499  1.00  0.00     0.035 A 
HETATM   11  C12 UNL     1      24.915   7.096  47.657  1.00  0.00     0.034 A 
HETATM   12 CL1  UNL     1      25.713   8.415  46.800  1.00  0.00    -0.084 Cl
HETATM   13  C13 UNL     1      23.563   6.944  47.446  1.00  0.00     0.026 A 
HETATM   14  C14 UNL     1      22.938   5.909  48.118  1.00  0.00     0.039 A 
HETATM   15  C15 UNL     1      23.621   5.052  48.969  1.00  0.00     0.086 A 
HETATM   16  O1  UNL     1      22.773   4.098  49.523  1.00  0.00    -0.289 OA
HETATM   17  H7  UNL     1      25.871   4.211  52.158  1.00  0.00     0.160 HD
ENDROOT
BRANCH   1  18
HETATM   18  N2  UNL     1      25.404   2.444  53.415  1.00  0.00    -0.338 N 
HETATM   19  H5  UNL     1      25.941   3.031  54.081  1.00  0.00     0.167 HD
BRANCH  18  20
HETATM   20  C4  UNL     1      26.133   1.211  53.446  1.00  0.00     0.057 A 
HETATM   21  C3  UNL     1      27.396   0.901  52.747  1.00  0.00     0.041 A 
HETATM   22  C2  UNL     1      27.434  -0.348  53.239  1.00  0.00    -0.017 A 
HETATM   23  C16 UNL     1      26.205  -0.025  53.910  1.00  0.00     0.068 A 
HETATM   24 CL2  UNL     1      25.075  -0.824  54.981  1.00  0.00    -0.081 Cl
BRANCH  22  25
HETATM   25  C1  UNL     1      28.340  -1.520  53.132  1.00  0.00     0.163 C 
BRANCH  25  26
HETATM   26  N1  UNL     1      27.578  -2.735  52.929  1.00  0.00    -0.159 NA
HETATM   27  F1  UNL     1      26.755  -2.638  51.887  1.00  0.00    -0.136 F 
HETATM   28  H1  UNL     1      27.128  -3.090  53.794  1.00  0.00     0.159 HD
ENDBRANCH  25  26
ENDBRANCH  22  25
ENDBRANCH  18  20
ENDBRANCH   1  18
TORSDOF 4
ENDMDL
MODEL 8
REMARK VINA RESULT:      -7.7      6.233      8.488
REMARK  4 active torsions:
REMARK  status: ('A' for Active; 'I' for Inactive)
REMARK    1  A    between atoms: N1_2  and  C1_3 
REMARK    2  A    between atoms: C1_3  and  C2_4 
REMARK    3  A    between atoms: C4_6  and  N2_7 
REMARK    4  A    between atoms: N2_7  and  C5_8 
ROOT
HETATM    1  C5  UNL     1      24.872   3.575  50.986  1.00  0.00     0.160 A 
HETATM    2  N3  UNL     1      23.741   3.643  51.709  1.00  0.00    -0.222 NA
HETATM    3  C6  UNL     1      23.152   4.849  51.915  1.00  0.00     0.238 A 
HETATM    4  N4  UNL     1      23.670   5.975  51.413  1.00  0.00    -0.215 NA
HETATM    5  C7  UNL     1      24.809   5.968  50.676  1.00  0.00     0.202 A 
HETATM    6  C8  UNL     1      25.400   4.716  50.476  1.00  0.00     0.129 A 
HETATM    7  N5  UNL     1      26.589   4.411  49.752  1.00  0.00    -0.379 N 
HETATM    8  C9  UNL     1      27.151   5.142  48.608  1.00  0.00     0.161 C 
HETATM    9  C10 UNL     1      27.241   6.592  48.859  1.00  0.00    -0.005 A 
HETATM   10  C11 UNL     1      28.399   7.089  48.257  1.00  0.00     0.035 A 
HETATM   11  C12 UNL     1      28.722   8.428  48.343  1.00  0.00     0.034 A 
HETATM   12 CL1  UNL     1      30.179   9.074  47.589  1.00  0.00    -0.084 Cl
HETATM   13  C13 UNL     1      27.923   9.321  49.021  1.00  0.00     0.026 A 
HETATM   14  C14 UNL     1      26.780   8.813  49.612  1.00  0.00     0.039 A 
HETATM   15  C15 UNL     1      26.436   7.471  49.538  1.00  0.00     0.086 A 
HETATM   16  O1  UNL     1      25.245   7.210  50.211  1.00  0.00    -0.289 OA
HETATM   17  H7  UNL     1      27.065   3.572  50.124  1.00  0.00     0.160 HD
ENDROOT
BRANCH   1  18
HETATM   18  N2  UNL     1      25.410   2.271  50.824  1.00  0.00    -0.338 N 
HETATM   19  H5  UNL     1      25.541   1.561  50.078  1.00  0.00     0.167 HD
BRANCH  18  20
HETATM   20  C4  UNL     1      25.976   1.615  51.965  1.00  0.00     0.057 A 
HETATM   21  C3  UNL     1      27.344   1.771  52.498  1.00  0.00     0.041 A 
HETATM   22  C2  UNL     1      27.121   0.899  53.495  1.00  0.00    -0.017 A 
HETATM   23  C16 UNL     1      25.795   0.762  52.959  1.00  0.00     0.068 A 
HETATM   24 CL2  UNL     1      24.343  -0.140  53.333  1.00  0.00    -0.081 Cl
BRANCH  22  25
HETATM   25  C1  UNL     1      27.900   0.339  54.630  1.00  0.00     0.163 C 
BRANCH  25  26
HETATM   26  N1  UNL     1      28.702  -0.784  54.192  1.00  0.00    -0.159 NA
HETATM   27  F1  UNL     1      29.843  -0.390  53.627  1.00  0.00    -0.136 F 
HETATM   28  H1  UNL     1      28.171  -1.479  53.635  1.00  0.00     0.159 HD
ENDBRANCH  25  26
ENDBRANCH  22  25
ENDBRANCH  18  20
ENDBRANCH   1  18
TORSDOF 4
ENDMDL
MODEL 9
REMARK VINA RESULT:      -7.6      5.019      6.242
REMARK  4 active torsions:
REMARK  status: ('A' for Active; 'I' for Inactive)
REMARK    1  A    between atoms: N1_2  and  C1_3 
REMARK    2  A    between atoms: C1_3  and  C2_4 
REMARK    3  A    between atoms: C4_6  and  N2_7 
REMARK    4  A    between atoms: N2_7  and  C5_8 
ROOT
HETATM    1  C5  UNL     1      25.780   2.668  50.991  1.00  0.00     0.160 A 
HETATM    2  N3  UNL     1      27.043   2.668  51.451  1.00  0.00    -0.222 NA
HETATM    3  C6  UNL     1      27.375   1.856  52.488  1.00  0.00     0.238 A 
HETATM    4  N4  UNL     1      26.474   1.054  53.064  1.00  0.00    -0.215 NA
HETATM    5  C7  UNL     1      25.185   1.012  52.643  1.00  0.00     0.202 A 
HETATM    6  C8  UNL     1      24.864   1.855  51.573  1.00  0.00     0.129 A 
HETATM    7  N5  UNL     1      23.601   2.018  50.932  1.00  0.00    -0.379 N 
HETATM    8  C9  UNL     1      22.530   1.020  50.799  1.00  0.00     0.161 C 
HETATM    9  C10 UNL     1      22.204   0.375  52.083  1.00  0.00    -0.005 A 
HETATM   10  C11 UNL     1      20.829   0.136  52.137  1.00  0.00     0.035 A 
HETATM   11  C12 UNL     1      20.258  -0.464  53.242  1.00  0.00     0.034 A 
HETATM   12 CL1  UNL     1      18.525  -0.774  53.328  1.00  0.00    -0.084 Cl
HETATM   13  C13 UNL     1      21.015  -0.848  54.326  1.00  0.00     0.026 A 
HETATM   14  C14 UNL     1      22.375  -0.604  54.257  1.00  0.00     0.039 A 
HETATM   15  C15 UNL     1      22.970  -0.003  53.157  1.00  0.00     0.086 A 
HETATM   16  O1  UNL     1      24.345   0.132  53.329  1.00  0.00    -0.289 OA
HETATM   17  H7  UNL     1      23.486   2.967  50.539  1.00  0.00     0.160 HD
ENDROOT
BRANCH   1  18
HETATM   18  N2  UNL     1      25.531   3.547  49.903  1.00  0.00    -0.338 N 
HETATM   19  H5  UNL     1      25.602   3.556  48.867  1.00  0.00     0.167 HD
BRANCH  18  20
HETATM   20  C4  UNL     1      25.029   4.859  50.181  1.00  0.00     0.057 A 
HETATM   21  C3  UNL     1      25.233   6.082  49.380  1.00  0.00     0.041 A 
HETATM   22  C2  UNL     1      24.508   6.832  50.227  1.00  0.00    -0.017 A 
HETATM   23  C16 UNL     1      24.324   5.630  50.992  1.00  0.00     0.068 A 
HETATM   24 CL2  UNL     1      23.509   5.154  52.466  1.00  0.00    -0.081 Cl
BRANCH  22  25
HETATM   25  C1  UNL     1      24.094   8.256  50.320  1.00  0.00     0.163 C 
BRANCH  25  26
HETATM   26  N1  UNL     1      22.732   8.420  49.856  1.00  0.00    -0.159 NA
HETATM   27  F1  UNL     1      21.858   7.808  50.653  1.00  0.00    -0.136 F 
HETATM   28  H1  UNL     1      22.609   8.207  48.849  1.00  0.00     0.159 HD
ENDBRANCH  25  26
ENDBRANCH  22  25
ENDBRANCH  18  20
ENDBRANCH   1  18
TORSDOF 4
ENDMDL
