MODEL 1
REMARK VINA RESULT:      -8.7      0.000      0.000
REMARK  7 active torsions:
REMARK  status: ('A' for Active; 'I' for Inactive)
REMARK    1  A    between atoms: O1_2  and  C2_3 
REMARK    2  A    between atoms: C6_9  and  N3_10 
REMARK    3  A    between atoms: N3_10  and  C7_11 
REMARK    4  A    between atoms: C14_18  and  O2_19 
REMARK    5  A    between atoms: O2_19  and  C15_20 
REMARK    6  A    between atoms: C15_20  and  C16_21 
REMARK    7  A    between atoms: C17_22  and  N4_23 
ROOT
HETATM    1  C2  UNL     1      23.818   1.598  51.591  1.00  0.00     0.103 A 
HETATM    2  C3  UNL     1      23.341   0.613  52.456  1.00  0.00     0.072 A 
HETATM    3  C4  UNL     1      24.174   0.181  53.464  1.00  0.00     0.075 A 
HETATM    4  N1  UNL     1      23.770  -0.763  54.324  1.00  0.00    -0.241 NA
HETATM    5  C5  UNL     1      24.555  -1.212  55.321  1.00  0.00     0.236 A 
HETATM    6  N2  UNL     1      25.789  -0.658  55.417  1.00  0.00    -0.224 NA
HETATM    7  C6  UNL     1      26.224   0.281  54.581  1.00  0.00     0.141 A 
HETATM    8  C12 UNL     1      25.426   0.733  53.572  1.00  0.00     0.042 A 
HETATM    9  C13 UNL     1      25.853   1.698  52.702  1.00  0.00     0.057 A 
HETATM   10  C14 UNL     1      25.083   2.181  51.673  1.00  0.00     0.103 A 
ENDROOT
BRANCH  10  11
HETATM   11  O2  UNL     1      25.380   3.130  50.741  1.00  0.00    -0.345 OA
BRANCH  11  12
HETATM   12  C15 UNL     1      26.348   2.994  49.753  1.00  0.00     0.204 C 
BRANCH  12  13
HETATM   13  C16 UNL     1      26.851   4.274  49.198  1.00  0.00     0.016 C 
HETATM   14  C17 UNL     1      27.837   4.954  48.600  1.00  0.00     0.085 C 
BRANCH  14  15
HETATM   15  N4  UNL     1      27.946   6.313  48.193  1.00  0.00    -0.369 N 
HETATM   16  C18 UNL     1      26.724   7.062  48.074  1.00  0.00     0.150 C 
HETATM   17  C19 UNL     1      26.947   8.515  47.772  1.00  0.00     0.187 C 
HETATM   18  O3  UNL     1      27.903   8.793  46.842  1.00  0.00    -0.386 OA
HETATM   19  C20 UNL     1      28.807   7.802  46.564  1.00  0.00     0.209 C 
HETATM   20  C21 UNL     1      29.129   7.081  47.870  1.00  0.00     0.204 C 
HETATM   21 CL1  UNL     1      30.548   6.042  47.639  1.00  0.00    -0.100 Cl
ENDBRANCH  14  15
ENDBRANCH  12  13
ENDBRANCH  11  12
ENDBRANCH  10  11
BRANCH   1  22
HETATM   22  O1  UNL     1      22.934   1.999  50.589  1.00  0.00    -0.353 OA
HETATM   23  C1  UNL     1      21.732   2.638  50.895  1.00  0.00     0.210 C 
ENDBRANCH   1  22
BRANCH   7  24
HETATM   24  N3  UNL     1      27.537   0.781  54.782  1.00  0.00    -0.344 N 
HETATM   25  H6  UNL     1      27.880   1.593  55.320  1.00  0.00     0.167 HD
BRANCH  24  26
HETATM   26  C7  UNL     1      28.633   0.074  54.146  1.00  0.00     0.013 C 
HETATM   27  C8  UNL     1      29.912   0.197  53.716  1.00  0.00     0.010 C 
HETATM   28  C9  UNL     1      29.695  -1.184  53.378  1.00  0.00     0.006 A 
HETATM   29  C10 UNL     1      28.996  -2.341  53.128  1.00  0.00     0.017 A 
HETATM   30  C11 UNL     1      28.260  -1.197  53.457  1.00  0.00     0.054 A 
ENDBRANCH  24  26
ENDBRANCH   7  24
TORSDOF 7
ENDMDL
MODEL 2
REMARK VINA RESULT:      -8.7      2.610      3.508
REMARK  7 active torsions:
REMARK  status: ('A' for Active; 'I' for Inactive)
REMARK    1  A    between atoms: O1_2  and  C2_3 
REMARK    2  A    between atoms: C6_9  and  N3_10 
REMARK    3  A    between atoms: N3_10  and  C7_11 
REMARK    4  A    between atoms: C14_18  and  O2_19 
REMARK    5  A    between atoms: O2_19  and  C15_20 
REMARK    6  A    between atoms: C15_20  and  C16_21 
REMARK    7  A    between atoms: C17_22  and  N4_23 
ROOT
HETATM    1  C2  UNL     1      20.848  -0.046  53.025  1.00  0.00     0.103 A 
HETATM    2  C3  UNL     1      21.181  -0.674  54.225  1.00  0.00     0.072 A 
HETATM    3  C4  UNL     1      22.516  -0.813  54.533  1.00  0.00     0.075 A 
HETATM    4  N1  UNL     1      22.894  -1.407  55.671  1.00  0.00    -0.241 NA
HETATM    5  C5  UNL     1      24.188  -1.563  56.007  1.00  0.00     0.236 A 
HETATM    6  N2  UNL     1      25.104  -1.084  55.128  1.00  0.00    -0.224 NA
HETATM    7  C6  UNL     1      24.764  -0.488  53.988  1.00  0.00     0.141 A 
HETATM    8  C12 UNL     1      23.452  -0.333  53.652  1.00  0.00     0.042 A 
HETATM    9  C13 UNL     1      23.082   0.277  52.485  1.00  0.00     0.057 A 
HETATM   10  C14 UNL     1      21.774   0.453  52.108  1.00  0.00     0.103 A 
ENDROOT
BRANCH  10  11
HETATM   11  O2  UNL     1      21.268   1.036  50.984  1.00  0.00    -0.345 OA
BRANCH  11  12
HETATM   12  C15 UNL     1      22.008   1.335  49.846  1.00  0.00     0.204 C 
BRANCH  12  13
HETATM   13  C16 UNL     1      22.817   2.574  49.942  1.00  0.00     0.016 C 
HETATM   14  C17 UNL     1      23.282   3.685  49.357  1.00  0.00     0.085 C 
BRANCH  14  15
HETATM   15  N4  UNL     1      24.122   4.731  49.834  1.00  0.00    -0.369 N 
HETATM   16  C18 UNL     1      23.505   6.006  50.081  1.00  0.00     0.150 C 
HETATM   17  C19 UNL     1      24.437   7.003  50.706  1.00  0.00     0.187 C 
HETATM   18  O3  UNL     1      25.698   7.046  50.194  1.00  0.00    -0.386 OA
HETATM   19  C20 UNL     1      26.109   5.966  49.459  1.00  0.00     0.209 C 
HETATM   20  C21 UNL     1      25.541   4.711  50.116  1.00  0.00     0.204 C 
HETATM   21 CL1  UNL     1      26.330   3.276  49.431  1.00  0.00    -0.100 Cl
ENDBRANCH  14  15
ENDBRANCH  12  13
ENDBRANCH  11  12
ENDBRANCH  10  11
BRANCH   1  22
HETATM   22  O1  UNL     1      19.483   0.068  52.762  1.00  0.00    -0.353 OA
HETATM   23  C1  UNL     1      18.579  -0.908  53.182  1.00  0.00     0.210 C 
ENDBRANCH   1  22
BRANCH   7  24
HETATM   24  N3  UNL     1      25.814  -0.032  53.149  1.00  0.00    -0.344 N 
HETATM   25  H6  UNL     1      25.805   0.316  52.177  1.00  0.00     0.167 HD
BRANCH  24  26
HETATM   26  C7  UNL     1      27.159  -0.028  53.693  1.00  0.00     0.013 C 
HETATM   27  C8  UNL     1      28.017   0.656  54.490  1.00  0.00     0.010 C 
HETATM   28  C9  UNL     1      28.869  -0.449  54.143  1.00  0.00     0.006 A 
HETATM   29  C10 UNL     1      29.309  -1.551  53.448  1.00  0.00     0.017 A 
HETATM   30  C11 UNL     1      28.126  -0.941  53.014  1.00  0.00     0.054 A 
ENDBRANCH  24  26
ENDBRANCH   7  24
TORSDOF 7
ENDMDL
MODEL 3
REMARK VINA RESULT:      -8.7      1.626      1.848
REMARK  7 active torsions:
REMARK  status: ('A' for Active; 'I' for Inactive)
REMARK    1  A    between atoms: O1_2  and  C2_3 
REMARK    2  A    between atoms: C6_9  and  N3_10 
REMARK    3  A    between atoms: N3_10  and  C7_11 
REMARK    4  A    between atoms: C14_18  and  O2_19 
REMARK    5  A    between atoms: O2_19  and  C15_20 
REMARK    6  A    between atoms: C15_20  and  C16_21 
REMARK    7  A    between atoms: C17_22  and  N4_23 
ROOT
HETATM    1  C2  UNL     1      23.455   1.395  51.598  1.00  0.00     0.103 A 
HETATM    2  C3  UNL     1      23.110   0.442  52.556  1.00  0.00     0.072 A 
HETATM    3  C4  UNL     1      24.056   0.103  53.499  1.00  0.00     0.075 A 
HETATM    4  N1  UNL     1      23.781  -0.805  54.443  1.00  0.00    -0.241 NA
HETATM    5  C5  UNL     1      24.678  -1.163  55.380  1.00  0.00     0.236 A 
HETATM    6  N2  UNL     1      25.888  -0.554  55.325  1.00  0.00    -0.224 NA
HETATM    7  C6  UNL     1      26.196   0.353  54.402  1.00  0.00     0.141 A 
HETATM    8  C12 UNL     1      25.284   0.713  53.454  1.00  0.00     0.042 A 
HETATM    9  C13 UNL     1      25.581   1.644  52.496  1.00  0.00     0.057 A 
HETATM   10  C14 UNL     1      24.694   2.034  51.523  1.00  0.00     0.103 A 
ENDROOT
BRANCH  10  11
HETATM   11  O2  UNL     1      24.855   2.939  50.518  1.00  0.00    -0.345 OA
BRANCH  11  12
HETATM   12  C15 UNL     1      26.048   3.167  49.842  1.00  0.00     0.204 C 
BRANCH  12  13
HETATM   13  C16 UNL     1      26.343   4.596  49.573  1.00  0.00     0.016 C 
HETATM   14  C17 UNL     1      25.991   5.748  48.988  1.00  0.00     0.085 C 
BRANCH  14  15
HETATM   15  N4  UNL     1      26.607   7.030  48.964  1.00  0.00    -0.369 N 
HETATM   16  C18 UNL     1      27.964   7.098  48.495  1.00  0.00     0.150 C 
HETATM   17  C19 UNL     1      28.482   8.502  48.379  1.00  0.00     0.187 C 
HETATM   18  O3  UNL     1      28.169   9.341  49.404  1.00  0.00    -0.386 OA
HETATM   19  C20 UNL     1      27.134   8.969  50.220  1.00  0.00     0.209 C 
HETATM   20  C21 UNL     1      26.065   8.315  49.350  1.00  0.00     0.204 C 
HETATM   21 CL1  UNL     1      24.565   8.145  50.283  1.00  0.00    -0.100 Cl
ENDBRANCH  14  15
ENDBRANCH  12  13
ENDBRANCH  11  12
ENDBRANCH  10  11
BRANCH   1  22
HETATM   22  O1  UNL     1      22.461   1.701  50.667  1.00  0.00    -0.353 OA
HETATM   23  C1  UNL     1      21.237   2.238  51.064  1.00  0.00     0.210 C 
ENDBRANCH   1  22
BRANCH   7  24
HETATM   24  N3  UNL     1      27.497   0.918  54.446  1.00  0.00    -0.344 N 
HETATM   25  H6  UNL     1      27.826   1.844  54.765  1.00  0.00     0.167 HD
BRANCH  24  26
HETATM   26  C7  UNL     1      28.602   0.106  53.974  1.00  0.00     0.013 C 
HETATM   27  C8  UNL     1      29.932   0.110  53.712  1.00  0.00     0.010 C 
HETATM   28  C9  UNL     1      29.645  -1.258  53.377  1.00  0.00     0.006 A 
HETATM   29  C10 UNL     1      28.888  -2.362  53.061  1.00  0.00     0.017 A 
HETATM   30  C11 UNL     1      28.215  -1.152  53.267  1.00  0.00     0.054 A 
ENDBRANCH  24  26
ENDBRANCH   7  24
TORSDOF 7
ENDMDL
MODEL 4
REMARK VINA RESULT:      -8.7      3.056      4.075
REMARK  7 active torsions:
REMARK  status: ('A' for Active; 'I' for Inactive)
REMARK    1  A    between atoms: O1_2  and  C2_3 
REMARK    2  A    between atoms: C6_9  and  N3_10 
REMARK    3  A    between atoms: N3_10  and  C7_11 
REMARK    4  A    between atoms: C14_18  and  O2_19 
REMARK    5  A    between atoms: O2_19  and  C15_20 
REMARK    6  A    between atoms: C15_20  and  C16_21 
REMARK    7  A    between atoms: C17_22  and  N4_23 
ROOT
HETATM    1  C2  UNL     1      20.771  -0.156  53.093  1.00  0.00     0.103 A 
HETATM    2  C3  UNL     1      21.141  -0.771  54.289  1.00  0.00     0.072 A 
HETATM    3  C4  UNL     1      22.486  -0.879  54.571  1.00  0.00     0.075 A 
HETATM    4  N1  UNL     1      22.899  -1.459  55.704  1.00  0.00    -0.241 NA
HETATM    5  C5  UNL     1      24.202  -1.584  56.015  1.00  0.00     0.236 A 
HETATM    6  N2  UNL     1      25.090  -1.087  55.117  1.00  0.00    -0.224 NA
HETATM    7  C6  UNL     1      24.715  -0.504  53.982  1.00  0.00     0.141 A 
HETATM    8  C12 UNL     1      23.393  -0.380  53.671  1.00  0.00     0.042 A 
HETATM    9  C13 UNL     1      22.987   0.216  52.509  1.00  0.00     0.057 A 
HETATM   10  C14 UNL     1      21.668   0.361  52.156  1.00  0.00     0.103 A 
ENDROOT
BRANCH  10  11
HETATM   11  O2  UNL     1      21.127   0.928  51.041  1.00  0.00    -0.345 OA
BRANCH  11  12
HETATM   12  C15 UNL     1      21.844   1.274  49.902  1.00  0.00     0.204 C 
BRANCH  12  13
HETATM   13  C16 UNL     1      22.559   2.571  49.992  1.00  0.00     0.016 C 
HETATM   14  C17 UNL     1      22.922   3.629  50.727  1.00  0.00     0.085 C 
BRANCH  14  15
HETATM   15  N4  UNL     1      23.689   4.787  50.414  1.00  0.00    -0.369 N 
HETATM   16  C18 UNL     1      25.080   4.590  50.108  1.00  0.00     0.150 C 
HETATM   17  C19 UNL     1      25.772   5.845  49.662  1.00  0.00     0.187 C 
HETATM   18  O3  UNL     1      25.476   6.973  50.365  1.00  0.00    -0.386 OA
HETATM   19  C20 UNL     1      24.337   6.952  51.124  1.00  0.00     0.209 C 
HETATM   20  C21 UNL     1      23.275   6.172  50.355  1.00  0.00     0.204 C 
HETATM   21 CL1  UNL     1      21.690   6.421  51.115  1.00  0.00    -0.100 Cl
ENDBRANCH  14  15
ENDBRANCH  12  13
ENDBRANCH  11  12
ENDBRANCH  10  11
BRANCH   1  22
HETATM   22  O1  UNL     1      19.399  -0.074  52.857  1.00  0.00    -0.353 OA
HETATM   23  C1  UNL     1      18.536  -1.104  53.230  1.00  0.00     0.210 C 
ENDBRANCH   1  22
BRANCH   7  24
HETATM   24  N3  UNL     1      25.737  -0.027  53.121  1.00  0.00    -0.344 N 
HETATM   25  H6  UNL     1      25.702   0.314  52.147  1.00  0.00     0.167 HD
BRANCH  24  26
HETATM   26  C7  UNL     1      27.091   0.015  53.641  1.00  0.00     0.013 C 
HETATM   27  C8  UNL     1      27.955   0.744  54.388  1.00  0.00     0.010 C 
HETATM   28  C9  UNL     1      28.812  -0.369  54.080  1.00  0.00     0.006 A 
HETATM   29  C10 UNL     1      29.251  -1.499  53.431  1.00  0.00     0.017 A 
HETATM   30  C11 UNL     1      28.055  -0.921  52.990  1.00  0.00     0.054 A 
ENDBRANCH  24  26
ENDBRANCH   7  24
TORSDOF 7
ENDMDL
MODEL 5
REMARK VINA RESULT:      -8.3      3.663      6.694
REMARK  7 active torsions:
REMARK  status: ('A' for Active; 'I' for Inactive)
REMARK    1  A    between atoms: O1_2  and  C2_3 
REMARK    2  A    between atoms: C6_9  and  N3_10 
REMARK    3  A    between atoms: N3_10  and  C7_11 
REMARK    4  A    between atoms: C14_18  and  O2_19 
REMARK    5  A    between atoms: O2_19  and  C15_20 
REMARK    6  A    between atoms: C15_20  and  C16_21 
REMARK    7  A    between atoms: C17_22  and  N4_23 
ROOT
HETATM    1  C2  UNL     1      21.509   4.793  51.166  1.00  0.00     0.103 A 
HETATM    2  C3  UNL     1      20.164   4.427  51.218  1.00  0.00     0.072 A 
HETATM    3  C4  UNL     1      19.864   3.098  51.422  1.00  0.00     0.075 A 
HETATM    4  N1  UNL     1      18.591   2.690  51.481  1.00  0.00    -0.241 NA
HETATM    5  C5  UNL     1      18.257   1.401  51.677  1.00  0.00     0.236 A 
HETATM    6  N2  UNL     1      19.282   0.523  51.814  1.00  0.00    -0.224 NA
HETATM    7  C6  UNL     1      20.559   0.894  51.761  1.00  0.00     0.141 A 
HETATM    8  C12 UNL     1      20.892   2.201  51.562  1.00  0.00     0.042 A 
HETATM    9  C13 UNL     1      22.199   2.603  51.504  1.00  0.00     0.057 A 
HETATM   10  C14 UNL     1      22.578   3.907  51.305  1.00  0.00     0.103 A 
ENDROOT
BRANCH  10  11
HETATM   11  O2  UNL     1      23.830   4.442  51.226  1.00  0.00    -0.345 OA
BRANCH  11  12
HETATM   12  C15 UNL     1      24.875   3.903  50.485  1.00  0.00     0.204 C 
BRANCH  12  13
HETATM   13  C16 UNL     1      25.647   2.846  51.182  1.00  0.00     0.016 C 
HETATM   14  C17 UNL     1      26.823   2.404  51.646  1.00  0.00     0.085 C 
BRANCH  14  15
HETATM   15  N4  UNL     1      27.189   1.211  52.329  1.00  0.00    -0.369 N 
HETATM   16  C18 UNL     1      26.404   0.036  52.063  1.00  0.00     0.150 C 
HETATM   17  C19 UNL     1      26.946  -1.199  52.723  1.00  0.00     0.187 C 
HETATM   18  O3  UNL     1      27.373  -1.053  54.008  1.00  0.00    -0.386 OA
HETATM   19  C20 UNL     1      27.628   0.222  54.437  1.00  0.00     0.209 C 
HETATM   20  C21 UNL     1      28.259   0.989  53.278  1.00  0.00     0.204 C 
HETATM   21 CL1  UNL     1      28.936   2.516  53.878  1.00  0.00    -0.100 Cl
ENDBRANCH  14  15
ENDBRANCH  12  13
ENDBRANCH  11  12
ENDBRANCH  10  11
BRANCH   1  22
HETATM   22  O1  UNL     1      21.757   6.150  50.958  1.00  0.00    -0.353 OA
HETATM   23  C1  UNL     1      21.164   6.843  49.903  1.00  0.00     0.210 C 
ENDBRANCH   1  22
BRANCH   7  24
HETATM   24  N3  UNL     1      21.542  -0.117  51.916  1.00  0.00    -0.344 N 
HETATM   25  H6  UNL     1      22.149  -0.587  51.224  1.00  0.00     0.167 HD
BRANCH  24  26
HETATM   26  C7  UNL     1      21.786  -0.623  53.253  1.00  0.00     0.013 C 
HETATM   27  C8  UNL     1      21.187  -1.128  54.359  1.00  0.00     0.010 C 
HETATM   28  C9  UNL     1      22.554  -1.191  54.799  1.00  0.00     0.006 A 
HETATM   29  C10 UNL     1      23.903  -0.926  54.811  1.00  0.00     0.017 A 
HETATM   30  C11 UNL     1      23.130  -0.308  53.822  1.00  0.00     0.054 A 
ENDBRANCH  24  26
ENDBRANCH   7  24
TORSDOF 7
ENDMDL
MODEL 6
REMARK VINA RESULT:      -8.2      1.581      2.070
REMARK  7 active torsions:
REMARK  status: ('A' for Active; 'I' for Inactive)
REMARK    1  A    between atoms: O1_2  and  C2_3 
REMARK    2  A    between atoms: C6_9  and  N3_10 
REMARK    3  A    between atoms: N3_10  and  C7_11 
REMARK    4  A    between atoms: C14_18  and  O2_19 
REMARK    5  A    between atoms: O2_19  and  C15_20 
REMARK    6  A    between atoms: C15_20  and  C16_21 
REMARK    7  A    between atoms: C17_22  and  N4_23 
ROOT
HETATM    1  C2  UNL     1      23.290   2.283  50.642  1.00  0.00     0.103 A 
HETATM    2  C3  UNL     1      22.464   1.358  51.280  1.00  0.00     0.072 A 
HETATM    3  C4  UNL     1      22.985   0.652  52.343  1.00  0.00     0.075 A 
HETATM    4  N1  UNL     1      22.238  -0.249  52.993  1.00  0.00    -0.241 NA
HETATM    5  C5  UNL     1      22.711  -0.958  54.034  1.00  0.00     0.236 A 
HETATM    6  N2  UNL     1      23.995  -0.716  54.400  1.00  0.00    -0.224 NA
HETATM    7  C6  UNL     1      24.765   0.172  53.777  1.00  0.00     0.141 A 
HETATM    8  C12 UNL     1      24.282   0.888  52.722  1.00  0.00     0.042 A 
HETATM    9  C13 UNL     1      25.058   1.806  52.068  1.00  0.00     0.057 A 
HETATM   10  C14 UNL     1      24.612   2.547  51.002  1.00  0.00     0.103 A 
ENDROOT
BRANCH  10  11
HETATM   11  O2  UNL     1      25.270   3.485  50.264  1.00  0.00    -0.345 OA
BRANCH  11  12
HETATM   12  C15 UNL     1      26.358   3.224  49.440  1.00  0.00     0.204 C 
BRANCH  12  13
HETATM   13  C16 UNL     1      27.110   4.427  49.008  1.00  0.00     0.016 C 
HETATM   14  C17 UNL     1      27.108   5.732  48.710  1.00  0.00     0.085 C 
BRANCH  14  15
HETATM   15  N4  UNL     1      28.143   6.614  48.290  1.00  0.00    -0.369 N 
HETATM   16  C18 UNL     1      29.477   6.081  48.234  1.00  0.00     0.150 C 
HETATM   17  C19 UNL     1      30.475   7.041  47.655  1.00  0.00     0.187 C 
HETATM   18  O3  UNL     1      30.373   8.334  48.071  1.00  0.00    -0.386 OA
HETATM   19  C20 UNL     1      29.188   8.710  48.646  1.00  0.00     0.209 C 
HETATM   20  C21 UNL     1      28.060   8.005  47.899  1.00  0.00     0.204 C 
HETATM   21 CL1  UNL     1      26.505   8.727  48.356  1.00  0.00    -0.100 Cl
ENDBRANCH  14  15
ENDBRANCH  12  13
ENDBRANCH  11  12
ENDBRANCH  10  11
BRANCH   1  22
HETATM   22  O1  UNL     1      22.713   2.970  49.573  1.00  0.00    -0.353 OA
HETATM   23  C1  UNL     1      22.665   2.413  48.295  1.00  0.00     0.210 C 
ENDBRANCH   1  22
BRANCH   7  24
HETATM   24  N3  UNL     1      26.093   0.334  54.250  1.00  0.00    -0.344 N 
HETATM   25  H6  UNL     1      26.487   0.967  54.965  1.00  0.00     0.167 HD
BRANCH  24  26
HETATM   26  C7  UNL     1      27.124  -0.505  53.669  1.00  0.00     0.013 C 
HETATM   27  C8  UNL     1      27.341  -1.616  52.924  1.00  0.00     0.010 C 
HETATM   28  C9  UNL     1      28.707  -1.214  53.125  1.00  0.00     0.006 A 
HETATM   29  C10 UNL     1      29.770  -0.545  53.685  1.00  0.00     0.017 A 
HETATM   30  C11 UNL     1      28.499  -0.302  54.217  1.00  0.00     0.054 A 
ENDBRANCH  24  26
ENDBRANCH   7  24
TORSDOF 7
ENDMDL
MODEL 7
REMARK VINA RESULT:      -8.2      2.200      4.902
REMARK  7 active torsions:
REMARK  status: ('A' for Active; 'I' for Inactive)
REMARK    1  A    between atoms: O1_2  and  C2_3 
REMARK    2  A    between atoms: C6_9  and  N3_10 
REMARK    3  A    between atoms: N3_10  and  C7_11 
REMARK    4  A    between atoms: C14_18  and  O2_19 
REMARK    5  A    between atoms: O2_19  and  C15_20 
REMARK    6  A    between atoms: C15_20  and  C16_21 
REMARK    7  A    between atoms: C17_22  and  N4_23 
ROOT
HETATM    1  C2  UNL     1      27.423   1.382  53.061  1.00  0.00     0.103 A 
HETATM    2  C3  UNL     1      27.089   0.570  54.145  1.00  0.00     0.072 A 
HETATM    3  C4  UNL     1      25.813   0.052  54.195  1.00  0.00     0.075 A 
HETATM    4  N1  UNL     1      25.437  -0.733  55.211  1.00  0.00    -0.241 NA
HETATM    5  C5  UNL     1      24.200  -1.258  55.296  1.00  0.00     0.236 A 
HETATM    6  N2  UNL     1      23.342  -0.950  54.293  1.00  0.00    -0.224 NA
HETATM    7  C6  UNL     1      23.681  -0.174  53.267  1.00  0.00     0.141 A 
HETATM    8  C12 UNL     1      24.935   0.355  53.185  1.00  0.00     0.042 A 
HETATM    9  C13 UNL     1      25.304   1.157  52.139  1.00  0.00     0.057 A 
HETATM   10  C14 UNL     1      26.555   1.710  52.019  1.00  0.00     0.103 A 
ENDROOT
BRANCH  10  11
HETATM   11  O2  UNL     1      27.052   2.518  51.040  1.00  0.00    -0.345 OA
BRANCH  11  12
HETATM   12  C15 UNL     1      26.332   2.961  49.937  1.00  0.00     0.204 C 
BRANCH  12  13
HETATM   13  C16 UNL     1      26.491   4.404  49.634  1.00  0.00     0.016 C 
HETATM   14  C17 UNL     1      25.924   5.590  49.378  1.00  0.00     0.085 C 
BRANCH  14  15
HETATM   15  N4  UNL     1      26.478   6.873  49.110  1.00  0.00    -0.369 N 
HETATM   16  C18 UNL     1      27.767   6.911  48.474  1.00  0.00     0.150 C 
HETATM   17  C19 UNL     1      28.208   8.299  48.112  1.00  0.00     0.187 C 
HETATM   18  O3  UNL     1      27.983   9.262  49.049  1.00  0.00    -0.386 OA
HETATM   19  C20 UNL     1      27.068   8.977  50.027  1.00  0.00     0.209 C 
HETATM   20  C21 UNL     1      25.932   8.184  49.387  1.00  0.00     0.204 C 
HETATM   21 CL1  UNL     1      24.560   8.103  50.510  1.00  0.00    -0.100 Cl
ENDBRANCH  14  15
ENDBRANCH  12  13
ENDBRANCH  11  12
ENDBRANCH  10  11
BRANCH   1  22
HETATM   22  O1  UNL     1      28.726   1.880  53.060  1.00  0.00    -0.353 OA
HETATM   23  C1  UNL     1      29.452   2.015  54.243  1.00  0.00     0.210 C 
ENDBRANCH   1  22
BRANCH   7  24
HETATM   24  N3  UNL     1      22.693   0.078  52.280  1.00  0.00    -0.344 N 
HETATM   25  H6  UNL     1      22.590  -0.278  51.316  1.00  0.00     0.167 HD
BRANCH  24  26
HETATM   26  C7  UNL     1      21.613   0.985  52.621  1.00  0.00     0.013 C 
HETATM   27  C8  UNL     1      20.430   1.082  53.275  1.00  0.00     0.010 C 
HETATM   28  C9  UNL     1      20.546   2.441  52.823  1.00  0.00     0.006 A 
HETATM   29  C10 UNL     1      21.011   3.505  52.085  1.00  0.00     0.017 A 
HETATM   30  C11 UNL     1      21.558   2.244  51.821  1.00  0.00     0.054 A 
ENDBRANCH  24  26
ENDBRANCH   7  24
TORSDOF 7
ENDMDL
MODEL 8
REMARK VINA RESULT:      -8.1      3.097      5.560
REMARK  7 active torsions:
REMARK  status: ('A' for Active; 'I' for Inactive)
REMARK    1  A    between atoms: O1_2  and  C2_3 
REMARK    2  A    between atoms: C6_9  and  N3_10 
REMARK    3  A    between atoms: N3_10  and  C7_11 
REMARK    4  A    between atoms: C14_18  and  O2_19 
REMARK    5  A    between atoms: O2_19  and  C15_20 
REMARK    6  A    between atoms: C15_20  and  C16_21 
REMARK    7  A    between atoms: C17_22  and  N4_23 
ROOT
HETATM    1  C2  UNL     1      25.960  -0.341  53.660  1.00  0.00     0.103 A 
HETATM    2  C3  UNL     1      25.010  -0.901  54.515  1.00  0.00     0.072 A 
HETATM    3  C4  UNL     1      23.679  -0.700  54.222  1.00  0.00     0.075 A 
HETATM    4  N1  UNL     1      22.725  -1.213  55.008  1.00  0.00    -0.241 NA
HETATM    5  C5  UNL     1      21.414  -1.038  54.756  1.00  0.00     0.236 A 
HETATM    6  N2  UNL     1      21.101  -0.309  53.656  1.00  0.00    -0.224 NA
HETATM    7  C6  UNL     1      22.023   0.215  52.853  1.00  0.00     0.141 A 
HETATM    8  C12 UNL     1      23.349   0.036  53.112  1.00  0.00     0.042 A 
HETATM    9  C13 UNL     1      24.313   0.567  52.299  1.00  0.00     0.057 A 
HETATM   10  C14 UNL     1      25.658   0.411  52.524  1.00  0.00     0.103 A 
ENDROOT
BRANCH  10  11
HETATM   11  O2  UNL     1      26.716   0.881  51.804  1.00  0.00    -0.345 OA
BRANCH  11  12
HETATM   12  C15 UNL     1      27.153   2.200  51.808  1.00  0.00     0.204 C 
BRANCH  12  13
HETATM   13  C16 UNL     1      26.358   3.117  50.954  1.00  0.00     0.016 C 
HETATM   14  C17 UNL     1      25.496   3.281  49.943  1.00  0.00     0.085 C 
BRANCH  14  15
HETATM   15  N4  UNL     1      24.915   4.445  49.367  1.00  0.00    -0.369 N 
HETATM   16  C18 UNL     1      25.556   5.702  49.641  1.00  0.00     0.150 C 
HETATM   17  C19 UNL     1      24.953   6.851  48.885  1.00  0.00     0.187 C 
HETATM   18  O3  UNL     1      23.593   6.882  48.828  1.00  0.00    -0.386 OA
HETATM   19  C20 UNL     1      22.932   5.716  49.109  1.00  0.00     0.209 C 
HETATM   20  C21 UNL     1      23.744   4.564  48.525  1.00  0.00     0.204 C 
HETATM   21 CL1  UNL     1      22.767   3.083  48.539  1.00  0.00    -0.100 Cl
ENDBRANCH  14  15
ENDBRANCH  12  13
ENDBRANCH  11  12
ENDBRANCH  10  11
BRANCH   1  22
HETATM   22  O1  UNL     1      27.292  -0.575  54.002  1.00  0.00    -0.353 OA
HETATM   23  C1  UNL     1      27.955   0.232  54.927  1.00  0.00     0.210 C 
ENDBRANCH   1  22
BRANCH   7  24
HETATM   24  N3  UNL     1      21.570   0.961  51.734  1.00  0.00    -0.344 N 
HETATM   25  H6  UNL     1      21.461   0.698  50.741  1.00  0.00     0.167 HD
BRANCH  24  26
HETATM   26  C7  UNL     1      21.178   2.340  51.956  1.00  0.00     0.013 C 
HETATM   27  C8  UNL     1      20.118   3.185  51.997  1.00  0.00     0.010 C 
HETATM   28  C9  UNL     1      21.159   4.118  52.332  1.00  0.00     0.006 A 
HETATM   29  C10 UNL     1      22.436   4.613  52.460  1.00  0.00     0.017 A 
HETATM   30  C11 UNL     1      22.288   3.338  51.903  1.00  0.00     0.054 A 
ENDBRANCH  24  26
ENDBRANCH   7  24
TORSDOF 7
ENDMDL
MODEL 9
REMARK VINA RESULT:      -7.9      3.679      6.063
REMARK  7 active torsions:
REMARK  status: ('A' for Active; 'I' for Inactive)
REMARK    1  A    between atoms: O1_2  and  C2_3 
REMARK    2  A    between atoms: C6_9  and  N3_10 
REMARK    3  A    between atoms: N3_10  and  C7_11 
REMARK    4  A    between atoms: C14_18  and  O2_19 
REMARK    5  A    between atoms: O2_19  and  C15_20 
REMARK    6  A    between atoms: C15_20  and  C16_21 
REMARK    7  A    between atoms: C17_22  and  N4_23 
ROOT
HETATM    1  C2  UNL     1      26.912   0.615  53.356  1.00  0.00     0.103 A 
HETATM    2  C3  UNL     1      26.471  -0.040  54.506  1.00  0.00     0.072 A 
HETATM    3  C4  UNL     1      25.169  -0.490  54.535  1.00  0.00     0.075 A 
HETATM    4  N1  UNL     1      24.692  -1.125  55.612  1.00  0.00    -0.241 NA
HETATM    5  C5  UNL     1      23.427  -1.578  55.679  1.00  0.00     0.236 A 
HETATM    6  N2  UNL     1      22.647  -1.359  54.591  1.00  0.00    -0.224 NA
HETATM    7  C6  UNL     1      23.088  -0.732  53.504  1.00  0.00     0.141 A 
HETATM    8  C12 UNL     1      24.370  -0.275  53.441  1.00  0.00     0.042 A 
HETATM    9  C13 UNL     1      24.843   0.372  52.332  1.00  0.00     0.057 A 
HETATM   10  C14 UNL     1      26.126   0.850  52.227  1.00  0.00     0.103 A 
ENDROOT
BRANCH  10  11
HETATM   11  O2  UNL     1      26.723   1.506  51.193  1.00  0.00    -0.345 OA
BRANCH  11  12
HETATM   12  C15 UNL     1      26.687   2.882  51.003  1.00  0.00     0.204 C 
BRANCH  12  13
HETATM   13  C16 UNL     1      25.396   3.402  50.489  1.00  0.00     0.016 C 
HETATM   14  C17 UNL     1      24.689   3.907  49.470  1.00  0.00     0.085 C 
BRANCH  14  15
HETATM   15  N4  UNL     1      23.333   4.324  49.366  1.00  0.00    -0.369 N 
HETATM   16  C18 UNL     1      23.073   5.737  49.431  1.00  0.00     0.150 C 
HETATM   17  C19 UNL     1      21.636   6.087  49.179  1.00  0.00     0.187 C 
HETATM   18  O3  UNL     1      20.711   5.289  49.781  1.00  0.00    -0.386 OA
HETATM   19  C20 UNL     1      21.138   4.064  50.220  1.00  0.00     0.209 C 
HETATM   20  C21 UNL     1      22.138   3.524  49.202  1.00  0.00     0.204 C 
HETATM   21 CL1  UNL     1      22.444   1.806  49.525  1.00  0.00    -0.100 Cl
ENDBRANCH  14  15
ENDBRANCH  12  13
ENDBRANCH  11  12
ENDBRANCH  10  11
BRANCH   1  22
HETATM   22  O1  UNL     1      28.237   1.049  53.380  1.00  0.00    -0.353 OA
HETATM   23  C1  UNL     1      29.106   0.673  54.405  1.00  0.00     0.210 C 
ENDBRANCH   1  22
BRANCH   7  24
HETATM   24  N3  UNL     1      22.175  -0.561  52.430  1.00  0.00    -0.344 N 
HETATM   25  H6  UNL     1      22.108  -1.032  51.514  1.00  0.00     0.167 HD
BRANCH  24  26
HETATM   26  C7  UNL     1      21.130   0.434  52.585  1.00  0.00     0.013 C 
HETATM   27  C8  UNL     1      20.662   1.413  53.397  1.00  0.00     0.010 C 
HETATM   28  C9  UNL     1      19.695   1.520  52.339  1.00  0.00     0.006 A 
HETATM   29  C10 UNL     1      18.979   1.154  51.222  1.00  0.00     0.017 A 
HETATM   30  C11 UNL     1      19.941   0.256  51.699  1.00  0.00     0.054 A 
ENDBRANCH  24  26
ENDBRANCH   7  24
TORSDOF 7
ENDMDL
