MODEL 1
REMARK VINA RESULT:      -7.5      0.000      0.000
REMARK  6 active torsions:
REMARK  status: ('A' for Active; 'I' for Inactive)
REMARK    1  A    between atoms: C3_3  and  C4_4 
REMARK    2  A    between atoms: C3_3  and  O2_21 
REMARK    3  A    between atoms: C4_4  and  N1_5 
REMARK    4  A    between atoms: N1_5  and  C5_6 
REMARK    5  A    between atoms: N3_11  and  C9_12 
REMARK    6  A    between atoms: C14_17  and  O1_18 
ROOT
HETATM    1  C5  UNL     1      24.265  -0.666  54.189  1.00  0.00     0.117 C 
HETATM    2  C6  UNL     1      23.394  -1.156  55.053  1.00  0.00     0.068 C 
HETATM    3  C7  UNL     1      21.943  -1.096  54.954  1.00  0.00     0.116 C 
HETATM    4  N2  UNL     1      21.178  -0.381  54.240  1.00  0.00    -0.280 NA
HETATM    5  C8  UNL     1      21.384   0.632  53.267  1.00  0.00     0.297 C 
HETATM    6  N3  UNL     1      22.682   0.553  52.647  1.00  0.00    -0.268 N 
HETATM    7  N4  UNL     1      23.950   0.030  52.961  1.00  0.00    -0.281 N 
HETATM    8  H19 UNL     1      24.679   0.177  52.228  1.00  0.00     0.189 HD
ENDROOT
BRANCH   1   9
HETATM    9  N1  UNL     1      25.700  -0.745  54.317  1.00  0.00    -0.369 N 
HETATM   10  H7  UNL     1      26.146  -1.599  53.882  1.00  0.00     0.161 HD
BRANCH   9  11
HETATM   11  C4  UNL     1      26.513   0.221  54.960  1.00  0.00     0.185 C 
BRANCH  11  12
HETATM   12  C3  UNL     1      27.905   0.331  54.526  1.00  0.00     0.059 C 
HETATM   13  C2  UNL     1      28.612  -0.694  54.021  1.00  0.00     0.003 C 
HETATM   14  C1  UNL     1      29.998  -0.843  53.521  1.00  0.00     0.038 C 
BRANCH  12  15
HETATM   15  O2  UNL     1      28.702   1.458  54.553  1.00  0.00    -0.359 OA
HETATM   16  C16 UNL     1      28.674   2.526  53.640  1.00  0.00     0.209 C 
ENDBRANCH  12  15
ENDBRANCH  11  12
ENDBRANCH   9  11
ENDBRANCH   1   9
BRANCH   6  17
HETATM   17  C9  UNL     1      22.651   1.194  51.352  1.00  0.00     0.086 A 
HETATM   18  C10 UNL     1      21.589   0.646  50.630  1.00  0.00     0.034 A 
HETATM   19  C11 UNL     1      21.326   1.084  49.328  1.00  0.00     0.002 A 
HETATM   20  C12 UNL     1      22.150   2.064  48.802  1.00  0.00     0.003 A 
HETATM   21  C13 UNL     1      23.198   2.593  49.536  1.00  0.00     0.039 A 
HETATM   22  C14 UNL     1      23.455   2.165  50.810  1.00  0.00     0.096 A 
BRANCH  22  23
HETATM   23  O1  UNL     1      24.444   2.580  51.670  1.00  0.00    -0.354 OA
HETATM   24  C15 UNL     1      25.775   2.824  51.239  1.00  0.00     0.210 C 
ENDBRANCH  22  23
ENDBRANCH   6  17
TORSDOF 6
ENDMDL
MODEL 2
REMARK VINA RESULT:      -7.4      2.298      5.854
REMARK  6 active torsions:
REMARK  status: ('A' for Active; 'I' for Inactive)
REMARK    1  A    between atoms: C3_3  and  C4_4 
REMARK    2  A    between atoms: C3_3  and  O2_21 
REMARK    3  A    between atoms: C4_4  and  N1_5 
REMARK    4  A    between atoms: N1_5  and  C5_6 
REMARK    5  A    between atoms: N3_11  and  C9_12 
REMARK    6  A    between atoms: C14_17  and  O1_18 
ROOT
HETATM    1  C5  UNL     1      24.458   1.814  51.645  1.00  0.00     0.117 C 
HETATM    2  C6  UNL     1      23.263   1.684  52.192  1.00  0.00     0.068 C 
HETATM    3  C7  UNL     1      22.907   0.825  53.312  1.00  0.00     0.116 C 
HETATM    4  N2  UNL     1      23.507  -0.157  53.842  1.00  0.00    -0.280 NA
HETATM    5  C8  UNL     1      24.733  -0.828  53.589  1.00  0.00     0.297 C 
HETATM    6  N3  UNL     1      25.687  -0.003  52.895  1.00  0.00    -0.268 N 
HETATM    7  N4  UNL     1      25.662   1.125  52.054  1.00  0.00    -0.281 N 
HETATM    8  H19 UNL     1      26.600   1.451  51.729  1.00  0.00     0.189 HD
ENDROOT
BRANCH   1   9
HETATM    9  N1  UNL     1      24.778   2.677  50.534  1.00  0.00    -0.369 N 
HETATM   10  H7  UNL     1      25.168   2.189  49.682  1.00  0.00     0.161 HD
BRANCH   9  11
HETATM   11  C4  UNL     1      24.599   4.082  50.518  1.00  0.00     0.185 C 
BRANCH  11  12
HETATM   12  C3  UNL     1      25.667   4.894  49.937  1.00  0.00     0.059 C 
HETATM   13  C2  UNL     1      26.690   4.386  49.230  1.00  0.00     0.003 C 
HETATM   14  C1  UNL     1      27.869   4.974  48.554  1.00  0.00     0.038 C 
BRANCH  12  15
HETATM   15  O2  UNL     1      25.804   6.266  50.005  1.00  0.00    -0.359 OA
HETATM   16  C16 UNL     1      24.952   7.162  50.673  1.00  0.00     0.209 C 
ENDBRANCH  12  15
ENDBRANCH  11  12
ENDBRANCH   9  11
ENDBRANCH   1   9
BRANCH   6  17
HETATM   17  C9  UNL     1      27.028  -0.482  53.142  1.00  0.00     0.086 A 
HETATM   18  C10 UNL     1      27.099  -1.802  52.690  1.00  0.00     0.034 A 
HETATM   19  C11 UNL     1      28.292  -2.521  52.809  1.00  0.00     0.002 A 
HETATM   20  C12 UNL     1      29.375  -1.876  53.382  1.00  0.00     0.003 A 
HETATM   21  C13 UNL     1      29.282  -0.566  53.823  1.00  0.00     0.039 A 
HETATM   22  C14 UNL     1      28.114   0.137  53.707  1.00  0.00     0.096 A 
BRANCH  22  23
HETATM   23  O1  UNL     1      27.853   1.431  54.088  1.00  0.00    -0.354 OA
HETATM   24  C15 UNL     1      28.631   2.530  53.639  1.00  0.00     0.210 C 
ENDBRANCH  22  23
ENDBRANCH   6  17
TORSDOF 6
ENDMDL
MODEL 3
REMARK VINA RESULT:      -7.1      2.965      4.337
REMARK  6 active torsions:
REMARK  status: ('A' for Active; 'I' for Inactive)
REMARK    1  A    between atoms: C3_3  and  C4_4 
REMARK    2  A    between atoms: C3_3  and  O2_21 
REMARK    3  A    between atoms: C4_4  and  N1_5 
REMARK    4  A    between atoms: N1_5  and  C5_6 
REMARK    5  A    between atoms: N3_11  and  C9_12 
REMARK    6  A    between atoms: C14_17  and  O1_18 
ROOT
HETATM    1  C5  UNL     1      25.241   2.165  52.843  1.00  0.00     0.117 C 
HETATM    2  C6  UNL     1      24.176   1.401  52.677  1.00  0.00     0.068 C 
HETATM    3  C7  UNL     1      23.249   1.433  51.555  1.00  0.00     0.116 C 
HETATM    4  N2  UNL     1      23.047   2.303  50.656  1.00  0.00    -0.280 NA
HETATM    5  C8  UNL     1      23.606   3.574  50.357  1.00  0.00     0.297 C 
HETATM    6  N3  UNL     1      24.933   3.738  50.894  1.00  0.00    -0.268 N 
HETATM    7  N4  UNL     1      25.704   3.192  51.937  1.00  0.00    -0.281 N 
HETATM    8  H19 UNL     1      26.668   3.585  52.022  1.00  0.00     0.189 HD
ENDROOT
BRANCH   1   9
HETATM    9  N1  UNL     1      26.142   2.106  53.968  1.00  0.00    -0.369 N 
HETATM   10  H7  UNL     1      25.688   2.226  54.916  1.00  0.00     0.161 HD
BRANCH   9  11
HETATM   11  C4  UNL     1      27.540   1.898  53.880  1.00  0.00     0.185 C 
BRANCH  11  12
HETATM   12  C3  UNL     1      28.019   0.516  53.867  1.00  0.00     0.059 C 
HETATM   13  C2  UNL     1      29.314   0.177  53.748  1.00  0.00     0.003 C 
HETATM   14  C1  UNL     1      30.042  -1.113  53.708  1.00  0.00     0.038 C 
BRANCH  12  15
HETATM   15  O2  UNL     1      27.260  -0.632  53.974  1.00  0.00    -0.359 OA
HETATM   16  C16 UNL     1      26.614  -1.310  52.926  1.00  0.00     0.209 C 
ENDBRANCH  12  15
ENDBRANCH  11  12
ENDBRANCH   9  11
ENDBRANCH   1   9
BRANCH   6  17
HETATM   17  C9  UNL     1      25.649   4.745  50.143  1.00  0.00     0.086 A 
HETATM   18  C10 UNL     1      26.645   4.099  49.407  1.00  0.00     0.034 A 
HETATM   19  C11 UNL     1      27.500   4.839  48.584  1.00  0.00     0.002 A 
HETATM   20  C12 UNL     1      27.315   6.211  48.536  1.00  0.00     0.003 A 
HETATM   21  C13 UNL     1      26.321   6.830  49.274  1.00  0.00     0.039 A 
HETATM   22  C14 UNL     1      25.484   6.105  50.079  1.00  0.00     0.096 A 
BRANCH  22  23
HETATM   23  O1  UNL     1      24.455   6.556  50.870  1.00  0.00    -0.354 OA
HETATM   24  C15 UNL     1      23.502   7.506  50.414  1.00  0.00     0.210 C 
ENDBRANCH  22  23
ENDBRANCH   6  17
TORSDOF 6
ENDMDL
MODEL 4
REMARK VINA RESULT:      -7.0      2.159      5.296
REMARK  6 active torsions:
REMARK  status: ('A' for Active; 'I' for Inactive)
REMARK    1  A    between atoms: C3_3  and  C4_4 
REMARK    2  A    between atoms: C3_3  and  O2_21 
REMARK    3  A    between atoms: C4_4  and  N1_5 
REMARK    4  A    between atoms: N1_5  and  C5_6 
REMARK    5  A    between atoms: N3_11  and  C9_12 
REMARK    6  A    between atoms: C14_17  and  O1_18 
ROOT
HETATM    1  C5  UNL     1      26.976   1.823  52.473  1.00  0.00     0.117 C 
HETATM    2  C6  UNL     1      28.031   1.333  53.100  1.00  0.00     0.068 C 
HETATM    3  C7  UNL     1      28.053   0.198  54.011  1.00  0.00     0.116 C 
HETATM    4  N2  UNL     1      27.123  -0.403  54.629  1.00  0.00    -0.280 NA
HETATM    5  C8  UNL     1      25.715  -0.242  54.706  1.00  0.00     0.297 C 
HETATM    6  N3  UNL     1      25.168   0.436  53.559  1.00  0.00    -0.268 N 
HETATM    7  N4  UNL     1      25.622   1.324  52.566  1.00  0.00    -0.281 N 
HETATM    8  H19 UNL     1      24.898   1.612  51.870  1.00  0.00     0.189 HD
ENDROOT
BRANCH   1   9
HETATM    9  N1  UNL     1      26.990   2.950  51.574  1.00  0.00    -0.369 N 
HETATM   10  H7  UNL     1      27.446   3.825  51.955  1.00  0.00     0.161 HD
BRANCH   9  11
HETATM   11  C4  UNL     1      26.455   2.951  50.262  1.00  0.00     0.185 C 
BRANCH  11  12
HETATM   12  C3  UNL     1      26.027   4.234  49.707  1.00  0.00     0.059 C 
HETATM   13  C2  UNL     1      26.838   5.062  49.028  1.00  0.00     0.003 C 
HETATM   14  C1  UNL     1      26.657   6.381  48.380  1.00  0.00     0.038 C 
BRANCH  12  15
HETATM   15  O2  UNL     1      24.767   4.795  49.776  1.00  0.00    -0.359 OA
HETATM   16  C16 UNL     1      24.114   5.250  50.934  1.00  0.00     0.209 C 
ENDBRANCH  12  15
ENDBRANCH  11  12
ENDBRANCH   9  11
ENDBRANCH   1   9
BRANCH   6  17
HETATM   17  C9  UNL     1      23.770   0.101  53.405  1.00  0.00     0.086 A 
HETATM   18  C10 UNL     1      23.438  -0.811  54.410  1.00  0.00     0.034 A 
HETATM   19  C11 UNL     1      22.136  -1.313  54.499  1.00  0.00     0.002 A 
HETATM   20  C12 UNL     1      21.214  -0.873  53.564  1.00  0.00     0.003 A 
HETATM   21  C13 UNL     1      21.565   0.031  52.576  1.00  0.00     0.039 A 
HETATM   22  C14 UNL     1      22.840   0.523  52.490  1.00  0.00     0.096 A 
BRANCH  22  23
HETATM   23  O1  UNL     1      23.352   1.418  51.581  1.00  0.00    -0.354 OA
HETATM   24  C15 UNL     1      22.670   1.765  50.385  1.00  0.00     0.210 C 
ENDBRANCH  22  23
ENDBRANCH   6  17
TORSDOF 6
ENDMDL
MODEL 5
REMARK VINA RESULT:      -6.9      1.899      4.084
REMARK  6 active torsions:
REMARK  status: ('A' for Active; 'I' for Inactive)
REMARK    1  A    between atoms: C3_3  and  C4_4 
REMARK    2  A    between atoms: C3_3  and  O2_21 
REMARK    3  A    between atoms: C4_4  and  N1_5 
REMARK    4  A    between atoms: N1_5  and  C5_6 
REMARK    5  A    between atoms: N3_11  and  C9_12 
REMARK    6  A    between atoms: C14_17  and  O1_18 
ROOT
HETATM    1  C5  UNL     1      25.108   2.530  52.320  1.00  0.00     0.117 C 
HETATM    2  C6  UNL     1      24.965   3.298  51.255  1.00  0.00     0.068 C 
HETATM    3  C7  UNL     1      23.803   3.364  50.380  1.00  0.00     0.116 C 
HETATM    4  N2  UNL     1      22.818   2.581  50.229  1.00  0.00    -0.280 NA
HETATM    5  C8  UNL     1      22.429   1.348  50.816  1.00  0.00     0.297 C 
HETATM    6  N3  UNL     1      23.008   1.144  52.119  1.00  0.00    -0.268 N 
HETATM    7  N4  UNL     1      24.132   1.596  52.835  1.00  0.00    -0.281 N 
HETATM    8  H19 UNL     1      24.225   1.204  53.799  1.00  0.00     0.189 HD
ENDROOT
BRANCH   1   9
HETATM    9  N1  UNL     1      26.274   2.490  53.168  1.00  0.00    -0.369 N 
HETATM   10  H7  UNL     1      26.154   2.932  54.121  1.00  0.00     0.161 HD
BRANCH   9  11
HETATM   11  C4  UNL     1      27.518   1.910  52.815  1.00  0.00     0.185 C 
BRANCH  11  12
HETATM   12  C3  UNL     1      27.683   0.475  53.038  1.00  0.00     0.059 C 
HETATM   13  C2  UNL     1      26.970  -0.467  52.397  1.00  0.00     0.003 C 
HETATM   14  C1  UNL     1      26.944  -1.947  52.440  1.00  0.00     0.038 C 
BRANCH  12  15
HETATM   15  O2  UNL     1      28.565  -0.140  53.904  1.00  0.00    -0.359 OA
HETATM   16  C16 UNL     1      29.935  -0.363  53.687  1.00  0.00     0.209 C 
ENDBRANCH  12  15
ENDBRANCH  11  12
ENDBRANCH   9  11
ENDBRANCH   1   9
BRANCH   6  17
HETATM   17  C9  UNL     1      22.201   0.217  52.880  1.00  0.00     0.086 A 
HETATM   18  C10 UNL     1      20.863   0.457  52.561  1.00  0.00     0.034 A 
HETATM   19  C11 UNL     1      19.852  -0.301  53.160  1.00  0.00     0.002 A 
HETATM   20  C12 UNL     1      20.233  -1.278  54.065  1.00  0.00     0.003 A 
HETATM   21  C13 UNL     1      21.567  -1.498  54.366  1.00  0.00     0.039 A 
HETATM   22  C14 UNL     1      22.556  -0.756  53.779  1.00  0.00     0.096 A 
BRANCH  22  23
HETATM   23  O1  UNL     1      23.915  -0.843  53.963  1.00  0.00    -0.354 OA
HETATM   24  C15 UNL     1      24.497  -1.104  55.232  1.00  0.00     0.210 C 
ENDBRANCH  22  23
ENDBRANCH   6  17
TORSDOF 6
ENDMDL
MODEL 6
REMARK VINA RESULT:      -6.6      2.159      5.597
REMARK  6 active torsions:
REMARK  status: ('A' for Active; 'I' for Inactive)
REMARK    1  A    between atoms: C3_3  and  C4_4 
REMARK    2  A    between atoms: C3_3  and  O2_21 
REMARK    3  A    between atoms: C4_4  and  N1_5 
REMARK    4  A    between atoms: N1_5  and  C5_6 
REMARK    5  A    between atoms: N3_11  and  C9_12 
REMARK    6  A    between atoms: C14_17  and  O1_18 
ROOT
HETATM    1  C5  UNL     1      24.244  -0.015  53.407  1.00  0.00     0.117 C 
HETATM    2  C6  UNL     1      25.129  -0.456  54.284  1.00  0.00     0.068 C 
HETATM    3  C7  UNL     1      26.446   0.104  54.547  1.00  0.00     0.116 C 
HETATM    4  N2  UNL     1      27.166   0.908  53.883  1.00  0.00    -0.280 NA
HETATM    5  C8  UNL     1      27.018   1.585  52.644  1.00  0.00     0.297 C 
HETATM    6  N3  UNL     1      25.639   1.748  52.260  1.00  0.00    -0.268 N 
HETATM    7  N4  UNL     1      24.408   1.121  52.529  1.00  0.00    -0.281 N 
HETATM    8  H19 UNL     1      23.586   1.541  52.039  1.00  0.00     0.189 HD
ENDROOT
BRANCH   1   9
HETATM    9  N1  UNL     1      22.944  -0.594  53.172  1.00  0.00    -0.369 N 
HETATM   10  H7  UNL     1      22.950  -1.604  52.858  1.00  0.00     0.161 HD
BRANCH   9  11
HETATM   11  C4  UNL     1      21.710   0.083  53.336  1.00  0.00     0.185 C 
BRANCH  11  12
HETATM   12  C3  UNL     1      20.781   0.080  52.207  1.00  0.00     0.059 C 
HETATM   13  C2  UNL     1      19.447  -0.005  52.340  1.00  0.00     0.003 C 
HETATM   14  C1  UNL     1      18.315  -0.029  51.384  1.00  0.00     0.038 C 
BRANCH  12  15
HETATM   15  O2  UNL     1      21.096   0.166  50.866  1.00  0.00    -0.359 OA
HETATM   16  C16 UNL     1      21.790   1.211  50.233  1.00  0.00     0.209 C 
ENDBRANCH  12  15
ENDBRANCH  11  12
ENDBRANCH   9  11
ENDBRANCH   1   9
BRANCH   6  17
HETATM   17  C9  UNL     1      25.508   2.863  51.349  1.00  0.00     0.086 A 
HETATM   18  C10 UNL     1      26.539   2.772  50.413  1.00  0.00     0.034 A 
HETATM   19  C11 UNL     1      26.657   3.733  49.404  1.00  0.00     0.002 A 
HETATM   20  C12 UNL     1      25.724   4.756  49.380  1.00  0.00     0.003 A 
HETATM   21  C13 UNL     1      24.709   4.826  50.319  1.00  0.00     0.039 A 
HETATM   22  C14 UNL     1      24.593   3.885  51.306  1.00  0.00     0.096 A 
BRANCH  22  23
HETATM   23  O1  UNL     1      23.655   3.805  52.307  1.00  0.00    -0.354 OA
HETATM   24  C15 UNL     1      22.400   4.464  52.229  1.00  0.00     0.210 C 
ENDBRANCH  22  23
ENDBRANCH   6  17
TORSDOF 6
ENDMDL
MODEL 7
REMARK VINA RESULT:      -6.5      1.604      2.332
REMARK  6 active torsions:
REMARK  status: ('A' for Active; 'I' for Inactive)
REMARK    1  A    between atoms: C3_3  and  C4_4 
REMARK    2  A    between atoms: C3_3  and  O2_21 
REMARK    3  A    between atoms: C4_4  and  N1_5 
REMARK    4  A    between atoms: N1_5  and  C5_6 
REMARK    5  A    between atoms: N3_11  and  C9_12 
REMARK    6  A    between atoms: C14_17  and  O1_18 
ROOT
HETATM    1  C5  UNL     1      23.740  -0.359  53.614  1.00  0.00     0.117 C 
HETATM    2  C6  UNL     1      22.680  -0.975  54.107  1.00  0.00     0.068 C 
HETATM    3  C7  UNL     1      21.285  -0.648  53.850  1.00  0.00     0.116 C 
HETATM    4  N2  UNL     1      20.740   0.389  53.367  1.00  0.00    -0.280 NA
HETATM    5  C8  UNL     1      21.223   1.635  52.887  1.00  0.00     0.297 C 
HETATM    6  N3  UNL     1      22.597   1.572  52.459  1.00  0.00    -0.268 N 
HETATM    7  N4  UNL     1      23.726   0.771  52.712  1.00  0.00    -0.281 N 
HETATM    8  H19 UNL     1      24.587   1.050  52.191  1.00  0.00     0.189 HD
ENDROOT
BRANCH   1   9
HETATM    9  N1  UNL     1      25.111  -0.711  53.888  1.00  0.00    -0.369 N 
HETATM   10  H7  UNL     1      25.361  -0.786  54.913  1.00  0.00     0.161 HD
BRANCH   9  11
HETATM   11  C4  UNL     1      26.100  -0.957  52.904  1.00  0.00     0.185 C 
BRANCH  11  12
HETATM   12  C3  UNL     1      27.419  -0.358  53.105  1.00  0.00     0.059 C 
HETATM   13  C2  UNL     1      28.538  -1.071  53.314  1.00  0.00     0.003 C 
HETATM   14  C1  UNL     1      29.959  -0.717  53.540  1.00  0.00     0.038 C 
BRANCH  12  15
HETATM   15  O2  UNL     1      27.733   0.987  53.111  1.00  0.00    -0.359 OA
HETATM   16  C16 UNL     1      27.140   1.990  52.326  1.00  0.00     0.209 C 
ENDBRANCH  12  15
ENDBRANCH  11  12
ENDBRANCH   9  11
ENDBRANCH   1   9
BRANCH   6  17
HETATM   17  C9  UNL     1      22.868   2.630  51.511  1.00  0.00     0.086 A 
HETATM   18  C10 UNL     1      23.253   3.761  52.233  1.00  0.00     0.034 A 
HETATM   19  C11 UNL     1      23.575   4.945  51.563  1.00  0.00     0.002 A 
HETATM   20  C12 UNL     1      23.494   4.942  50.180  1.00  0.00     0.003 A 
HETATM   21  C13 UNL     1      23.110   3.808  49.484  1.00  0.00     0.039 A 
HETATM   22  C14 UNL     1      22.795   2.649  50.141  1.00  0.00     0.096 A 
BRANCH  22  23
HETATM   23  O1  UNL     1      22.400   1.445  49.610  1.00  0.00    -0.354 OA
HETATM   24  C15 UNL     1      21.601   1.354  48.439  1.00  0.00     0.210 C 
ENDBRANCH  22  23
ENDBRANCH   6  17
TORSDOF 6
ENDMDL
MODEL 8
REMARK VINA RESULT:      -6.4      2.440      4.064
REMARK  6 active torsions:
REMARK  status: ('A' for Active; 'I' for Inactive)
REMARK    1  A    between atoms: C3_3  and  C4_4 
REMARK    2  A    between atoms: C3_3  and  O2_21 
REMARK    3  A    between atoms: C4_4  and  N1_5 
REMARK    4  A    between atoms: N1_5  and  C5_6 
REMARK    5  A    between atoms: N3_11  and  C9_12 
REMARK    6  A    between atoms: C14_17  and  O1_18 
ROOT
HETATM    1  C5  UNL     1      23.984   2.261  52.360  1.00  0.00     0.117 C 
HETATM    2  C6  UNL     1      24.082   3.577  52.405  1.00  0.00     0.068 C 
HETATM    3  C7  UNL     1      22.987   4.528  52.534  1.00  0.00     0.116 C 
HETATM    4  N2  UNL     1      21.737   4.399  52.363  1.00  0.00    -0.280 NA
HETATM    5  C8  UNL     1      20.890   3.323  51.986  1.00  0.00     0.297 C 
HETATM    6  N3  UNL     1      21.472   2.034  52.259  1.00  0.00    -0.268 N 
HETATM    7  N4  UNL     1      22.760   1.494  52.431  1.00  0.00    -0.281 N 
HETATM    8  H19 UNL     1      22.783   0.467  52.621  1.00  0.00     0.189 HD
ENDROOT
BRANCH   1   9
HETATM    9  N1  UNL     1      25.092   1.346  52.233  1.00  0.00    -0.369 N 
HETATM   10  H7  UNL     1      24.910   0.497  51.629  1.00  0.00     0.161 HD
BRANCH   9  11
HETATM   11  C4  UNL     1      26.360   1.516  52.841  1.00  0.00     0.185 C 
BRANCH  11  12
HETATM   12  C3  UNL     1      27.026   0.324  53.362  1.00  0.00     0.059 C 
HETATM   13  C2  UNL     1      28.345   0.094  53.246  1.00  0.00     0.003 C 
HETATM   14  C1  UNL     1      29.242  -1.004  53.674  1.00  0.00     0.038 C 
BRANCH  12  15
HETATM   15  O2  UNL     1      26.444  -0.729  54.041  1.00  0.00    -0.359 OA
HETATM   16  C16 UNL     1      25.493  -0.638  55.071  1.00  0.00     0.209 C 
ENDBRANCH  12  15
ENDBRANCH  11  12
ENDBRANCH   9  11
ENDBRANCH   1   9
BRANCH   6  17
HETATM   17  C9  UNL     1      20.431   1.039  52.387  1.00  0.00     0.086 A 
HETATM   18  C10 UNL     1      19.624   1.118  51.250  1.00  0.00     0.034 A 
HETATM   19  C11 UNL     1      18.526   0.264  51.109  1.00  0.00     0.002 A 
HETATM   20  C12 UNL     1      18.283  -0.643  52.127  1.00  0.00     0.003 A 
HETATM   21  C13 UNL     1      19.097  -0.703  53.246  1.00  0.00     0.039 A 
HETATM   22  C14 UNL     1      20.172   0.133  53.384  1.00  0.00     0.096 A 
BRANCH  22  23
HETATM   23  O1  UNL     1      21.073   0.205  54.419  1.00  0.00    -0.354 OA
HETATM   24  C15 UNL     1      21.698  -0.947  54.966  1.00  0.00     0.210 C 
ENDBRANCH  22  23
ENDBRANCH   6  17
TORSDOF 6
ENDMDL
MODEL 9
REMARK VINA RESULT:      -6.4      2.878      6.932
REMARK  6 active torsions:
REMARK  status: ('A' for Active; 'I' for Inactive)
REMARK    1  A    between atoms: C3_3  and  C4_4 
REMARK    2  A    between atoms: C3_3  and  O2_21 
REMARK    3  A    between atoms: C4_4  and  N1_5 
REMARK    4  A    between atoms: N1_5  and  C5_6 
REMARK    5  A    between atoms: N3_11  and  C9_12 
REMARK    6  A    between atoms: C14_17  and  O1_18 
ROOT
HETATM    1  C5  UNL     1      24.134   4.703  51.271  1.00  0.00     0.117 C 
HETATM    2  C6  UNL     1      24.617   4.955  50.067  1.00  0.00     0.068 C 
HETATM    3  C7  UNL     1      25.579   4.150  49.329  1.00  0.00     0.116 C 
HETATM    4  N2  UNL     1      26.367   3.229  49.701  1.00  0.00    -0.280 NA
HETATM    5  C8  UNL     1      26.652   2.606  50.945  1.00  0.00     0.297 C 
HETATM    6  N3  UNL     1      25.566   2.716  51.884  1.00  0.00    -0.268 N 
HETATM    7  N4  UNL     1      24.464   3.565  52.100  1.00  0.00    -0.281 N 
HETATM    8  H19 UNL     1      23.874   3.317  52.926  1.00  0.00     0.189 HD
ENDROOT
BRANCH   1   9
HETATM    9  N1  UNL     1      23.180   5.523  51.975  1.00  0.00    -0.369 N 
HETATM   10  H7  UNL     1      23.547   5.993  52.848  1.00  0.00     0.161 HD
BRANCH   9  11
HETATM   11  C4  UNL     1      21.836   5.733  51.576  1.00  0.00     0.185 C 
BRANCH  11  12
HETATM   12  C3  UNL     1      21.011   4.551  51.332  1.00  0.00     0.059 C 
HETATM   13  C2  UNL     1      20.751   3.617  52.263  1.00  0.00     0.003 C 
HETATM   14  C1  UNL     1      19.967   2.360  52.271  1.00  0.00     0.038 C 
BRANCH  12  15
HETATM   15  O2  UNL     1      20.377   4.203  50.156  1.00  0.00    -0.359 OA
HETATM   16  C16 UNL     1      20.995   3.847  48.945  1.00  0.00     0.209 C 
ENDBRANCH  12  15
ENDBRANCH  11  12
ENDBRANCH   9  11
ENDBRANCH   1   9
BRANCH   6  17
HETATM   17  C9  UNL     1      25.651   1.658  52.865  1.00  0.00     0.086 A 
HETATM   18  C10 UNL     1      24.663   0.718  52.565  1.00  0.00     0.034 A 
HETATM   19  C11 UNL     1      24.514  -0.422  53.361  1.00  0.00     0.002 A 
HETATM   20  C12 UNL     1      25.374  -0.570  54.437  1.00  0.00     0.003 A 
HETATM   21  C13 UNL     1      26.346   0.376  54.716  1.00  0.00     0.039 A 
HETATM   22  C14 UNL     1      26.492   1.491  53.937  1.00  0.00     0.096 A 
BRANCH  22  23
HETATM   23  O1  UNL     1      27.396   2.517  54.071  1.00  0.00    -0.354 OA
HETATM   24  C15 UNL     1      28.780   2.354  53.797  1.00  0.00     0.210 C 
ENDBRANCH  22  23
ENDBRANCH   6  17
TORSDOF 6
ENDMDL
