MODEL 1
REMARK VINA RESULT:      -8.4      0.000      0.000
REMARK  4 active torsions:
REMARK  status: ('A' for Active; 'I' for Inactive)
REMARK    1  A    between atoms: C5_5  and  C6_6 
REMARK    2  A    between atoms: C13_17  and  C14_18 
REMARK    3  A    between atoms: C14_18  and  C15_19 
REMARK    4  A    between atoms: C15_19  and  N3_20 
ROOT
HETATM    1  C6  UNL     1      24.130   1.315  51.932  1.00  0.00     0.079 A 
HETATM    2  N1  UNL     1      24.024   2.055  50.821  1.00  0.00    -0.241 NA
HETATM    3  C7  UNL     1      22.869   2.197  50.165  1.00  0.00     0.234 A 
HETATM    4  N2  UNL     1      21.756   1.593  50.601  1.00  0.00    -0.241 NA
HETATM    5  C8  UNL     1      21.722   0.832  51.688  1.00  0.00     0.069 A 
HETATM    6  C9  UNL     1      22.984   0.711  52.357  1.00  0.00     0.024 A 
HETATM    7  C10 UNL     1      22.943  -0.116  53.517  1.00  0.00     0.214 C 
HETATM    8  O1  UNL     1      23.628  -0.905  54.238  1.00  0.00    -0.362 OA
HETATM    9  C11 UNL     1      22.729  -1.329  55.244  1.00  0.00     0.338 C 
HETATM   10  O2  UNL     1      21.582  -1.865  54.867  1.00  0.00    -0.363 OA
HETATM   11  C12 UNL     1      20.489  -1.539  54.283  1.00  0.00     0.204 C 
HETATM   12  C13 UNL     1      20.085  -0.690  53.180  1.00  0.00    -0.052 C 
HETATM   13  C16 UNL     1      20.549   0.147  52.268  1.00  0.00     0.037 C 
ENDROOT
BRANCH   1  14
HETATM   14  C5  UNL     1      25.440   1.267  52.541  1.00  0.00    -0.007 A 
HETATM   15  C4  UNL     1      26.109   2.114  53.396  1.00  0.00     0.014 A 
HETATM   16  C3  UNL     1      27.388   1.882  53.834  1.00  0.00     0.007 A 
HETATM   17  C2  UNL     1      28.068   0.758  53.422  1.00  0.00    -0.062 A 
HETATM   18  C1  UNL     1      29.448   0.603  53.956  1.00  0.00     0.048 C 
HETATM   19  C18 UNL     1      27.460  -0.136  52.567  1.00  0.00     0.007 A 
HETATM   20  C17 UNL     1      26.177   0.138  52.152  1.00  0.00     0.014 A 
ENDBRANCH   1  14
BRANCH  12  21
HETATM   21  C14 UNL     1      18.558  -0.744  53.072  1.00  0.00     0.066 C 
BRANCH  21  22
HETATM   22  C15 UNL     1      18.105  -2.079  53.589  1.00  0.00     0.271 C 
BRANCH  22  23
HETATM   23  N3  UNL     1      16.684  -2.303  53.264  1.00  0.00     0.078 N 
HETATM   24  H17 UNL     1      16.472  -1.767  52.389  1.00  0.00     0.312 HD
HETATM   25  H18 UNL     1      16.067  -2.031  54.070  1.00  0.00     0.312 HD
ENDBRANCH  22  23
ENDBRANCH  21  22
ENDBRANCH  12  21
TORSDOF 4
ENDMDL
MODEL 2
REMARK VINA RESULT:      -8.3      2.745      3.879
REMARK  4 active torsions:
REMARK  status: ('A' for Active; 'I' for Inactive)
REMARK    1  A    between atoms: C5_5  and  C6_6 
REMARK    2  A    between atoms: C13_17  and  C14_18 
REMARK    3  A    between atoms: C14_18  and  C15_19 
REMARK    4  A    between atoms: C15_19  and  N3_20 
ROOT
HETATM    1  C6  UNL     1      24.258  -0.477  53.988  1.00  0.00     0.079 A 
HETATM    2  N1  UNL     1      23.774  -1.267  54.955  1.00  0.00    -0.241 NA
HETATM    3  C7  UNL     1      22.475  -1.298  55.270  1.00  0.00     0.234 A 
HETATM    4  N2  UNL     1      21.595  -0.525  54.620  1.00  0.00    -0.241 NA
HETATM    5  C8  UNL     1      21.942   0.303  53.642  1.00  0.00     0.069 A 
HETATM    6  C9  UNL     1      23.343   0.299  53.341  1.00  0.00     0.024 A 
HETATM    7  C10 UNL     1      23.710   1.198  52.297  1.00  0.00     0.214 C 
HETATM    8  O1  UNL     1      24.647   1.935  51.860  1.00  0.00    -0.362 OA
HETATM    9  C11 UNL     1      24.107   2.539  50.701  1.00  0.00     0.338 C 
HETATM   10  O2  UNL     1      22.968   3.196  50.817  1.00  0.00    -0.363 OA
HETATM   11  C12 UNL     1      21.728   2.981  51.060  1.00  0.00     0.204 C 
HETATM   12  C13 UNL     1      20.949   2.123  51.930  1.00  0.00    -0.052 C 
HETATM   13  C16 UNL     1      21.053   1.174  52.845  1.00  0.00     0.037 C 
ENDROOT
BRANCH   1  14
HETATM   14  C5  UNL     1      25.681  -0.564  53.750  1.00  0.00    -0.007 A 
HETATM   15  C4  UNL     1      26.436  -1.231  52.813  1.00  0.00     0.014 A 
HETATM   16  C3  UNL     1      27.807  -1.197  52.790  1.00  0.00     0.007 A 
HETATM   17  C2  UNL     1      28.497  -0.469  53.734  1.00  0.00    -0.062 A 
HETATM   18  C1  UNL     1      29.979  -0.499  53.619  1.00  0.00     0.048 C 
HETATM   19  C18 UNL     1      27.806   0.226  54.703  1.00  0.00     0.007 A 
HETATM   20  C17 UNL     1      26.431   0.162  54.687  1.00  0.00     0.014 A 
ENDBRANCH   1  14
BRANCH  12  21
HETATM   21  C14 UNL     1      19.466   2.371  51.642  1.00  0.00     0.066 C 
BRANCH  21  22
HETATM   22  C15 UNL     1      18.885   1.104  51.083  1.00  0.00     0.271 C 
BRANCH  22  23
HETATM   23  N3  UNL     1      18.939   1.115  49.610  1.00  0.00     0.078 N 
HETATM   24  H17 UNL     1      19.423   0.236  49.305  1.00  0.00     0.312 HD
HETATM   25  H18 UNL     1      19.413   1.985  49.259  1.00  0.00     0.312 HD
ENDBRANCH  22  23
ENDBRANCH  21  22
ENDBRANCH  12  21
TORSDOF 4
ENDMDL
MODEL 3
REMARK VINA RESULT:      -8.1      4.025      5.552
REMARK  4 active torsions:
REMARK  status: ('A' for Active; 'I' for Inactive)
REMARK    1  A    between atoms: C5_5  and  C6_6 
REMARK    2  A    between atoms: C13_17  and  C14_18 
REMARK    3  A    between atoms: C14_18  and  C15_19 
REMARK    4  A    between atoms: C15_19  and  N3_20 
ROOT
HETATM    1  C6  UNL     1      24.811   3.727  49.614  1.00  0.00     0.079 A 
HETATM    2  N1  UNL     1      23.664   3.874  48.939  1.00  0.00    -0.241 NA
HETATM    3  C7  UNL     1      22.570   3.163  49.226  1.00  0.00     0.234 A 
HETATM    4  N2  UNL     1      22.580   2.262  50.216  1.00  0.00    -0.241 NA
HETATM    5  C8  UNL     1      23.650   2.018  50.964  1.00  0.00     0.069 A 
HETATM    6  C9  UNL     1      24.797   2.805  50.618  1.00  0.00     0.024 A 
HETATM    7  C10 UNL     1      25.944   2.530  51.417  1.00  0.00     0.214 C 
HETATM    8  O1  UNL     1      27.214   2.512  51.416  1.00  0.00    -0.362 OA
HETATM    9  C11 UNL     1      27.558   2.057  52.710  1.00  0.00     0.338 C 
HETATM   10  O2  UNL     1      27.043   0.914  53.124  1.00  0.00    -0.363 OA
HETATM   11  C12 UNL     1      25.911   0.404  53.446  1.00  0.00     0.204 C 
HETATM   12  C13 UNL     1      24.540   0.485  52.984  1.00  0.00    -0.052 C 
HETATM   13  C16 UNL     1      23.760   1.071  52.092  1.00  0.00     0.037 C 
ENDROOT
BRANCH   1  14
HETATM   14  C5  UNL     1      25.905   4.575  49.200  1.00  0.00    -0.007 A 
HETATM   15  C4  UNL     1      27.213   4.318  48.856  1.00  0.00     0.014 A 
HETATM   16  C3  UNL     1      28.108   5.300  48.517  1.00  0.00     0.007 A 
HETATM   17  C2  UNL     1      27.716   6.621  48.508  1.00  0.00    -0.062 A 
HETATM   18  C1  UNL     1      28.763   7.605  48.127  1.00  0.00     0.048 C 
HETATM   19  C18 UNL     1      26.421   6.953  48.842  1.00  0.00     0.007 A 
HETATM   20  C17 UNL     1      25.558   5.934  49.175  1.00  0.00     0.014 A 
ENDBRANCH   1  14
BRANCH  12  21
HETATM   21  C14 UNL     1      23.677  -0.385  53.902  1.00  0.00     0.066 C 
BRANCH  21  22
HETATM   22  C15 UNL     1      24.573  -0.988  54.946  1.00  0.00     0.271 C 
BRANCH  22  23
HETATM   23  N3  UNL     1      23.773  -1.627  56.007  1.00  0.00     0.078 N 
HETATM   24  H17 UNL     1      24.420  -2.231  56.569  1.00  0.00     0.312 HD
HETATM   25  H18 UNL     1      22.967  -2.162  55.599  1.00  0.00     0.312 HD
ENDBRANCH  22  23
ENDBRANCH  21  22
ENDBRANCH  12  21
TORSDOF 4
ENDMDL
MODEL 4
REMARK VINA RESULT:      -8.0      2.894      7.183
REMARK  4 active torsions:
REMARK  status: ('A' for Active; 'I' for Inactive)
REMARK    1  A    between atoms: C5_5  and  C6_6 
REMARK    2  A    between atoms: C13_17  and  C14_18 
REMARK    3  A    between atoms: C14_18  and  C15_19 
REMARK    4  A    between atoms: C15_19  and  N3_20 
ROOT
HETATM    1  C6  UNL     1      22.501  -0.084  53.361  1.00  0.00     0.079 A 
HETATM    2  N1  UNL     1      21.965  -0.928  54.251  1.00  0.00    -0.241 NA
HETATM    3  C7  UNL     1      22.698  -1.548  55.180  1.00  0.00     0.234 A 
HETATM    4  N2  UNL     1      24.020  -1.346  55.255  1.00  0.00    -0.241 NA
HETATM    5  C8  UNL     1      24.677  -0.535  54.434  1.00  0.00     0.069 A 
HETATM    6  C9  UNL     1      23.848   0.106  53.457  1.00  0.00     0.024 A 
HETATM    7  C10 UNL     1      24.561   0.966  52.572  1.00  0.00     0.214 C 
HETATM    8  O1  UNL     1      24.577   1.441  51.395  1.00  0.00    -0.362 OA
HETATM    9  C11 UNL     1      25.738   2.247  51.358  1.00  0.00     0.338 C 
HETATM   10  O2  UNL     1      26.890   1.692  51.688  1.00  0.00    -0.363 OA
HETATM   11  C12 UNL     1      27.488   1.198  52.709  1.00  0.00     0.204 C 
HETATM   12  C13 UNL     1      27.136   0.386  53.856  1.00  0.00    -0.052 C 
HETATM   13  C16 UNL     1      26.121  -0.222  54.448  1.00  0.00     0.037 C 
ENDROOT
BRANCH   1  14
HETATM   14  C5  UNL     1      21.581   0.523  52.426  1.00  0.00    -0.007 A 
HETATM   15  C4  UNL     1      21.260   0.252  51.115  1.00  0.00     0.014 A 
HETATM   16  C3  UNL     1      20.360   0.993  50.394  1.00  0.00     0.007 A 
HETATM   17  C2  UNL     1      19.724   2.068  50.975  1.00  0.00    -0.062 A 
HETATM   18  C1  UNL     1      18.768   2.803  50.105  1.00  0.00     0.048 C 
HETATM   19  C18 UNL     1      19.996   2.398  52.285  1.00  0.00     0.007 A 
HETATM   20  C17 UNL     1      20.907   1.627  52.970  1.00  0.00     0.014 A 
ENDBRANCH   1  14
BRANCH  12  21
HETATM   21  C14 UNL     1      28.386   0.219  54.724  1.00  0.00     0.066 C 
BRANCH  21  22
HETATM   22  C15 UNL     1      29.488  -0.310  53.850  1.00  0.00     0.271 C 
BRANCH  22  23
HETATM   23  N3  UNL     1      29.318  -1.757  53.624  1.00  0.00     0.078 N 
HETATM   24  H17 UNL     1      28.669  -1.875  52.810  1.00  0.00     0.312 HD
HETATM   25  H18 UNL     1      28.973  -2.235  54.494  1.00  0.00     0.312 HD
ENDBRANCH  22  23
ENDBRANCH  21  22
ENDBRANCH  12  21
TORSDOF 4
ENDMDL
MODEL 5
REMARK VINA RESULT:      -7.8      3.329      6.784
REMARK  4 active torsions:
REMARK  status: ('A' for Active; 'I' for Inactive)
REMARK    1  A    between atoms: C5_5  and  C6_6 
REMARK    2  A    between atoms: C13_17  and  C14_18 
REMARK    3  A    between atoms: C14_18  and  C15_19 
REMARK    4  A    between atoms: C15_19  and  N3_20 
ROOT
HETATM    1  C6  UNL     1      24.022   2.736  50.483  1.00  0.00     0.079 A 
HETATM    2  N1  UNL     1      24.598   3.637  49.677  1.00  0.00    -0.241 NA
HETATM    3  C7  UNL     1      25.918   3.841  49.661  1.00  0.00     0.234 A 
HETATM    4  N2  UNL     1      26.728   3.140  50.465  1.00  0.00    -0.241 NA
HETATM    5  C8  UNL     1      26.288   2.217  51.312  1.00  0.00     0.069 A 
HETATM    6  C9  UNL     1      24.866   2.035  51.291  1.00  0.00     0.024 A 
HETATM    7  C10 UNL     1      24.399   1.050  52.210  1.00  0.00     0.214 C 
HETATM    8  O1  UNL     1      23.417   0.713  52.941  1.00  0.00    -0.362 OA
HETATM    9  C11 UNL     1      23.849  -0.470  53.583  1.00  0.00     0.338 C 
HETATM   10  O2  UNL     1      24.984  -0.433  54.257  1.00  0.00    -0.363 OA
HETATM   11  C12 UNL     1      26.243  -0.301  54.057  1.00  0.00     0.204 C 
HETATM   12  C13 UNL     1      27.105   0.478  53.191  1.00  0.00    -0.052 C 
HETATM   13  C16 UNL     1      27.093   1.373  52.218  1.00  0.00     0.037 C 
ENDROOT
BRANCH   1  14
HETATM   14  C5  UNL     1      22.585   2.616  50.378  1.00  0.00    -0.007 A 
HETATM   15  C4  UNL     1      21.544   3.175  51.083  1.00  0.00     0.014 A 
HETATM   16  C3  UNL     1      20.226   2.891  50.828  1.00  0.00     0.007 A 
HETATM   17  C2  UNL     1      19.889   2.009  49.824  1.00  0.00    -0.062 A 
HETATM   18  C1  UNL     1      18.434   1.773  49.631  1.00  0.00     0.048 C 
HETATM   19  C18 UNL     1      20.881   1.413  49.076  1.00  0.00     0.007 A 
HETATM   20  C17 UNL     1      22.189   1.727  49.368  1.00  0.00     0.014 A 
ENDBRANCH   1  14
BRANCH  12  21
HETATM   21  C14 UNL     1      28.555   0.072  53.472  1.00  0.00     0.066 C 
BRANCH  21  22
HETATM   22  C15 UNL     1      28.954   0.667  54.792  1.00  0.00     0.271 C 
BRANCH  22  23
HETATM   23  N3  UNL     1      29.556   1.999  54.598  1.00  0.00     0.078 N 
HETATM   24  H17 UNL     1      29.177   2.629  55.346  1.00  0.00     0.312 HD
HETATM   25  H18 UNL     1      29.368   2.358  53.629  1.00  0.00     0.312 HD
ENDBRANCH  22  23
ENDBRANCH  21  22
ENDBRANCH  12  21
TORSDOF 4
ENDMDL
MODEL 6
REMARK VINA RESULT:      -7.7      2.650      3.989
REMARK  4 active torsions:
REMARK  status: ('A' for Active; 'I' for Inactive)
REMARK    1  A    between atoms: C5_5  and  C6_6 
REMARK    2  A    between atoms: C13_17  and  C14_18 
REMARK    3  A    between atoms: C14_18  and  C15_19 
REMARK    4  A    between atoms: C15_19  and  N3_20 
ROOT
HETATM    1  C6  UNL     1      23.259   2.564  49.739  1.00  0.00     0.079 A 
HETATM    2  N1  UNL     1      22.262   2.659  48.850  1.00  0.00    -0.241 NA
HETATM    3  C7  UNL     1      21.127   1.966  48.973  1.00  0.00     0.234 A 
HETATM    4  N2  UNL     1      20.940   1.136  50.007  1.00  0.00    -0.241 NA
HETATM    5  C8  UNL     1      21.846   0.949  50.959  1.00  0.00     0.069 A 
HETATM    6  C9  UNL     1      23.046   1.714  50.784  1.00  0.00     0.024 A 
HETATM    7  C10 UNL     1      24.018   1.500  51.803  1.00  0.00     0.214 C 
HETATM    8  O1  UNL     1      25.265   1.487  52.044  1.00  0.00    -0.362 OA
HETATM    9  C11 UNL     1      25.353   1.125  53.408  1.00  0.00     0.338 C 
HETATM   10  O2  UNL     1      24.758   0.012  53.795  1.00  0.00    -0.363 OA
HETATM   11  C12 UNL     1      23.581  -0.479  53.931  1.00  0.00     0.204 C 
HETATM   12  C13 UNL     1      22.323  -0.436  53.213  1.00  0.00    -0.052 C 
HETATM   13  C16 UNL     1      21.731   0.084  52.151  1.00  0.00     0.037 C 
ENDROOT
BRANCH   1  14
HETATM   14  C5  UNL     1      24.420   3.386  49.483  1.00  0.00    -0.007 A 
HETATM   15  C4  UNL     1      25.773   3.140  49.537  1.00  0.00     0.014 A 
HETATM   16  C3  UNL     1      26.721   4.096  49.277  1.00  0.00     0.007 A 
HETATM   17  C2  UNL     1      26.340   5.377  48.942  1.00  0.00    -0.062 A 
HETATM   18  C1  UNL     1      27.446   6.335  48.681  1.00  0.00     0.048 C 
HETATM   19  C18 UNL     1      25.001   5.695  48.868  1.00  0.00     0.007 A 
HETATM   20  C17 UNL     1      24.085   4.703  49.137  1.00  0.00     0.014 A 
ENDBRANCH   1  14
BRANCH  12  21
HETATM   21  C14 UNL     1      21.293  -1.242  54.008  1.00  0.00     0.066 C 
BRANCH  21  22
HETATM   22  C15 UNL     1      19.925  -0.768  53.609  1.00  0.00     0.271 C 
BRANCH  22  23
HETATM   23  N3  UNL     1      18.903  -1.764  53.982  1.00  0.00     0.078 N 
HETATM   24  H17 UNL     1      19.387  -2.688  54.087  1.00  0.00     0.312 HD
HETATM   25  H18 UNL     1      18.127  -1.787  53.274  1.00  0.00     0.312 HD
ENDBRANCH  22  23
ENDBRANCH  21  22
ENDBRANCH  12  21
TORSDOF 4
ENDMDL
MODEL 7
REMARK VINA RESULT:      -7.6      3.785      7.771
REMARK  4 active torsions:
REMARK  status: ('A' for Active; 'I' for Inactive)
REMARK    1  A    between atoms: C5_5  and  C6_6 
REMARK    2  A    between atoms: C13_17  and  C14_18 
REMARK    3  A    between atoms: C14_18  and  C15_19 
REMARK    4  A    between atoms: C15_19  and  N3_20 
ROOT
HETATM    1  C6  UNL     1      24.349   1.573  51.578  1.00  0.00     0.079 A 
HETATM    2  N1  UNL     1      25.379   0.911  52.117  1.00  0.00    -0.241 NA
HETATM    3  C7  UNL     1      26.645   1.310  51.963  1.00  0.00     0.234 A 
HETATM    4  N2  UNL     1      26.934   2.407  51.251  1.00  0.00    -0.241 NA
HETATM    5  C8  UNL     1      26.008   3.155  50.664  1.00  0.00     0.069 A 
HETATM    6  C9  UNL     1      24.668   2.686  50.858  1.00  0.00     0.024 A 
HETATM    7  C10 UNL     1      23.679   3.488  50.216  1.00  0.00     0.214 C 
HETATM    8  O1  UNL     1      22.533   3.461  49.670  1.00  0.00    -0.362 OA
HETATM    9  C11 UNL     1      22.313   4.794  49.252  1.00  0.00     0.338 C 
HETATM   10  O2  UNL     1      23.221   5.362  48.480  1.00  0.00    -0.363 OA
HETATM   11  C12 UNL     1      24.435   5.771  48.527  1.00  0.00     0.204 C 
HETATM   12  C13 UNL     1      25.682   5.334  49.123  1.00  0.00    -0.052 C 
HETATM   13  C16 UNL     1      26.215   4.392  49.883  1.00  0.00     0.037 C 
ENDROOT
BRANCH   1  14
HETATM   14  C5  UNL     1      23.036   1.030  51.842  1.00  0.00    -0.007 A 
HETATM   15  C4  UNL     1      21.972   0.709  51.029  1.00  0.00     0.014 A 
HETATM   16  C3  UNL     1      20.782   0.224  51.506  1.00  0.00     0.007 A 
HETATM   17  C2  UNL     1      20.603   0.035  52.859  1.00  0.00    -0.062 A 
HETATM   18  C1  UNL     1      19.276  -0.495  53.270  1.00  0.00     0.048 C 
HETATM   19  C18 UNL     1      21.626   0.335  53.733  1.00  0.00     0.007 A 
HETATM   20  C17 UNL     1      22.802   0.819  53.209  1.00  0.00     0.014 A 
ENDBRANCH   1  14
BRANCH  12  21
HETATM   21  C14 UNL     1      26.757   6.374  48.796  1.00  0.00     0.066 C 
BRANCH  21  22
HETATM   22  C15 UNL     1      26.218   7.727  49.163  1.00  0.00     0.271 C 
BRANCH  22  23
HETATM   23  N3  UNL     1      26.683   8.121  50.506  1.00  0.00     0.078 N 
HETATM   24  H17 UNL     1      27.415   8.861  50.382  1.00  0.00     0.312 HD
HETATM   25  H18 UNL     1      27.031   7.288  51.042  1.00  0.00     0.312 HD
ENDBRANCH  22  23
ENDBRANCH  21  22
ENDBRANCH  12  21
TORSDOF 4
ENDMDL
MODEL 8
REMARK VINA RESULT:      -7.3      3.488      6.667
REMARK  4 active torsions:
REMARK  status: ('A' for Active; 'I' for Inactive)
REMARK    1  A    between atoms: C5_5  and  C6_6 
REMARK    2  A    between atoms: C13_17  and  C14_18 
REMARK    3  A    between atoms: C14_18  and  C15_19 
REMARK    4  A    between atoms: C15_19  and  N3_20 
ROOT
HETATM    1  C6  UNL     1      24.274   3.736  49.916  1.00  0.00     0.079 A 
HETATM    2  N1  UNL     1      25.216   4.473  49.315  1.00  0.00    -0.241 NA
HETATM    3  C7  UNL     1      26.521   4.230  49.470  1.00  0.00     0.234 A 
HETATM    4  N2  UNL     1      26.941   3.222  50.247  1.00  0.00    -0.241 NA
HETATM    5  C8  UNL     1      26.112   2.415  50.899  1.00  0.00     0.069 A 
HETATM    6  C9  UNL     1      24.725   2.716  50.700  1.00  0.00     0.024 A 
HETATM    7  C10 UNL     1      23.842   1.853  51.412  1.00  0.00     0.214 C 
HETATM    8  O1  UNL     1      22.707   1.787  51.977  1.00  0.00    -0.362 OA
HETATM    9  C11 UNL     1      22.644   0.469  52.484  1.00  0.00     0.338 C 
HETATM   10  O2  UNL     1      23.620   0.060  53.274  1.00  0.00    -0.363 OA
HETATM   11  C12 UNL     1      24.872  -0.212  53.231  1.00  0.00     0.204 C 
HETATM   12  C13 UNL     1      26.054   0.322  52.584  1.00  0.00    -0.052 C 
HETATM   13  C16 UNL     1      26.468   1.265  51.754  1.00  0.00     0.037 C 
ENDROOT
BRANCH   1  14
HETATM   14  C5  UNL     1      22.904   4.109  49.642  1.00  0.00    -0.007 A 
HETATM   15  C4  UNL     1      21.972   4.838  50.345  1.00  0.00     0.014 A 
HETATM   16  C3  UNL     1      20.692   5.048  49.900  1.00  0.00     0.007 A 
HETATM   17  C2  UNL     1      20.281   4.519  48.696  1.00  0.00    -0.062 A 
HETATM   18  C1  UNL     1      18.875   4.805  48.309  1.00  0.00     0.048 C 
HETATM   19  C18 UNL     1      21.162   3.777  47.939  1.00  0.00     0.007 A 
HETATM   20  C17 UNL     1      22.436   3.593  48.424  1.00  0.00     0.014 A 
ENDBRANCH   1  14
BRANCH  12  21
HETATM   21  C14 UNL     1      27.244  -0.567  52.957  1.00  0.00     0.066 C 
BRANCH  21  22
HETATM   22  C15 UNL     1      26.946  -1.961  52.486  1.00  0.00     0.271 C 
BRANCH  22  23
HETATM   23  N3  UNL     1      27.942  -2.910  53.016  1.00  0.00     0.078 N 
HETATM   24  H17 UNL     1      27.967  -2.793  54.057  1.00  0.00     0.312 HD
HETATM   25  H18 UNL     1      28.880  -2.760  52.566  1.00  0.00     0.312 HD
ENDBRANCH  22  23
ENDBRANCH  21  22
ENDBRANCH  12  21
TORSDOF 4
ENDMDL
MODEL 9
REMARK VINA RESULT:      -7.2      2.947      6.986
REMARK  4 active torsions:
REMARK  status: ('A' for Active; 'I' for Inactive)
REMARK    1  A    between atoms: C5_5  and  C6_6 
REMARK    2  A    between atoms: C13_17  and  C14_18 
REMARK    3  A    between atoms: C14_18  and  C15_19 
REMARK    4  A    between atoms: C15_19  and  N3_20 
ROOT
HETATM    1  C6  UNL     1      22.453   1.404  50.882  1.00  0.00     0.079 A 
HETATM    2  N1  UNL     1      21.456   0.628  51.323  1.00  0.00    -0.241 NA
HETATM    3  C7  UNL     1      21.583  -0.160  52.395  1.00  0.00     0.234 A 
HETATM    4  N2  UNL     1      22.735  -0.205  53.078  1.00  0.00    -0.241 NA
HETATM    5  C8  UNL     1      23.802   0.513  52.748  1.00  0.00     0.069 A 
HETATM    6  C9  UNL     1      23.615   1.342  51.593  1.00  0.00     0.024 A 
HETATM    7  C10 UNL     1      24.767   2.102  51.238  1.00  0.00     0.214 C 
HETATM    8  O1  UNL     1      25.390   2.625  50.263  1.00  0.00    -0.362 OA
HETATM    9  C11 UNL     1      26.536   3.208  50.852  1.00  0.00     0.338 C 
HETATM   10  O2  UNL     1      27.316   2.438  51.589  1.00  0.00    -0.363 OA
HETATM   11  C12 UNL     1      27.300   1.794  52.697  1.00  0.00     0.204 C 
HETATM   12  C13 UNL     1      26.349   1.002  53.452  1.00  0.00    -0.052 C 
HETATM   13  C16 UNL     1      25.103   0.560  53.445  1.00  0.00     0.037 C 
ENDROOT
BRANCH   1  14
HETATM   14  C5  UNL     1      22.163   2.214  49.721  1.00  0.00    -0.007 A 
HETATM   15  C4  UNL     1      22.354   2.021  48.371  1.00  0.00     0.014 A 
HETATM   16  C3  UNL     1      22.024   2.957  47.424  1.00  0.00     0.007 A 
HETATM   17  C2  UNL     1      21.472   4.160  47.804  1.00  0.00    -0.062 A 
HETATM   18  C1  UNL     1      21.152   5.103  46.699  1.00  0.00     0.048 C 
HETATM   19  C18 UNL     1      21.251   4.422  49.139  1.00  0.00     0.007 A 
HETATM   20  C17 UNL     1      21.598   3.454  50.053  1.00  0.00     0.014 A 
ENDBRANCH   1  14
BRANCH  12  21
HETATM   21  C14 UNL     1      27.021   0.568  54.758  1.00  0.00     0.066 C 
BRANCH  21  22
HETATM   22  C15 UNL     1      28.429   0.154  54.438  1.00  0.00     0.271 C 
BRANCH  22  23
HETATM   23  N3  UNL     1      28.455  -1.225  53.916  1.00  0.00     0.078 N 
HETATM   24  H17 UNL     1      27.939  -1.831  54.598  1.00  0.00     0.312 HD
HETATM   25  H18 UNL     1      29.442  -1.545  53.751  1.00  0.00     0.312 HD
ENDBRANCH  22  23
ENDBRANCH  21  22
ENDBRANCH  12  21
TORSDOF 4
ENDMDL
