MODEL 1
REMARK VINA RESULT:      -8.2      0.000      0.000
REMARK  3 active torsions:
REMARK  status: ('A' for Active; 'I' for Inactive)
REMARK    1  A    between atoms: O1_2  and  C2_3 
REMARK    2  A    between atoms: C5_6  and  C6_7 
REMARK    3  A    between atoms: C6_7  and  C7_8 
ROOT
HETATM    1  C7  UNL     1      25.920  -0.158  53.796  1.00  0.00    -0.064 C 
HETATM    2  C8  UNL     1      25.727   1.113  54.198  1.00  0.00     0.023 C 
HETATM    3  C9  UNL     1      26.276   2.487  54.086  1.00  0.00     0.113 C 
HETATM    4  N1  UNL     1      27.503   2.778  53.785  1.00  0.00    -0.276 NA
HETATM    5  C10 UNL     1      28.758   2.227  53.464  1.00  0.00     0.317 C 
HETATM    6  O2  UNL     1      28.836   1.003  52.899  1.00  0.00    -0.360 OA
HETATM    7  C11 UNL     1      28.327  -0.038  53.627  1.00  0.00     0.158 A 
HETATM    8  C12 UNL     1      29.357  -1.084  53.776  1.00  0.00     0.006 A 
HETATM    9  C13 UNL     1      29.367  -2.350  53.401  1.00  0.00    -0.002 A 
HETATM   10  C14 UNL     1      28.127  -2.776  52.715  1.00  0.00    -0.003 A 
HETATM   11  C15 UNL     1      27.137  -1.911  52.530  1.00  0.00    -0.015 A 
HETATM   12  C16 UNL     1      27.069  -0.511  52.923  1.00  0.00     0.070 A 
ENDROOT
BRANCH   1  13
HETATM   13  C6  UNL     1      24.855  -1.021  54.388  1.00  0.00     0.073 C 
BRANCH  13  14
HETATM   14  C5  UNL     1      23.499  -0.747  53.922  1.00  0.00    -0.054 A 
HETATM   15  C4  UNL     1      22.566  -1.241  54.850  1.00  0.00     0.010 A 
HETATM   16  C3  UNL     1      21.185  -1.137  54.651  1.00  0.00     0.037 A 
HETATM   17  C2  UNL     1      20.689  -0.534  53.516  1.00  0.00     0.068 A 
HETATM   18  C18 UNL     1      21.594  -0.046  52.600  1.00  0.00     0.037 A 
HETATM   19  C17 UNL     1      22.945  -0.157  52.813  1.00  0.00     0.010 A 
BRANCH  17  20
HETATM   20  O1  UNL     1      19.323  -0.426  53.311  1.00  0.00    -0.356 OA
HETATM   21  C1  UNL     1      18.864  -0.114  52.013  1.00  0.00     0.210 C 
ENDBRANCH  17  20
ENDBRANCH  13  14
ENDBRANCH   1  13
TORSDOF 3
ENDMDL
MODEL 2
REMARK VINA RESULT:      -8.2      2.081      7.023
REMARK  3 active torsions:
REMARK  status: ('A' for Active; 'I' for Inactive)
REMARK    1  A    between atoms: O1_2  and  C2_3 
REMARK    2  A    between atoms: C5_6  and  C6_7 
REMARK    3  A    between atoms: C6_7  and  C7_8 
ROOT
HETATM    1  C7  UNL     1      22.819   0.669  53.151  1.00  0.00    -0.064 C 
HETATM    2  C8  UNL     1      23.437   1.755  52.648  1.00  0.00     0.023 C 
HETATM    3  C9  UNL     1      23.258   3.204  52.384  1.00  0.00     0.113 C 
HETATM    4  N1  UNL     1      22.115   3.801  52.245  1.00  0.00    -0.276 NA
HETATM    5  C10 UNL     1      20.721   3.605  52.239  1.00  0.00     0.317 C 
HETATM    6  O2  UNL     1      20.179   2.576  52.924  1.00  0.00    -0.360 OA
HETATM    7  C11 UNL     1      20.571   1.319  52.548  1.00  0.00     0.158 A 
HETATM    8  C12 UNL     1      19.381   0.503  52.243  1.00  0.00     0.006 A 
HETATM    9  C13 UNL     1      18.941  -0.622  52.776  1.00  0.00    -0.002 A 
HETATM   10  C14 UNL     1      19.799  -1.137  53.866  1.00  0.00    -0.003 A 
HETATM   11  C15 UNL     1      20.895  -0.477  54.221  1.00  0.00    -0.015 A 
HETATM   12  C16 UNL     1      21.429   0.759  53.669  1.00  0.00     0.070 A 
ENDROOT
BRANCH   1  13
HETATM   13  C6  UNL     1      23.738  -0.503  53.050  1.00  0.00     0.073 C 
BRANCH  13  14
HETATM   14  C5  UNL     1      25.096  -0.275  53.535  1.00  0.00    -0.054 A 
HETATM   15  C4  UNL     1      26.016  -0.474  52.492  1.00  0.00     0.010 A 
HETATM   16  C3  UNL     1      27.396  -0.344  52.676  1.00  0.00     0.037 A 
HETATM   17  C2  UNL     1      27.906  -0.011  53.913  1.00  0.00     0.068 A 
HETATM   18  C18 UNL     1      27.013   0.187  54.942  1.00  0.00     0.037 A 
HETATM   19  C17 UNL     1      25.662   0.055  54.742  1.00  0.00     0.010 A 
BRANCH  17  20
HETATM   20  O1  UNL     1      29.272   0.120  54.104  1.00  0.00    -0.356 OA
HETATM   21  C1  UNL     1      30.104  -0.957  53.729  1.00  0.00     0.210 C 
ENDBRANCH  17  20
ENDBRANCH  13  14
ENDBRANCH   1  13
TORSDOF 3
ENDMDL
MODEL 3
REMARK VINA RESULT:      -7.9      2.822      4.575
REMARK  3 active torsions:
REMARK  status: ('A' for Active; 'I' for Inactive)
REMARK    1  A    between atoms: O1_2  and  C2_3 
REMARK    2  A    between atoms: C5_6  and  C6_7 
REMARK    3  A    between atoms: C6_7  and  C7_8 
ROOT
HETATM    1  C7  UNL     1      22.660   0.087  52.692  1.00  0.00    -0.064 C 
HETATM    2  C8  UNL     1      21.924  -0.688  53.511  1.00  0.00     0.023 C 
HETATM    3  C9  UNL     1      21.900  -1.292  54.867  1.00  0.00     0.113 C 
HETATM    4  N1  UNL     1      22.946  -1.531  55.596  1.00  0.00    -0.276 NA
HETATM    5  C10 UNL     1      24.350  -1.438  55.638  1.00  0.00     0.317 C 
HETATM    6  O2  UNL     1      24.989  -0.503  54.902  1.00  0.00    -0.360 OA
HETATM    7  C11 UNL     1      24.822  -0.574  53.546  1.00  0.00     0.158 A 
HETATM    8  C12 UNL     1      26.141  -0.627  52.890  1.00  0.00     0.006 A 
HETATM    9  C13 UNL     1      26.706   0.180  52.011  1.00  0.00    -0.002 A 
HETATM   10  C14 UNL     1      25.856   1.331  51.632  1.00  0.00    -0.003 A 
HETATM   11  C15 UNL     1      24.649   1.473  52.165  1.00  0.00    -0.015 A 
HETATM   12  C16 UNL     1      23.977   0.617  53.131  1.00  0.00     0.070 A 
ENDROOT
BRANCH   1  13
HETATM   13  C6  UNL     1      21.940   0.242  51.394  1.00  0.00     0.073 C 
BRANCH  13  14
HETATM   14  C5  UNL     1      20.700   1.011  51.455  1.00  0.00    -0.054 A 
HETATM   15  C4  UNL     1      20.984   2.350  51.771  1.00  0.00     0.010 A 
HETATM   16  C3  UNL     1      19.980   3.314  51.915  1.00  0.00     0.037 A 
HETATM   17  C2  UNL     1      18.656   2.970  51.750  1.00  0.00     0.068 A 
HETATM   18  C18 UNL     1      18.367   1.660  51.441  1.00  0.00     0.037 A 
HETATM   19  C17 UNL     1      19.365   0.729  51.302  1.00  0.00     0.010 A 
BRANCH  17  20
HETATM   20  O1  UNL     1      17.656   3.919  51.892  1.00  0.00    -0.356 OA
HETATM   21  C1  UNL     1      16.313   3.488  51.824  1.00  0.00     0.210 C 
ENDBRANCH  17  20
ENDBRANCH  13  14
ENDBRANCH   1  13
TORSDOF 3
ENDMDL
MODEL 4
REMARK VINA RESULT:      -7.8      4.370      7.179
REMARK  3 active torsions:
REMARK  status: ('A' for Active; 'I' for Inactive)
REMARK    1  A    between atoms: O1_2  and  C2_3 
REMARK    2  A    between atoms: C5_6  and  C6_7 
REMARK    3  A    between atoms: C6_7  and  C7_8 
ROOT
HETATM    1  C7  UNL     1      23.611   2.291  50.721  1.00  0.00    -0.064 C 
HETATM    2  C8  UNL     1      22.530   1.488  50.743  1.00  0.00     0.023 C 
HETATM    3  C9  UNL     1      21.478   0.893  49.882  1.00  0.00     0.113 C 
HETATM    4  N1  UNL     1      21.086   1.374  48.743  1.00  0.00    -0.276 NA
HETATM    5  C10 UNL     1      21.281   2.419  47.821  1.00  0.00     0.317 C 
HETATM    6  O2  UNL     1      22.471   3.053  47.759  1.00  0.00    -0.360 OA
HETATM    7  C11 UNL     1      22.880   3.696  48.896  1.00  0.00     0.158 A 
HETATM    8  C12 UNL     1      23.185   5.104  48.583  1.00  0.00     0.006 A 
HETATM    9  C13 UNL     1      24.301   5.798  48.704  1.00  0.00    -0.002 A 
HETATM   10  C14 UNL     1      25.432   5.012  49.247  1.00  0.00    -0.003 A 
HETATM   11  C15 UNL     1      25.264   3.733  49.561  1.00  0.00    -0.015 A 
HETATM   12  C16 UNL     1      24.061   2.921  49.453  1.00  0.00     0.070 A 
ENDROOT
BRANCH   1  13
HETATM   13  C6  UNL     1      24.159   2.404  52.104  1.00  0.00     0.073 C 
BRANCH  13  14
HETATM   14  C5  UNL     1      24.883   1.231  52.587  1.00  0.00    -0.054 A 
HETATM   15  C4  UNL     1      26.141   1.157  51.966  1.00  0.00     0.010 A 
HETATM   16  C3  UNL     1      27.043   0.119  52.224  1.00  0.00     0.037 A 
HETATM   17  C2  UNL     1      26.717  -0.882  53.114  1.00  0.00     0.068 A 
HETATM   18  C18 UNL     1      25.487  -0.818  53.728  1.00  0.00     0.037 A 
HETATM   19  C17 UNL     1      24.615   0.208  53.463  1.00  0.00     0.010 A 
BRANCH  17  20
HETATM   20  O1  UNL     1      27.604  -1.913  53.375  1.00  0.00    -0.356 OA
HETATM   21  C1  UNL     1      28.987  -1.637  53.310  1.00  0.00     0.210 C 
ENDBRANCH  17  20
ENDBRANCH  13  14
ENDBRANCH   1  13
TORSDOF 3
ENDMDL
MODEL 5
REMARK VINA RESULT:      -7.8      3.129      6.647
REMARK  3 active torsions:
REMARK  status: ('A' for Active; 'I' for Inactive)
REMARK    1  A    between atoms: O1_2  and  C2_3 
REMARK    2  A    between atoms: C5_6  and  C6_7 
REMARK    3  A    between atoms: C6_7  and  C7_8 
ROOT
HETATM    1  C7  UNL     1      23.806   3.212  52.062  1.00  0.00    -0.064 C 
HETATM    2  C8  UNL     1      24.600   3.939  51.254  1.00  0.00     0.023 C 
HETATM    3  C9  UNL     1      24.641   4.630  49.941  1.00  0.00     0.113 C 
HETATM    4  N1  UNL     1      23.881   4.352  48.928  1.00  0.00    -0.276 NA
HETATM    5  C10 UNL     1      22.846   3.510  48.478  1.00  0.00     0.317 C 
HETATM    6  O2  UNL     1      21.987   2.961  49.364  1.00  0.00    -0.360 OA
HETATM    7  C11 UNL     1      22.531   2.139  50.313  1.00  0.00     0.158 A 
HETATM    8  C12 UNL     1      21.849   0.832  50.282  1.00  0.00     0.006 A 
HETATM    9  C13 UNL     1      21.166   0.187  51.210  1.00  0.00    -0.002 A 
HETATM   10  C14 UNL     1      21.080   0.915  52.496  1.00  0.00    -0.003 A 
HETATM   11  C15 UNL     1      21.660   2.102  52.629  1.00  0.00    -0.015 A 
HETATM   12  C16 UNL     1      22.425   2.855  51.647  1.00  0.00     0.070 A 
ENDROOT
BRANCH   1  13
HETATM   13  C6  UNL     1      24.560   2.870  53.304  1.00  0.00     0.073 C 
BRANCH  13  14
HETATM   14  C5  UNL     1      25.308   1.616  53.256  1.00  0.00    -0.054 A 
HETATM   15  C4  UNL     1      26.565   1.786  53.860  1.00  0.00     0.010 A 
HETATM   16  C3  UNL     1      27.503   0.752  53.938  1.00  0.00     0.037 A 
HETATM   17  C2  UNL     1      27.217  -0.490  53.413  1.00  0.00     0.068 A 
HETATM   18  C18 UNL     1      25.988  -0.667  52.819  1.00  0.00     0.037 A 
HETATM   19  C17 UNL     1      25.079   0.359  52.752  1.00  0.00     0.010 A 
BRANCH  17  20
HETATM   20  O1  UNL     1      28.141  -1.519  53.486  1.00  0.00    -0.356 OA
HETATM   21  C1  UNL     1      29.513  -1.186  53.495  1.00  0.00     0.210 C 
ENDBRANCH  17  20
ENDBRANCH  13  14
ENDBRANCH   1  13
TORSDOF 3
ENDMDL
MODEL 6
REMARK VINA RESULT:      -7.8      2.486      7.349
REMARK  3 active torsions:
REMARK  status: ('A' for Active; 'I' for Inactive)
REMARK    1  A    between atoms: O1_2  and  C2_3 
REMARK    2  A    between atoms: C5_6  and  C6_7 
REMARK    3  A    between atoms: C6_7  and  C7_8 
ROOT
HETATM    1  C7  UNL     1      22.815   0.555  52.885  1.00  0.00    -0.064 C 
HETATM    2  C8  UNL     1      22.640  -0.286  53.922  1.00  0.00     0.023 C 
HETATM    3  C9  UNL     1      21.720  -1.310  54.474  1.00  0.00     0.113 C 
HETATM    4  N1  UNL     1      20.458  -1.408  54.194  1.00  0.00    -0.276 NA
HETATM    5  C10 UNL     1      19.410  -0.838  53.447  1.00  0.00     0.317 C 
HETATM    6  O2  UNL     1      19.680  -0.153  52.315  1.00  0.00    -0.360 OA
HETATM    7  C11 UNL     1      20.473   0.955  52.448  1.00  0.00     0.158 A 
HETATM    8  C12 UNL     1      19.788   2.123  51.864  1.00  0.00     0.006 A 
HETATM    9  C13 UNL     1      20.136   2.931  50.879  1.00  0.00    -0.002 A 
HETATM   10  C14 UNL     1      21.439   2.590  50.266  1.00  0.00    -0.003 A 
HETATM   11  C15 UNL     1      22.138   1.555  50.717  1.00  0.00    -0.015 A 
HETATM   12  C16 UNL     1      21.807   0.637  51.797  1.00  0.00     0.070 A 
ENDROOT
BRANCH   1  13
HETATM   13  C6  UNL     1      24.089   1.309  53.081  1.00  0.00     0.073 C 
BRANCH  13  14
HETATM   14  C5  UNL     1      25.301   0.495  53.091  1.00  0.00    -0.054 A 
HETATM   15  C4  UNL     1      26.096   0.836  54.197  1.00  0.00     0.010 A 
HETATM   16  C3  UNL     1      27.331   0.229  54.448  1.00  0.00     0.037 A 
HETATM   17  C2  UNL     1      27.815  -0.742  53.597  1.00  0.00     0.068 A 
HETATM   18  C18 UNL     1      27.043  -1.084  52.510  1.00  0.00     0.037 A 
HETATM   19  C17 UNL     1      25.834  -0.478  52.281  1.00  0.00     0.010 A 
BRANCH  17  20
HETATM   20  O1  UNL     1      29.037  -1.349  53.838  1.00  0.00    -0.356 OA
HETATM   21  C1  UNL     1      30.210  -0.586  53.649  1.00  0.00     0.210 C 
ENDBRANCH  17  20
ENDBRANCH  13  14
ENDBRANCH   1  13
TORSDOF 3
ENDMDL
MODEL 7
REMARK VINA RESULT:      -7.7      3.953      5.547
REMARK  3 active torsions:
REMARK  status: ('A' for Active; 'I' for Inactive)
REMARK    1  A    between atoms: O1_2  and  C2_3 
REMARK    2  A    between atoms: C5_6  and  C6_7 
REMARK    3  A    between atoms: C6_7  and  C7_8 
ROOT
HETATM    1  C7  UNL     1      23.183   0.767  52.703  1.00  0.00    -0.064 C 
HETATM    2  C8  UNL     1      22.124   0.231  53.339  1.00  0.00     0.023 C 
HETATM    3  C9  UNL     1      21.716  -0.458  54.588  1.00  0.00     0.113 C 
HETATM    4  N1  UNL     1      22.510  -1.132  55.362  1.00  0.00    -0.276 NA
HETATM    5  C10 UNL     1      23.840  -1.557  55.536  1.00  0.00     0.317 C 
HETATM    6  O2  UNL     1      24.854  -0.846  54.997  1.00  0.00    -0.360 OA
HETATM    7  C11 UNL     1      24.850  -0.714  53.635  1.00  0.00     0.158 A 
HETATM    8  C12 UNL     1      26.142  -1.173  53.092  1.00  0.00     0.006 A 
HETATM    9  C13 UNL     1      27.061  -0.539  52.387  1.00  0.00    -0.002 A 
HETATM   10  C14 UNL     1      26.722   0.874  52.104  1.00  0.00    -0.003 A 
HETATM   11  C15 UNL     1      25.581   1.387  52.549  1.00  0.00    -0.015 A 
HETATM   12  C16 UNL     1      24.533   0.738  53.323  1.00  0.00     0.070 A 
ENDROOT
BRANCH   1  13
HETATM   13  C6  UNL     1      22.737   1.303  51.384  1.00  0.00     0.073 C 
BRANCH  13  14
HETATM   14  C5  UNL     1      22.936   2.737  51.192  1.00  0.00    -0.054 A 
HETATM   15  C4  UNL     1      23.478   2.978  49.919  1.00  0.00     0.010 A 
HETATM   16  C3  UNL     1      23.793   4.265  49.471  1.00  0.00     0.037 A 
HETATM   17  C2  UNL     1      23.576   5.358  50.283  1.00  0.00     0.068 A 
HETATM   18  C18 UNL     1      23.044   5.133  51.533  1.00  0.00     0.037 A 
HETATM   19  C17 UNL     1      22.742   3.862  51.955  1.00  0.00     0.010 A 
BRANCH  17  20
HETATM   20  O1  UNL     1      23.885   6.636  49.847  1.00  0.00    -0.356 OA
HETATM   21  C1  UNL     1      23.585   7.722  50.697  1.00  0.00     0.210 C 
ENDBRANCH  17  20
ENDBRANCH  13  14
ENDBRANCH   1  13
TORSDOF 3
ENDMDL
MODEL 8
REMARK VINA RESULT:      -7.7      3.421      4.622
REMARK  3 active torsions:
REMARK  status: ('A' for Active; 'I' for Inactive)
REMARK    1  A    between atoms: O1_2  and  C2_3 
REMARK    2  A    between atoms: C5_6  and  C6_7 
REMARK    3  A    between atoms: C6_7  and  C7_8 
ROOT
HETATM    1  C7  UNL     1      25.011   1.446  52.868  1.00  0.00    -0.064 C 
HETATM    2  C8  UNL     1      26.205   2.059  52.761  1.00  0.00     0.023 C 
HETATM    3  C9  UNL     1      27.668   1.829  52.862  1.00  0.00     0.113 C 
HETATM    4  N1  UNL     1      28.229   0.875  53.538  1.00  0.00    -0.276 NA
HETATM    5  C10 UNL     1      27.975  -0.233  54.368  1.00  0.00     0.317 C 
HETATM    6  O2  UNL     1      26.800  -0.893  54.276  1.00  0.00    -0.360 OA
HETATM    7  C11 UNL     1      25.671  -0.167  54.542  1.00  0.00     0.158 A 
HETATM    8  C12 UNL     1      24.884  -0.846  55.588  1.00  0.00     0.006 A 
HETATM    9  C13 UNL     1      23.653  -1.324  55.575  1.00  0.00    -0.002 A 
HETATM   10  C14 UNL     1      22.959  -1.140  54.281  1.00  0.00    -0.003 A 
HETATM   11  C15 UNL     1      23.579  -0.540  53.271  1.00  0.00    -0.015 A 
HETATM   12  C16 UNL     1      24.927   0.007  53.230  1.00  0.00     0.070 A 
ENDROOT
BRANCH   1  13
HETATM   13  C6  UNL     1      23.930   2.439  52.598  1.00  0.00     0.073 C 
BRANCH  13  14
HETATM   14  C5  UNL     1      23.617   2.654  51.188  1.00  0.00    -0.054 A 
HETATM   15  C4  UNL     1      22.656   1.720  50.765  1.00  0.00     0.010 A 
HETATM   16  C3  UNL     1      22.181   1.678  49.450  1.00  0.00     0.037 A 
HETATM   17  C2  UNL     1      22.653   2.568  48.510  1.00  0.00     0.068 A 
HETATM   18  C18 UNL     1      23.595   3.488  48.914  1.00  0.00     0.037 A 
HETATM   19  C17 UNL     1      24.048   3.515  50.209  1.00  0.00     0.010 A 
BRANCH  17  20
HETATM   20  O1  UNL     1      22.188   2.533  47.205  1.00  0.00    -0.356 OA
HETATM   21  C1  UNL     1      21.861   3.756  46.579  1.00  0.00     0.210 C 
ENDBRANCH  17  20
ENDBRANCH  13  14
ENDBRANCH   1  13
TORSDOF 3
ENDMDL
MODEL 9
REMARK VINA RESULT:      -7.6      4.853      7.536
REMARK  3 active torsions:
REMARK  status: ('A' for Active; 'I' for Inactive)
REMARK    1  A    between atoms: O1_2  and  C2_3 
REMARK    2  A    between atoms: C5_6  and  C6_7 
REMARK    3  A    between atoms: C6_7  and  C7_8 
ROOT
HETATM    1  C7  UNL     1      25.506   2.703  50.761  1.00  0.00    -0.064 C 
HETATM    2  C8  UNL     1      24.223   2.751  50.356  1.00  0.00     0.023 C 
HETATM    3  C9  UNL     1      22.828   2.534  50.812  1.00  0.00     0.113 C 
HETATM    4  N1  UNL     1      22.477   1.775  51.804  1.00  0.00    -0.276 NA
HETATM    5  C10 UNL     1      22.962   0.915  52.807  1.00  0.00     0.317 C 
HETATM    6  O2  UNL     1      24.221   1.061  53.273  1.00  0.00    -0.360 OA
HETATM    7  C11 UNL     1      25.230   0.912  52.360  1.00  0.00     0.158 A 
HETATM    8  C12 UNL     1      26.183  -0.105  52.841  1.00  0.00     0.006 A 
HETATM    9  C13 UNL     1      27.473  -0.025  53.114  1.00  0.00    -0.002 A 
HETATM   10  C14 UNL     1      28.043   1.323  52.895  1.00  0.00    -0.003 A 
HETATM   11  C15 UNL     1      27.269   2.311  52.463  1.00  0.00    -0.015 A 
HETATM   12  C16 UNL     1      25.850   2.281  52.143  1.00  0.00     0.070 A 
ENDROOT
BRANCH   1  13
HETATM   13  C6  UNL     1      26.389   3.096  49.623  1.00  0.00     0.073 C 
BRANCH  13  14
HETATM   14  C5  UNL     1      26.515   4.533  49.399  1.00  0.00    -0.054 A 
HETATM   15  C4  UNL     1      27.680   4.801  48.660  1.00  0.00     0.010 A 
HETATM   16  C3  UNL     1      28.066   6.100  48.316  1.00  0.00     0.037 A 
HETATM   17  C2  UNL     1      27.300   7.179  48.700  1.00  0.00     0.068 A 
HETATM   18  C18 UNL     1      26.156   6.929  49.424  1.00  0.00     0.037 A 
HETATM   19  C17 UNL     1      25.793   5.646  49.752  1.00  0.00     0.010 A 
BRANCH  17  20
HETATM   20  O1  UNL     1      27.675   8.470  48.363  1.00  0.00    -0.356 OA
HETATM   21  C1  UNL     1      29.015   8.697  47.981  1.00  0.00     0.210 C 
ENDBRANCH  17  20
ENDBRANCH  13  14
ENDBRANCH   1  13
TORSDOF 3
ENDMDL
