MODEL 1
REMARK VINA RESULT:      -6.9      0.000      0.000
REMARK  7 active torsions:
REMARK  status: ('A' for Active; 'I' for Inactive)
REMARK    1  A    between atoms: C6_7  and  C7_8 
REMARK    2  A    between atoms: C7_8  and  C8_9 
REMARK    3  A    between atoms: C8_9  and  C9_10 
REMARK    4  A    between atoms: C8_9  and  C10_12 
REMARK    5  A    between atoms: C9_10  and  P1_11 
REMARK    6  A    between atoms: C10_12  and  C11_13 
REMARK    7  A    between atoms: C11_13  and  C12_14 
ROOT
HETATM    1  C8  UNL     1      24.131   0.409  53.044  1.00  0.00    -0.006 C 
ENDROOT
BRANCH   1   2
HETATM    2  C7  UNL     1      25.414  -0.159  53.377  1.00  0.00     0.029 C 
BRANCH   2   3
HETATM    3  C6  UNL     1      26.657  -0.462  53.521  1.00  0.00    -0.007 A 
HETATM    4  C2  UNL     1      27.451  -1.460  53.014  1.00  0.00     0.057 A 
HETATM    5  C1  UNL     1      26.839  -2.301  52.219  1.00  0.00     0.046 C 
HETATM    6  N1  UNL     1      28.724  -1.446  53.390  1.00  0.00    -0.261 NA
HETATM    7  C3  UNL     1      29.227  -0.528  54.211  1.00  0.00     0.117 A 
HETATM    8  C4  UNL     1      28.512   0.505  54.767  1.00  0.00     0.020 A 
HETATM    9  C5  UNL     1      27.171   0.510  54.385  1.00  0.00     0.015 A 
ENDBRANCH   2   3
ENDBRANCH   1   2
BRANCH   1  10
HETATM   10  C9  UNL     1      23.135  -0.278  53.586  1.00  0.00    -0.115 C 
BRANCH  10  11
HETATM   11  P1  UNL     1      21.876  -0.930  54.455  1.00  0.00    -0.017 P 
HETATM   12  H7  UNL     1      22.115  -2.189  55.165  1.00  0.00     0.076 HD
ENDBRANCH  10  11
ENDBRANCH   1  10
BRANCH   1  13
HETATM   13  C10 UNL     1      23.609   1.521  52.282  1.00  0.00     0.042 C 
BRANCH  13  14
HETATM   14  C11 UNL     1      23.335   2.459  51.450  1.00  0.00     0.025 C 
BRANCH  14  15
HETATM   15  C12 UNL     1      24.129   3.663  51.655  1.00  0.00     0.152 C 
HETATM   16  S1  UNL     1      24.794   4.395  50.126  1.00  0.00    -0.086 SA
HETATM   17  C13 UNL     1      24.841   6.091  50.700  1.00  0.00     0.141 C 
HETATM   18  S2  UNL     1      25.557   7.473  50.153  1.00  0.00    -0.052 SA
HETATM   19  N2  UNL     1      24.033   6.049  51.896  1.00  0.00    -0.311 N 
HETATM   20  C14 UNL     1      23.321   4.856  52.104  1.00  0.00     0.237 C 
HETATM   21  H11 UNL     1      23.968   6.858  52.585  1.00  0.00     0.170 HD
HETATM   22  O1  UNL     1      22.145   4.843  52.609  1.00  0.00    -0.272 OA
ENDBRANCH  14  15
ENDBRANCH  13  14
ENDBRANCH   1  13
TORSDOF 7
ENDMDL
MODEL 2
REMARK VINA RESULT:      -6.9      4.059      5.155
REMARK  7 active torsions:
REMARK  status: ('A' for Active; 'I' for Inactive)
REMARK    1  A    between atoms: C6_7  and  C7_8 
REMARK    2  A    between atoms: C7_8  and  C8_9 
REMARK    3  A    between atoms: C8_9  and  C9_10 
REMARK    4  A    between atoms: C8_9  and  C10_12 
REMARK    5  A    between atoms: C9_10  and  P1_11 
REMARK    6  A    between atoms: C10_12  and  C11_13 
REMARK    7  A    between atoms: C11_13  and  C12_14 
ROOT
HETATM    1  C8  UNL     1      25.099   0.731  52.705  1.00  0.00    -0.006 C 
ENDROOT
BRANCH   1   2
HETATM    2  C7  UNL     1      26.529   0.683  52.887  1.00  0.00     0.029 C 
BRANCH   2   3
HETATM    3  C6  UNL     1      27.754   0.393  53.157  1.00  0.00    -0.007 A 
HETATM    4  C2  UNL     1      28.847   1.144  53.509  1.00  0.00     0.057 A 
HETATM    5  C1  UNL     1      28.628   2.432  53.587  1.00  0.00     0.046 C 
HETATM    6  N1  UNL     1      29.975   0.476  53.722  1.00  0.00    -0.261 NA
HETATM    7  C3  UNL     1      30.066  -0.846  53.608  1.00  0.00     0.117 A 
HETATM    8  C4  UNL     1      29.030  -1.679  53.261  1.00  0.00     0.020 A 
HETATM    9  C5  UNL     1      27.835  -0.998  53.033  1.00  0.00     0.015 A 
ENDBRANCH   2   3
ENDBRANCH   1   2
BRANCH   1  10
HETATM   10  C9  UNL     1      24.751   1.634  51.799  1.00  0.00    -0.115 C 
BRANCH  10  11
HETATM   11  P1  UNL     1      24.286   2.942  50.884  1.00  0.00    -0.017 P 
HETATM   12  H7  UNL     1      25.072   3.254  49.687  1.00  0.00     0.076 HD
ENDBRANCH  10  11
ENDBRANCH   1  10
BRANCH   1  13
HETATM   13  C10 UNL     1      23.922   0.075  53.228  1.00  0.00     0.042 C 
BRANCH  13  14
HETATM   14  C11 UNL     1      22.995  -0.718  53.628  1.00  0.00     0.025 C 
BRANCH  14  15
HETATM   15  C12 UNL     1      21.666  -0.124  53.579  1.00  0.00     0.152 C 
HETATM   16  S1  UNL     1      21.042   0.187  51.897  1.00  0.00    -0.086 SA
HETATM   17  C13 UNL     1      19.300   0.018  52.277  1.00  0.00     0.141 C 
HETATM   18  S2  UNL     1      17.905   0.402  51.484  1.00  0.00    -0.052 SA
HETATM   19  N2  UNL     1      19.313  -0.598  53.583  1.00  0.00    -0.311 N 
HETATM   20  C14 UNL     1      20.566  -1.056  54.023  1.00  0.00     0.237 C 
HETATM   21  H11 UNL     1      18.442  -0.706  54.186  1.00  0.00     0.170 HD
HETATM   22  O1  UNL     1      20.697  -2.131  54.706  1.00  0.00    -0.272 OA
ENDBRANCH  14  15
ENDBRANCH  13  14
ENDBRANCH   1  13
TORSDOF 7
ENDMDL
MODEL 3
REMARK VINA RESULT:      -6.8      1.174      1.802
REMARK  7 active torsions:
REMARK  status: ('A' for Active; 'I' for Inactive)
REMARK    1  A    between atoms: C6_7  and  C7_8 
REMARK    2  A    between atoms: C7_8  and  C8_9 
REMARK    3  A    between atoms: C8_9  and  C9_10 
REMARK    4  A    between atoms: C8_9  and  C10_12 
REMARK    5  A    between atoms: C9_10  and  P1_11 
REMARK    6  A    between atoms: C10_12  and  C11_13 
REMARK    7  A    between atoms: C11_13  and  C12_14 
ROOT
HETATM    1  C8  UNL     1      25.020   0.920  52.420  1.00  0.00    -0.006 C 
ENDROOT
BRANCH   1   2
HETATM    2  C7  UNL     1      26.309   0.420  52.831  1.00  0.00     0.029 C 
BRANCH   2   3
HETATM    3  C6  UNL     1      27.551   0.215  53.104  1.00  0.00    -0.007 A 
HETATM    4  C2  UNL     1      28.593   1.041  53.443  1.00  0.00     0.057 A 
HETATM    5  C1  UNL     1      28.291   2.313  53.500  1.00  0.00     0.046 C 
HETATM    6  N1  UNL     1      29.761   0.450  53.667  1.00  0.00    -0.261 NA
HETATM    7  C3  UNL     1      29.938  -0.864  53.575  1.00  0.00     0.117 A 
HETATM    8  C4  UNL     1      28.958  -1.768  53.243  1.00  0.00     0.020 A 
HETATM    9  C5  UNL     1      27.722  -1.170  53.003  1.00  0.00     0.015 A 
ENDBRANCH   2   3
ENDBRANCH   1   2
BRANCH   1  10
HETATM   10  C9  UNL     1      24.030   0.247  52.989  1.00  0.00    -0.115 C 
BRANCH  10  11
HETATM   11  P1  UNL     1      22.661  -0.576  53.451  1.00  0.00    -0.017 P 
HETATM   12  H7  UNL     1      21.377   0.121  53.347  1.00  0.00     0.076 HD
ENDBRANCH  10  11
ENDBRANCH   1  10
BRANCH   1  13
HETATM   13  C10 UNL     1      24.488   1.952  51.559  1.00  0.00     0.042 C 
BRANCH  13  14
HETATM   14  C11 UNL     1      23.887   2.937  50.997  1.00  0.00     0.025 C 
BRANCH  14  15
HETATM   15  C12 UNL     1      24.541   4.218  51.225  1.00  0.00     0.152 C 
HETATM   16  S1  UNL     1      24.744   5.236  49.730  1.00  0.00    -0.086 SA
HETATM   17  C13 UNL     1      24.695   6.831  50.543  1.00  0.00     0.141 C 
HETATM   18  S2  UNL     1      25.081   8.369  50.088  1.00  0.00    -0.052 SA
HETATM   19  N2  UNL     1      24.187   6.507  51.856  1.00  0.00    -0.311 N 
HETATM   20  C14 UNL     1      23.704   5.198  52.012  1.00  0.00     0.237 C 
HETATM   21  H11 UNL     1      24.172   7.201  52.663  1.00  0.00     0.170 HD
HETATM   22  O1  UNL     1      22.683   4.929  52.736  1.00  0.00    -0.272 OA
ENDBRANCH  14  15
ENDBRANCH  13  14
ENDBRANCH   1  13
TORSDOF 7
ENDMDL
MODEL 4
REMARK VINA RESULT:      -6.6      1.990      2.106
REMARK  7 active torsions:
REMARK  status: ('A' for Active; 'I' for Inactive)
REMARK    1  A    between atoms: C6_7  and  C7_8 
REMARK    2  A    between atoms: C7_8  and  C8_9 
REMARK    3  A    between atoms: C8_9  and  C9_10 
REMARK    4  A    between atoms: C8_9  and  C10_12 
REMARK    5  A    between atoms: C9_10  and  P1_11 
REMARK    6  A    between atoms: C10_12  and  C11_13 
REMARK    7  A    between atoms: C11_13  and  C12_14 
ROOT
HETATM    1  C8  UNL     1      24.825   1.080  52.064  1.00  0.00    -0.006 C 
ENDROOT
BRANCH   1   2
HETATM    2  C7  UNL     1      26.133   0.527  52.318  1.00  0.00     0.029 C 
BRANCH   2   3
HETATM    3  C6  UNL     1      27.190  -0.042  52.785  1.00  0.00    -0.007 A 
HETATM    4  C2  UNL     1      27.602  -1.348  52.865  1.00  0.00     0.057 A 
HETATM    5  C1  UNL     1      26.759  -2.223  52.380  1.00  0.00     0.046 C 
HETATM    6  N1  UNL     1      28.791  -1.555  53.420  1.00  0.00    -0.261 NA
HETATM    7  C3  UNL     1      29.558  -0.571  53.878  1.00  0.00     0.117 A 
HETATM    8  C4  UNL     1      29.231   0.763  53.842  1.00  0.00     0.020 A 
HETATM    9  C5  UNL     1      27.986   1.004  53.263  1.00  0.00     0.015 A 
ENDBRANCH   2   3
ENDBRANCH   1   2
BRANCH   1  10
HETATM   10  C9  UNL     1      23.887   0.459  52.764  1.00  0.00    -0.115 C 
BRANCH  10  11
HETATM   11  P1  UNL     1      22.536  -0.120  53.543  1.00  0.00    -0.017 P 
HETATM   12  H7  UNL     1      21.382  -0.495  52.721  1.00  0.00     0.076 HD
ENDBRANCH  10  11
ENDBRANCH   1  10
BRANCH   1  13
HETATM   13  C10 UNL     1      24.235   2.124  51.259  1.00  0.00     0.042 C 
BRANCH  13  14
HETATM   14  C11 UNL     1      23.886   2.990  50.377  1.00  0.00     0.025 C 
BRANCH  14  15
HETATM   15  C12 UNL     1      24.834   4.086  50.237  1.00  0.00     0.152 C 
HETATM   16  S1  UNL     1      26.509   3.575  49.740  1.00  0.00    -0.086 SA
HETATM   17  C13 UNL     1      26.953   5.085  48.885  1.00  0.00     0.141 C 
HETATM   18  S2  UNL     1      28.371   5.722  48.332  1.00  0.00    -0.052 SA
HETATM   19  N2  UNL     1      25.682   5.755  48.736  1.00  0.00    -0.311 N 
HETATM   20  C14 UNL     1      24.552   4.989  49.061  1.00  0.00     0.237 C 
HETATM   21  H11 UNL     1      25.590   6.762  48.402  1.00  0.00     0.170 HD
HETATM   22  O1  UNL     1      23.453   5.084  48.410  1.00  0.00    -0.272 OA
ENDBRANCH  14  15
ENDBRANCH  13  14
ENDBRANCH   1  13
TORSDOF 7
ENDMDL
MODEL 5
REMARK VINA RESULT:      -6.5      3.285      6.365
REMARK  7 active torsions:
REMARK  status: ('A' for Active; 'I' for Inactive)
REMARK    1  A    between atoms: C6_7  and  C7_8 
REMARK    2  A    between atoms: C7_8  and  C8_9 
REMARK    3  A    between atoms: C8_9  and  C9_10 
REMARK    4  A    between atoms: C8_9  and  C10_12 
REMARK    5  A    between atoms: C9_10  and  P1_11 
REMARK    6  A    between atoms: C10_12  and  C11_13 
REMARK    7  A    between atoms: C11_13  and  C12_14 
ROOT
HETATM    1  C8  UNL     1      24.159   1.571  51.623  1.00  0.00    -0.006 C 
ENDROOT
BRANCH   1   2
HETATM    2  C7  UNL     1      24.898   2.633  50.985  1.00  0.00     0.029 C 
BRANCH   2   3
HETATM    3  C6  UNL     1      25.316   3.709  50.413  1.00  0.00    -0.007 A 
HETATM    4  C2  UNL     1      24.865   5.004  50.394  1.00  0.00     0.057 A 
HETATM    5  C1  UNL     1      23.777   5.219  51.089  1.00  0.00     0.046 C 
HETATM    6  N1  UNL     1      25.582   5.865  49.681  1.00  0.00    -0.261 NA
HETATM    7  C3  UNL     1      26.678   5.517  49.014  1.00  0.00     0.117 A 
HETATM    8  C4  UNL     1      27.204   4.248  48.974  1.00  0.00     0.020 A 
HETATM    9  C5  UNL     1      26.467   3.328  49.716  1.00  0.00     0.015 A 
ENDBRANCH   2   3
ENDBRANCH   1   2
BRANCH   1  10
HETATM   10  C9  UNL     1      22.947   1.438  51.102  1.00  0.00    -0.115 C 
BRANCH  10  11
HETATM   11  P1  UNL     1      21.560   1.142  50.234  1.00  0.00    -0.017 P 
HETATM   12  H7  UNL     1      20.430   0.530  50.938  1.00  0.00     0.076 HD
ENDBRANCH  10  11
ENDBRANCH   1  10
BRANCH   1  13
HETATM   13  C10 UNL     1      24.356   0.602  52.676  1.00  0.00     0.042 C 
BRANCH  13  14
HETATM   14  C11 UNL     1      24.317  -0.169  53.702  1.00  0.00     0.025 C 
BRANCH  14  15
HETATM   15  C12 UNL     1      25.619  -0.709  54.068  1.00  0.00     0.152 C 
HETATM   16  S1  UNL     1      26.762  -0.932  52.669  1.00  0.00    -0.086 SA
HETATM   17  C13 UNL     1      28.282  -0.711  53.591  1.00  0.00     0.141 C 
HETATM   18  S2  UNL     1      29.873  -1.010  53.279  1.00  0.00    -0.052 SA
HETATM   19  N2  UNL     1      27.821  -0.146  54.839  1.00  0.00    -0.311 N 
HETATM   20  C14 UNL     1      26.473   0.247  54.864  1.00  0.00     0.237 C 
HETATM   21  H11 UNL     1      28.447  -0.027  55.692  1.00  0.00     0.170 HD
HETATM   22  O1  UNL     1      26.079   1.290  55.494  1.00  0.00    -0.272 OA
ENDBRANCH  14  15
ENDBRANCH  13  14
ENDBRANCH   1  13
TORSDOF 7
ENDMDL
MODEL 6
REMARK VINA RESULT:      -6.4      1.923      2.364
REMARK  7 active torsions:
REMARK  status: ('A' for Active; 'I' for Inactive)
REMARK    1  A    between atoms: C6_7  and  C7_8 
REMARK    2  A    between atoms: C7_8  and  C8_9 
REMARK    3  A    between atoms: C8_9  and  C9_10 
REMARK    4  A    between atoms: C8_9  and  C10_12 
REMARK    5  A    between atoms: C9_10  and  P1_11 
REMARK    6  A    between atoms: C10_12  and  C11_13 
REMARK    7  A    between atoms: C11_13  and  C12_14 
ROOT
HETATM    1  C8  UNL     1      25.194   1.988  51.195  1.00  0.00    -0.006 C 
ENDROOT
BRANCH   1   2
HETATM    2  C7  UNL     1      26.165   1.164  51.871  1.00  0.00     0.029 C 
BRANCH   2   3
HETATM    3  C6  UNL     1      27.071   0.652  52.629  1.00  0.00    -0.007 A 
HETATM    4  C2  UNL     1      27.372  -0.633  53.005  1.00  0.00     0.057 A 
HETATM    5  C1  UNL     1      26.583  -1.552  52.507  1.00  0.00     0.046 C 
HETATM    6  N1  UNL     1      28.414  -0.779  53.816  1.00  0.00    -0.261 NA
HETATM    7  C3  UNL     1      29.140   0.245  54.254  1.00  0.00     0.117 A 
HETATM    8  C4  UNL     1      28.915   1.562  53.934  1.00  0.00     0.020 A 
HETATM    9  C5  UNL     1      27.826   1.739  53.082  1.00  0.00     0.015 A 
ENDBRANCH   2   3
ENDBRANCH   1   2
BRANCH   1  10
HETATM   10  C9  UNL     1      23.956   1.682  51.557  1.00  0.00    -0.115 C 
BRANCH  10  11
HETATM   11  P1  UNL     1      22.420   1.097  51.810  1.00  0.00    -0.017 P 
HETATM   12  H7  UNL     1      21.385   1.450  50.835  1.00  0.00     0.076 HD
ENDBRANCH  10  11
ENDBRANCH   1  10
BRANCH   1  13
HETATM   13  C10 UNL     1      25.177   3.061  50.227  1.00  0.00     0.042 C 
BRANCH  13  14
HETATM   14  C11 UNL     1      25.019   4.131  49.535  1.00  0.00     0.025 C 
BRANCH  14  15
HETATM   15  C12 UNL     1      25.825   5.248  50.009  1.00  0.00     0.152 C 
HETATM   16  S1  UNL     1      26.528   6.283  48.687  1.00  0.00    -0.086 SA
HETATM   17  C13 UNL     1      26.586   7.814  49.616  1.00  0.00     0.141 C 
HETATM   18  S2  UNL     1      27.330   9.270  49.394  1.00  0.00    -0.052 SA
HETATM   19  N2  UNL     1      25.754   7.526  50.762  1.00  0.00    -0.311 N 
HETATM   20  C14 UNL     1      25.024   6.329  50.694  1.00  0.00     0.237 C 
HETATM   21  H11 UNL     1      25.687   8.168  51.609  1.00  0.00     0.170 HD
HETATM   22  O1  UNL     1      23.838   6.226  51.166  1.00  0.00    -0.272 OA
ENDBRANCH  14  15
ENDBRANCH  13  14
ENDBRANCH   1  13
TORSDOF 7
ENDMDL
MODEL 7
REMARK VINA RESULT:      -6.3      4.089      6.406
REMARK  7 active torsions:
REMARK  status: ('A' for Active; 'I' for Inactive)
REMARK    1  A    between atoms: C6_7  and  C7_8 
REMARK    2  A    between atoms: C7_8  and  C8_9 
REMARK    3  A    between atoms: C8_9  and  C9_10 
REMARK    4  A    between atoms: C8_9  and  C10_12 
REMARK    5  A    between atoms: C9_10  and  P1_11 
REMARK    6  A    between atoms: C10_12  and  C11_13 
REMARK    7  A    between atoms: C11_13  and  C12_14 
ROOT
HETATM    1  C8  UNL     1      25.771   1.218  52.632  1.00  0.00    -0.006 C 
ENDROOT
BRANCH   1   2
HETATM    2  C7  UNL     1      25.624   2.241  51.624  1.00  0.00     0.029 C 
BRANCH   2   3
HETATM    3  C6  UNL     1      25.289   3.240  50.885  1.00  0.00    -0.007 A 
HETATM    4  C2  UNL     1      24.145   3.988  50.770  1.00  0.00     0.057 A 
HETATM    5  C1  UNL     1      23.168   3.626  51.563  1.00  0.00     0.046 C 
HETATM    6  N1  UNL     1      24.174   4.973  49.880  1.00  0.00    -0.261 NA
HETATM    7  C3  UNL     1      25.239   5.240  49.130  1.00  0.00     0.117 A 
HETATM    8  C4  UNL     1      26.425   4.548  49.174  1.00  0.00     0.020 A 
HETATM    9  C5  UNL     1      26.417   3.509  50.103  1.00  0.00     0.015 A 
ENDBRANCH   2   3
ENDBRANCH   1   2
BRANCH   1  10
HETATM   10  C9  UNL     1      27.020   1.136  53.066  1.00  0.00    -0.115 C 
BRANCH  10  11
HETATM   11  P1  UNL     1      28.554   1.303  53.687  1.00  0.00    -0.017 P 
HETATM   12  H7  UNL     1      28.821   0.734  55.011  1.00  0.00     0.076 HD
ENDBRANCH  10  11
ENDBRANCH   1  10
BRANCH   1  13
HETATM   13  C10 UNL     1      24.943   0.248  53.311  1.00  0.00     0.042 C 
BRANCH  13  14
HETATM   14  C11 UNL     1      24.052  -0.579  53.723  1.00  0.00     0.025 C 
BRANCH  14  15
HETATM   15  C12 UNL     1      22.712  -0.008  53.766  1.00  0.00     0.152 C 
HETATM   16  S1  UNL     1      21.853   0.018  52.162  1.00  0.00    -0.086 SA
HETATM   17  C13 UNL     1      20.185  -0.096  52.805  1.00  0.00     0.141 C 
HETATM   18  S2  UNL     1      18.684   0.143  52.166  1.00  0.00    -0.052 SA
HETATM   19  N2  UNL     1      20.397  -0.490  54.179  1.00  0.00    -0.311 N 
HETATM   20  C14 UNL     1      21.711  -0.862  54.506  1.00  0.00     0.237 C 
HETATM   21  H11 UNL     1      19.621  -0.503  54.909  1.00  0.00     0.170 HD
HETATM   22  O1  UNL     1      21.966  -1.810  55.329  1.00  0.00    -0.272 OA
ENDBRANCH  14  15
ENDBRANCH  13  14
ENDBRANCH   1  13
TORSDOF 7
ENDMDL
MODEL 8
REMARK VINA RESULT:      -6.2      3.604      4.565
REMARK  7 active torsions:
REMARK  status: ('A' for Active; 'I' for Inactive)
REMARK    1  A    between atoms: C6_7  and  C7_8 
REMARK    2  A    between atoms: C7_8  and  C8_9 
REMARK    3  A    between atoms: C8_9  and  C9_10 
REMARK    4  A    between atoms: C8_9  and  C10_12 
REMARK    5  A    between atoms: C9_10  and  P1_11 
REMARK    6  A    between atoms: C10_12  and  C11_13 
REMARK    7  A    between atoms: C11_13  and  C12_14 
ROOT
HETATM    1  C8  UNL     1      25.486   2.698  51.428  1.00  0.00    -0.006 C 
ENDROOT
BRANCH   1   2
HETATM    2  C7  UNL     1      26.543   2.052  52.168  1.00  0.00     0.029 C 
BRANCH   2   3
HETATM    3  C6  UNL     1      27.322   1.258  52.815  1.00  0.00    -0.007 A 
HETATM    4  C2  UNL     1      27.398  -0.108  52.927  1.00  0.00     0.057 A 
HETATM    5  C1  UNL     1      26.494  -0.767  52.247  1.00  0.00     0.046 C 
HETATM    6  N1  UNL     1      28.367  -0.581  53.701  1.00  0.00    -0.261 NA
HETATM    7  C3  UNL     1      29.229   0.202  54.343  1.00  0.00     0.117 A 
HETATM    8  C4  UNL     1      29.231   1.575  54.293  1.00  0.00     0.020 A 
HETATM    9  C5  UNL     1      28.221   2.094  53.485  1.00  0.00     0.015 A 
ENDBRANCH   2   3
ENDBRANCH   1   2
BRANCH   1  10
HETATM   10  C9  UNL     1      25.966   3.458  50.453  1.00  0.00    -0.115 C 
BRANCH  10  11
HETATM   11  P1  UNL     1      26.814   4.282  49.284  1.00  0.00    -0.017 P 
HETATM   12  H7  UNL     1      28.178   3.836  48.987  1.00  0.00     0.076 HD
ENDBRANCH  10  11
ENDBRANCH   1  10
BRANCH   1  13
HETATM   13  C10 UNL     1      24.043   2.758  51.440  1.00  0.00     0.042 C 
BRANCH  13  14
HETATM   14  C11 UNL     1      22.788   2.929  51.232  1.00  0.00     0.025 C 
BRANCH  14  15
HETATM   15  C12 UNL     1      21.983   1.761  51.562  1.00  0.00     0.152 C 
HETATM   16  S1  UNL     1      22.825   0.540  52.617  1.00  0.00    -0.086 SA
HETATM   17  C13 UNL     1      21.359  -0.104  53.419  1.00  0.00     0.141 C 
HETATM   18  S2  UNL     1      21.037  -1.439  54.333  1.00  0.00    -0.052 SA
HETATM   19  N2  UNL     1      20.353   0.878  53.086  1.00  0.00    -0.311 N 
HETATM   20  C14 UNL     1      20.832   2.057  52.491  1.00  0.00     0.237 C 
HETATM   21  H11 UNL     1      19.314   0.736  53.273  1.00  0.00     0.170 HD
HETATM   22  O1  UNL     1      20.321   3.204  52.743  1.00  0.00    -0.272 OA
ENDBRANCH  14  15
ENDBRANCH  13  14
ENDBRANCH   1  13
TORSDOF 7
ENDMDL
MODEL 9
REMARK VINA RESULT:      -6.1      3.975      7.164
REMARK  7 active torsions:
REMARK  status: ('A' for Active; 'I' for Inactive)
REMARK    1  A    between atoms: C6_7  and  C7_8 
REMARK    2  A    between atoms: C7_8  and  C8_9 
REMARK    3  A    between atoms: C8_9  and  C9_10 
REMARK    4  A    between atoms: C8_9  and  C10_12 
REMARK    5  A    between atoms: C9_10  and  P1_11 
REMARK    6  A    between atoms: C10_12  and  C11_13 
REMARK    7  A    between atoms: C11_13  and  C12_14 
ROOT
HETATM    1  C8  UNL     1      24.658   3.796  49.670  1.00  0.00    -0.006 C 
ENDROOT
BRANCH   1   2
HETATM    2  C7  UNL     1      25.601   4.825  49.304  1.00  0.00     0.029 C 
BRANCH   2   3
HETATM    3  C6  UNL     1      26.493   5.580  48.764  1.00  0.00    -0.007 A 
HETATM    4  C2  UNL     1      26.475   6.861  48.272  1.00  0.00     0.057 A 
HETATM    5  C1  UNL     1      25.315   7.464  48.349  1.00  0.00     0.046 C 
HETATM    6  N1  UNL     1      27.622   7.320  47.787  1.00  0.00    -0.261 NA
HETATM    7  C3  UNL     1      28.740   6.600  47.766  1.00  0.00     0.117 A 
HETATM    8  C4  UNL     1      28.855   5.313  48.233  1.00  0.00     0.020 A 
HETATM    9  C5  UNL     1      27.661   4.811  48.749  1.00  0.00     0.015 A 
ENDBRANCH   2   3
ENDBRANCH   1   2
BRANCH   1  10
HETATM   10  C9  UNL     1      23.573   3.835  48.910  1.00  0.00    -0.115 C 
BRANCH  10  11
HETATM   11  P1  UNL     1      22.247   4.166  47.962  1.00  0.00    -0.017 P 
HETATM   12  H7  UNL     1      20.943   3.675  48.416  1.00  0.00     0.076 HD
ENDBRANCH  10  11
ENDBRANCH   1  10
BRANCH   1  13
HETATM   13  C10 UNL     1      24.551   2.726  50.634  1.00  0.00     0.042 C 
BRANCH  13  14
HETATM   14  C11 UNL     1      24.299   1.929  51.609  1.00  0.00     0.025 C 
BRANCH  14  15
HETATM   15  C12 UNL     1      25.422   1.069  51.956  1.00  0.00     0.152 C 
HETATM   16  S1  UNL     1      26.761   1.907  52.862  1.00  0.00    -0.086 SA
HETATM   17  C13 UNL     1      27.340   0.476  53.770  1.00  0.00     0.141 C 
HETATM   18  S2  UNL     1      28.697   0.136  54.643  1.00  0.00    -0.052 SA
HETATM   19  N2  UNL     1      26.268  -0.476  53.587  1.00  0.00    -0.311 N 
HETATM   20  C14 UNL     1      25.096   0.036  53.008  1.00  0.00     0.237 C 
HETATM   21  H11 UNL     1      26.344  -1.501  53.867  1.00  0.00     0.170 HD
HETATM   22  O1  UNL     1      23.931  -0.356  53.365  1.00  0.00    -0.272 OA
ENDBRANCH  14  15
ENDBRANCH  13  14
ENDBRANCH   1  13
TORSDOF 7
ENDMDL
