MODEL 1
REMARK VINA RESULT:      -8.0      0.000      0.000
REMARK  7 active torsions:
REMARK  status: ('A' for Active; 'I' for Inactive)
REMARK    1  A    between atoms: C2_2  and  C4_5 
REMARK    2  A    between atoms: C5_7  and  C6_8 
REMARK    3  A    between atoms: C7_9  and  C8_10 
REMARK    4  A    between atoms: C8_10  and  N2_11 
REMARK    5  A    between atoms: N2_11  and  C9_12 
REMARK    6  A    between atoms: C13_18  and  O1_19 
REMARK    7  A    between atoms: O1_19  and  C14_20 
ROOT
HETATM    1  C1  UNL     1      20.166   5.216  49.126  1.00  0.00     0.058 C 
HETATM    2  C2  UNL     1      21.238   4.547  49.513  1.00  0.00     0.061 C 
HETATM    3  C3  UNL     1      21.635   4.816  50.863  1.00  0.00     0.098 C 
HETATM    4  N1  UNL     1      21.966   5.028  51.974  1.00  0.00    -0.192 NA
ENDROOT
BRANCH   2   5
HETATM    5  C4  UNL     1      21.942   3.617  48.625  1.00  0.00     0.133 C 
HETATM    6  F1  UNL     1      22.647   4.141  47.603  1.00  0.00    -0.205 F 
HETATM    7  C5  UNL     1      21.878   2.333  48.834  1.00  0.00     0.043 C 
BRANCH   7   8
HETATM    8  C6  UNL     1      21.514   1.079  49.451  1.00  0.00     0.001 C 
HETATM    9  C7  UNL     1      21.041   0.427  50.495  1.00  0.00    -0.007 C 
BRANCH   9  10
HETATM   10  C8  UNL     1      20.638   1.157  51.721  1.00  0.00     0.148 C 
BRANCH  10  11
HETATM   11  N2  UNL     1      21.754   1.659  52.488  1.00  0.00    -0.370 N 
HETATM   12  H8  UNL     1      21.819   2.651  52.276  1.00  0.00     0.161 HD
BRANCH  11  13
HETATM   13  C9  UNL     1      22.433   0.687  53.298  1.00  0.00     0.140 A 
HETATM   14  N3  UNL     1      21.754  -0.017  54.195  1.00  0.00    -0.224 NA
HETATM   15  C10 UNL     1      22.333  -0.930  54.978  1.00  0.00     0.236 A 
HETATM   16  N4  UNL     1      23.644  -1.198  54.911  1.00  0.00    -0.241 NA
HETATM   17  C11 UNL     1      24.410  -0.530  54.028  1.00  0.00     0.077 A 
HETATM   18  C12 UNL     1      25.767  -0.765  53.907  1.00  0.00     0.072 A 
HETATM   19  C19 UNL     1      23.780   0.407  53.232  1.00  0.00     0.075 A 
HETATM   20  C13 UNL     1      26.584  -0.091  52.998  1.00  0.00     0.107 A 
HETATM   21  C17 UNL     1      25.894   0.827  52.241  1.00  0.00     0.136 A 
HETATM   22  C18 UNL     1      24.551   1.101  52.315  1.00  0.00     0.121 A 
HETATM   23  O3  UNL     1      26.661   1.517  51.328  1.00  0.00    -0.344 OA
HETATM   24  O2  UNL     1      24.087   2.055  51.457  1.00  0.00    -0.345 OA
HETATM   25  C20 UNL     1      24.876   3.182  51.162  1.00  0.00     0.202 C 
HETATM   26  C21 UNL     1      26.240   2.717  50.727  1.00  0.00     0.202 C 
BRANCH  20  27
HETATM   27  O1  UNL     1      27.870  -0.480  53.054  1.00  0.00    -0.344 OA
BRANCH  27  28
HETATM   28  C14 UNL     1      28.797  -0.332  54.070  1.00  0.00     0.121 C 
HETATM   29  C15 UNL     1      30.084  -1.099  53.741  1.00  0.00     0.040 C 
HETATM   30  C16 UNL     1      29.185   1.161  54.111  1.00  0.00     0.040 C 
ENDBRANCH  27  28
ENDBRANCH  20  27
ENDBRANCH  11  13
ENDBRANCH  10  11
ENDBRANCH   9  10
ENDBRANCH   7   8
ENDBRANCH   2   5
TORSDOF 7
ENDMDL
MODEL 2
REMARK VINA RESULT:      -7.4      1.248      2.054
REMARK  7 active torsions:
REMARK  status: ('A' for Active; 'I' for Inactive)
REMARK    1  A    between atoms: C2_2  and  C4_5 
REMARK    2  A    between atoms: C5_7  and  C6_8 
REMARK    3  A    between atoms: C7_9  and  C8_10 
REMARK    4  A    between atoms: C8_10  and  N2_11 
REMARK    5  A    between atoms: N2_11  and  C9_12 
REMARK    6  A    between atoms: C13_18  and  O1_19 
REMARK    7  A    between atoms: O1_19  and  C14_20 
ROOT
HETATM    1  C1  UNL     1      22.477   2.484  47.499  1.00  0.00     0.058 C 
HETATM    2  C2  UNL     1      21.378   2.302  48.210  1.00  0.00     0.061 C 
HETATM    3  C3  UNL     1      21.418   1.146  49.056  1.00  0.00     0.098 C 
HETATM    4  N1  UNL     1      21.443   0.200  49.757  1.00  0.00    -0.192 NA
ENDROOT
BRANCH   2   5
HETATM    5  C4  UNL     1      20.234   3.214  48.127  1.00  0.00     0.133 C 
HETATM    6  F1  UNL     1      19.733   3.479  46.903  1.00  0.00    -0.205 F 
HETATM    7  C5  UNL     1      19.730   3.737  49.207  1.00  0.00     0.043 C 
BRANCH   7   8
HETATM    8  C6  UNL     1      19.552   4.039  50.609  1.00  0.00     0.001 C 
HETATM    9  C7  UNL     1      19.655   3.663  51.869  1.00  0.00    -0.007 C 
BRANCH   9  10
HETATM   10  C8  UNL     1      20.184   2.323  52.215  1.00  0.00     0.148 C 
BRANCH  10  11
HETATM   11  N2  UNL     1      21.626   2.258  52.237  1.00  0.00    -0.370 N 
HETATM   12  H8  UNL     1      21.952   3.040  51.676  1.00  0.00     0.161 HD
BRANCH  11  13
HETATM   13  C9  UNL     1      22.184   1.177  52.999  1.00  0.00     0.140 A 
HETATM   14  N3  UNL     1      21.418   0.498  53.843  1.00  0.00    -0.224 NA
HETATM   15  C10 UNL     1      21.883  -0.513  54.581  1.00  0.00     0.236 A 
HETATM   16  N4  UNL     1      23.160  -0.912  54.518  1.00  0.00    -0.241 NA
HETATM   17  C11 UNL     1      24.010  -0.279  53.687  1.00  0.00     0.077 A 
HETATM   18  C12 UNL     1      25.337  -0.645  53.574  1.00  0.00     0.072 A 
HETATM   19  C19 UNL     1      23.497   0.763  52.938  1.00  0.00     0.075 A 
HETATM   20  C13 UNL     1      26.239  -0.010  52.717  1.00  0.00     0.107 A 
HETATM   21  C17 UNL     1      25.663   1.015  52.005  1.00  0.00     0.136 A 
HETATM   22  C18 UNL     1      24.353   1.423  52.075  1.00  0.00     0.121 A 
HETATM   23  O3  UNL     1      26.516   1.673  51.145  1.00  0.00    -0.344 OA
HETATM   24  O2  UNL     1      24.009   2.467  51.266  1.00  0.00    -0.345 OA
HETATM   25  C20 UNL     1      24.915   3.521  51.049  1.00  0.00     0.202 C 
HETATM   26  C21 UNL     1      26.233   2.942  50.609  1.00  0.00     0.202 C 
BRANCH  20  27
HETATM   27  O1  UNL     1      27.476  -0.533  52.770  1.00  0.00    -0.344 OA
BRANCH  27  28
HETATM   28  C14 UNL     1      28.421  -0.474  53.780  1.00  0.00     0.121 C 
HETATM   29  C15 UNL     1      29.633  -1.350  53.435  1.00  0.00     0.040 C 
HETATM   30  C16 UNL     1      28.939   0.978  53.826  1.00  0.00     0.040 C 
ENDBRANCH  27  28
ENDBRANCH  20  27
ENDBRANCH  11  13
ENDBRANCH  10  11
ENDBRANCH   9  10
ENDBRANCH   7   8
ENDBRANCH   2   5
TORSDOF 7
ENDMDL
MODEL 3
REMARK VINA RESULT:      -6.9      3.356      7.519
REMARK  7 active torsions:
REMARK  status: ('A' for Active; 'I' for Inactive)
REMARK    1  A    between atoms: C2_2  and  C4_5 
REMARK    2  A    between atoms: C5_7  and  C6_8 
REMARK    3  A    between atoms: C7_9  and  C8_10 
REMARK    4  A    between atoms: C8_10  and  N2_11 
REMARK    5  A    between atoms: N2_11  and  C9_12 
REMARK    6  A    between atoms: C13_18  and  O1_19 
REMARK    7  A    between atoms: O1_19  and  C14_20 
ROOT
HETATM    1  C1  UNL     1      26.118  -0.144  55.261  1.00  0.00     0.058 C 
HETATM    2  C2  UNL     1      26.914   0.096  54.234  1.00  0.00     0.061 C 
HETATM    3  C3  UNL     1      28.129   0.768  54.585  1.00  0.00     0.098 C 
HETATM    4  N1  UNL     1      29.133   1.317  54.866  1.00  0.00    -0.192 NA
ENDROOT
BRANCH   2   5
HETATM    5  C4  UNL     1      26.566  -0.299  52.866  1.00  0.00     0.133 C 
HETATM    6  F1  UNL     1      26.386  -1.613  52.621  1.00  0.00    -0.205 F 
HETATM    7  C5  UNL     1      26.437   0.601  51.934  1.00  0.00     0.043 C 
BRANCH   7   8
HETATM    8  C6  UNL     1      26.416   1.898  51.299  1.00  0.00     0.001 C 
HETATM    9  C7  UNL     1      25.723   2.918  50.833  1.00  0.00    -0.007 C 
BRANCH   9  10
HETATM   10  C8  UNL     1      24.242   2.918  50.903  1.00  0.00     0.148 C 
BRANCH  10  11
HETATM   11  N2  UNL     1      23.641   1.693  50.431  1.00  0.00    -0.370 N 
HETATM   12  H8  UNL     1      24.355   0.976  50.519  1.00  0.00     0.161 HD
BRANCH  11  13
HETATM   13  C9  UNL     1      22.278   1.802  49.994  1.00  0.00     0.140 A 
HETATM   14  N3  UNL     1      21.989   2.483  48.892  1.00  0.00    -0.224 NA
HETATM   15  C10 UNL     1      20.741   2.623  48.441  1.00  0.00     0.236 A 
HETATM   16  N4  UNL     1      19.691   2.081  49.073  1.00  0.00    -0.241 NA
HETATM   17  C11 UNL     1      19.891   1.372  50.199  1.00  0.00     0.077 A 
HETATM   18  C12 UNL     1      18.850   0.785  50.893  1.00  0.00     0.072 A 
HETATM   19  C19 UNL     1      21.195   1.247  50.639  1.00  0.00     0.075 A 
HETATM   20  C13 UNL     1      19.030   0.041  52.061  1.00  0.00     0.107 A 
HETATM   21  C17 UNL     1      20.349  -0.042  52.442  1.00  0.00     0.136 A 
HETATM   22  C18 UNL     1      21.422   0.518  51.793  1.00  0.00     0.121 A 
HETATM   23  O3  UNL     1      20.575  -0.768  53.591  1.00  0.00    -0.344 OA
HETATM   24  O2  UNL     1      22.643   0.298  52.360  1.00  0.00    -0.345 OA
HETATM   25  C20 UNL     1      22.779   0.280  53.760  1.00  0.00     0.202 C 
HETATM   26  C21 UNL     1      21.767  -0.676  54.332  1.00  0.00     0.202 C 
BRANCH  20  27
HETATM   27  O1  UNL     1      17.879  -0.436  52.566  1.00  0.00    -0.344 OA
BRANCH  27  28
HETATM   28  C14 UNL     1      17.296  -1.683  52.421  1.00  0.00     0.121 C 
HETATM   29  C15 UNL     1      17.702  -2.605  53.577  1.00  0.00     0.040 C 
HETATM   30  C16 UNL     1      15.771  -1.484  52.544  1.00  0.00     0.040 C 
ENDBRANCH  27  28
ENDBRANCH  20  27
ENDBRANCH  11  13
ENDBRANCH  10  11
ENDBRANCH   9  10
ENDBRANCH   7   8
ENDBRANCH   2   5
TORSDOF 7
ENDMDL
MODEL 4
REMARK VINA RESULT:      -6.8      2.796      5.353
REMARK  7 active torsions:
REMARK  status: ('A' for Active; 'I' for Inactive)
REMARK    1  A    between atoms: C2_2  and  C4_5 
REMARK    2  A    between atoms: C5_7  and  C6_8 
REMARK    3  A    between atoms: C7_9  and  C8_10 
REMARK    4  A    between atoms: C8_10  and  N2_11 
REMARK    5  A    between atoms: N2_11  and  C9_12 
REMARK    6  A    between atoms: C13_18  and  O1_19 
REMARK    7  A    between atoms: O1_19  and  C14_20 
ROOT
HETATM    1  C1  UNL     1      21.071   3.748  46.898  1.00  0.00     0.058 C 
HETATM    2  C2  UNL     1      20.864   2.800  47.796  1.00  0.00     0.061 C 
HETATM    3  C3  UNL     1      19.549   2.814  48.364  1.00  0.00     0.098 C 
HETATM    4  N1  UNL     1      18.469   2.817  48.835  1.00  0.00    -0.192 NA
ENDROOT
BRANCH   2   5
HETATM    5  C4  UNL     1      21.900   1.829  48.160  1.00  0.00     0.133 C 
HETATM    6  F1  UNL     1      22.893   1.612  47.275  1.00  0.00    -0.205 F 
HETATM    7  C5  UNL     1      21.848   1.211  49.305  1.00  0.00     0.043 C 
BRANCH   7   8
HETATM    8  C6  UNL     1      21.367   0.812  50.607  1.00  0.00     0.001 C 
HETATM    9  C7  UNL     1      20.819   1.142  51.760  1.00  0.00    -0.007 C 
BRANCH   9  10
HETATM   10  C8  UNL     1      20.452   2.550  52.045  1.00  0.00     0.148 C 
BRANCH  10  11
HETATM   11  N2  UNL     1      21.591   3.417  52.236  1.00  0.00    -0.370 N 
HETATM   12  H8  UNL     1      22.026   3.124  53.106  1.00  0.00     0.161 HD
BRANCH  11  13
HETATM   13  C9  UNL     1      21.797   4.399  51.210  1.00  0.00     0.140 A 
HETATM   14  N3  UNL     1      20.792   5.176  50.825  1.00  0.00    -0.224 NA
HETATM   15  C10 UNL     1      20.924   6.102  49.873  1.00  0.00     0.236 A 
HETATM   16  N4  UNL     1      22.085   6.312  49.240  1.00  0.00    -0.241 NA
HETATM   17  C11 UNL     1      23.160   5.569  49.566  1.00  0.00     0.077 A 
HETATM   18  C12 UNL     1      24.386   5.740  48.953  1.00  0.00     0.072 A 
HETATM   19  C19 UNL     1      22.989   4.619  50.555  1.00  0.00     0.075 A 
HETATM   20  C13 UNL     1      25.517   4.987  49.275  1.00  0.00     0.107 A 
HETATM   21  C17 UNL     1      25.276   4.063  50.264  1.00  0.00     0.136 A 
HETATM   22  C18 UNL     1      24.083   3.849  50.909  1.00  0.00     0.121 A 
HETATM   23  O3  UNL     1      26.366   3.295  50.616  1.00  0.00    -0.344 OA
HETATM   24  O2  UNL     1      24.086   2.872  51.862  1.00  0.00    -0.345 OA
HETATM   25  C20 UNL     1      24.839   1.700  51.669  1.00  0.00     0.202 C 
HETATM   26  C21 UNL     1      26.253   2.085  51.323  1.00  0.00     0.202 C 
BRANCH  20  27
HETATM   27  O1  UNL     1      26.600   5.325  48.553  1.00  0.00    -0.344 OA
BRANCH  27  28
HETATM   28  C14 UNL     1      27.431   6.426  48.663  1.00  0.00     0.121 C 
HETATM   29  C15 UNL     1      28.852   6.077  48.205  1.00  0.00     0.040 C 
HETATM   30  C16 UNL     1      26.907   7.485  47.671  1.00  0.00     0.040 C 
ENDBRANCH  27  28
ENDBRANCH  20  27
ENDBRANCH  11  13
ENDBRANCH  10  11
ENDBRANCH   9  10
ENDBRANCH   7   8
ENDBRANCH   2   5
TORSDOF 7
ENDMDL
MODEL 5
REMARK VINA RESULT:      -6.6      2.377      4.080
REMARK  7 active torsions:
REMARK  status: ('A' for Active; 'I' for Inactive)
REMARK    1  A    between atoms: C2_2  and  C4_5 
REMARK    2  A    between atoms: C5_7  and  C6_8 
REMARK    3  A    between atoms: C7_9  and  C8_10 
REMARK    4  A    between atoms: C8_10  and  N2_11 
REMARK    5  A    between atoms: N2_11  and  C9_12 
REMARK    6  A    between atoms: C13_18  and  O1_19 
REMARK    7  A    between atoms: O1_19  and  C14_20 
ROOT
HETATM    1  C1  UNL     1      21.899   4.021  46.634  1.00  0.00     0.058 C 
HETATM    2  C2  UNL     1      21.096   3.301  47.398  1.00  0.00     0.061 C 
HETATM    3  C3  UNL     1      19.759   3.811  47.479  1.00  0.00     0.098 C 
HETATM    4  N1  UNL     1      18.657   4.221  47.548  1.00  0.00    -0.192 NA
ENDROOT
BRANCH   2   5
HETATM    5  C4  UNL     1      21.552   2.092  48.090  1.00  0.00     0.133 C 
HETATM    6  F1  UNL     1      22.817   1.684  47.868  1.00  0.00    -0.205 F 
HETATM    7  C5  UNL     1      20.749   1.451  48.890  1.00  0.00     0.043 C 
BRANCH   7   8
HETATM    8  C6  UNL     1      19.550   1.118  49.623  1.00  0.00     0.001 C 
HETATM    9  C7  UNL     1      18.584   1.490  50.441  1.00  0.00    -0.007 C 
BRANCH   9  10
HETATM   10  C8  UNL     1      18.537   2.873  50.971  1.00  0.00     0.148 C 
BRANCH  10  11
HETATM   11  N2  UNL     1      19.399   3.086  52.110  1.00  0.00    -0.370 N 
HETATM   12  H8  UNL     1      18.806   3.013  52.931  1.00  0.00     0.161 HD
BRANCH  11  13
HETATM   13  C9  UNL     1      20.780   3.325  51.801  1.00  0.00     0.140 A 
HETATM   14  N3  UNL     1      21.124   4.381  51.076  1.00  0.00    -0.224 NA
HETATM   15  C10 UNL     1      22.391   4.650  50.754  1.00  0.00     0.236 A 
HETATM   16  N4  UNL     1      23.406   3.868  51.145  1.00  0.00    -0.241 NA
HETATM   17  C11 UNL     1      23.150   2.774  51.886  1.00  0.00     0.077 A 
HETATM   18  C12 UNL     1      24.154   1.931  52.324  1.00  0.00     0.072 A 
HETATM   19  C19 UNL     1      21.829   2.524  52.201  1.00  0.00     0.075 A 
HETATM   20  C13 UNL     1      23.917   0.793  53.097  1.00  0.00     0.107 A 
HETATM   21  C17 UNL     1      22.583   0.604  53.372  1.00  0.00     0.136 A 
HETATM   22  C18 UNL     1      21.546   1.406  52.966  1.00  0.00     0.121 A 
HETATM   23  O3  UNL     1      22.302  -0.509  54.134  1.00  0.00    -0.344 OA
HETATM   24  O2  UNL     1      20.299   1.018  53.365  1.00  0.00    -0.345 OA
HETATM   25  C20 UNL     1      19.968  -0.349  53.415  1.00  0.00     0.202 C 
HETATM   26  C21 UNL     1      21.015  -1.070  54.221  1.00  0.00     0.202 C 
BRANCH  20  27
HETATM   27  O1  UNL     1      25.041   0.123  53.409  1.00  0.00    -0.344 OA
BRANCH  27  28
HETATM   28  C14 UNL     1      26.334   0.588  53.573  1.00  0.00     0.121 C 
HETATM   29  C15 UNL     1      26.906   0.128  54.919  1.00  0.00     0.040 C 
HETATM   30  C16 UNL     1      27.196  -0.087  52.486  1.00  0.00     0.040 C 
ENDBRANCH  27  28
ENDBRANCH  20  27
ENDBRANCH  11  13
ENDBRANCH  10  11
ENDBRANCH   9  10
ENDBRANCH   7   8
ENDBRANCH   2   5
TORSDOF 7
ENDMDL
MODEL 6
REMARK VINA RESULT:      -6.6      2.999      3.581
REMARK  7 active torsions:
REMARK  status: ('A' for Active; 'I' for Inactive)
REMARK    1  A    between atoms: C2_2  and  C4_5 
REMARK    2  A    between atoms: C5_7  and  C6_8 
REMARK    3  A    between atoms: C7_9  and  C8_10 
REMARK    4  A    between atoms: C8_10  and  N2_11 
REMARK    5  A    between atoms: N2_11  and  C9_12 
REMARK    6  A    between atoms: C13_18  and  O1_19 
REMARK    7  A    between atoms: O1_19  and  C14_20 
ROOT
HETATM    1  C1  UNL     1      15.732   2.811  49.905  1.00  0.00     0.058 C 
HETATM    2  C2  UNL     1      15.845   2.170  51.055  1.00  0.00     0.061 C 
HETATM    3  C3  UNL     1      14.636   2.134  51.822  1.00  0.00     0.098 C 
HETATM    4  N1  UNL     1      13.644   2.096  52.458  1.00  0.00    -0.192 NA
ENDROOT
BRANCH   2   5
HETATM    5  C4  UNL     1      17.105   1.558  51.487  1.00  0.00     0.133 C 
HETATM    6  F1  UNL     1      17.082   0.253  51.827  1.00  0.00    -0.205 F 
HETATM    7  C5  UNL     1      18.198   2.264  51.533  1.00  0.00     0.043 C 
BRANCH   7   8
HETATM    8  C6  UNL     1      19.078   3.404  51.421  1.00  0.00     0.001 C 
HETATM    9  C7  UNL     1      20.240   3.966  51.692  1.00  0.00    -0.007 C 
BRANCH   9  10
HETATM   10  C8  UNL     1      21.265   3.238  52.476  1.00  0.00     0.148 C 
BRANCH  10  11
HETATM   11  N2  UNL     1      21.785   2.069  51.806  1.00  0.00    -0.370 N 
HETATM   12  H8  UNL     1      21.674   2.242  50.811  1.00  0.00     0.161 HD
BRANCH  11  13
HETATM   13  C9  UNL     1      22.291   1.038  52.666  1.00  0.00     0.140 A 
HETATM   14  N3  UNL     1      21.466   0.384  53.473  1.00  0.00    -0.224 NA
HETATM   15  C10 UNL     1      21.881  -0.580  54.298  1.00  0.00     0.236 A 
HETATM   16  N4  UNL     1      23.166  -0.954  54.366  1.00  0.00    -0.241 NA
HETATM   17  C11 UNL     1      24.074  -0.344  53.582  1.00  0.00     0.077 A 
HETATM   18  C12 UNL     1      25.412  -0.688  53.603  1.00  0.00     0.072 A 
HETATM   19  C19 UNL     1      23.611   0.649  52.740  1.00  0.00     0.075 A 
HETATM   20  C13 UNL     1      26.375  -0.075  52.797  1.00  0.00     0.107 A 
HETATM   21  C17 UNL     1      25.846   0.902  51.987  1.00  0.00     0.136 A 
HETATM   22  C18 UNL     1      24.529   1.285  51.923  1.00  0.00     0.121 A 
HETATM   23  O3  UNL     1      26.760   1.535  51.173  1.00  0.00    -0.344 OA
HETATM   24  O2  UNL     1      24.239   2.281  51.036  1.00  0.00    -0.345 OA
HETATM   25  C20 UNL     1      25.143   3.342  50.847  1.00  0.00     0.202 C 
HETATM   26  C21 UNL     1      26.504   2.771  50.551  1.00  0.00     0.202 C 
BRANCH  20  27
HETATM   27  O1  UNL     1      27.611  -0.569  52.983  1.00  0.00    -0.344 OA
BRANCH  27  28
HETATM   28  C14 UNL     1      28.740   0.040  53.503  1.00  0.00     0.121 C 
HETATM   29  C15 UNL     1      28.495   0.486  54.949  1.00  0.00     0.040 C 
HETATM   30  C16 UNL     1      29.843  -1.038  53.567  1.00  0.00     0.040 C 
ENDBRANCH  27  28
ENDBRANCH  20  27
ENDBRANCH  11  13
ENDBRANCH  10  11
ENDBRANCH   9  10
ENDBRANCH   7   8
ENDBRANCH   2   5
TORSDOF 7
ENDMDL
MODEL 7
REMARK VINA RESULT:      -6.3      4.300      7.880
REMARK  7 active torsions:
REMARK  status: ('A' for Active; 'I' for Inactive)
REMARK    1  A    between atoms: C2_2  and  C4_5 
REMARK    2  A    between atoms: C5_7  and  C6_8 
REMARK    3  A    between atoms: C7_9  and  C8_10 
REMARK    4  A    between atoms: C8_10  and  N2_11 
REMARK    5  A    between atoms: N2_11  and  C9_12 
REMARK    6  A    between atoms: C13_18  and  O1_19 
REMARK    7  A    between atoms: O1_19  and  C14_20 
ROOT
HETATM    1  C1  UNL     1      27.711   0.496  54.365  1.00  0.00     0.058 C 
HETATM    2  C2  UNL     1      26.528  -0.016  54.075  1.00  0.00     0.061 C 
HETATM    3  C3  UNL     1      25.835  -0.556  55.206  1.00  0.00     0.098 C 
HETATM    4  N1  UNL     1      25.256  -1.000  56.132  1.00  0.00    -0.192 NA
ENDROOT
BRANCH   2   5
HETATM    5  C4  UNL     1      25.992  -0.019  52.711  1.00  0.00     0.133 C 
HETATM    6  F1  UNL     1      26.703  -0.659  51.760  1.00  0.00    -0.205 F 
HETATM    7  C5  UNL     1      24.865   0.578  52.446  1.00  0.00     0.043 C 
BRANCH   7   8
HETATM    8  C6  UNL     1      23.655   1.339  52.654  1.00  0.00     0.001 C 
HETATM    9  C7  UNL     1      22.873   2.340  52.300  1.00  0.00    -0.007 C 
BRANCH   9  10
HETATM   10  C8  UNL     1      23.246   3.223  51.169  1.00  0.00     0.148 C 
BRANCH  10  11
HETATM   11  N2  UNL     1      23.914   4.436  51.579  1.00  0.00    -0.370 N 
HETATM   12  H8  UNL     1      24.638   4.153  52.232  1.00  0.00     0.161 HD
BRANCH  11  13
HETATM   13  C9  UNL     1      23.412   5.646  50.991  1.00  0.00     0.140 A 
HETATM   14  N3  UNL     1      22.210   6.096  51.326  1.00  0.00    -0.224 NA
HETATM   15  C10 UNL     1      21.690   7.211  50.808  1.00  0.00     0.236 A 
HETATM   16  N4  UNL     1      22.352   7.955  49.911  1.00  0.00    -0.241 NA
HETATM   17  C11 UNL     1      23.580   7.573  49.513  1.00  0.00     0.077 A 
HETATM   18  C12 UNL     1      24.314   8.299  48.595  1.00  0.00     0.072 A 
HETATM   19  C19 UNL     1      24.088   6.414  50.068  1.00  0.00     0.075 A 
HETATM   20  C13 UNL     1      25.591   7.928  48.168  1.00  0.00     0.107 A 
HETATM   21  C17 UNL     1      26.034   6.768  48.759  1.00  0.00     0.136 A 
HETATM   22  C18 UNL     1      25.351   6.008  49.675  1.00  0.00     0.121 A 
HETATM   23  O3  UNL     1      27.292   6.363  48.367  1.00  0.00    -0.344 OA
HETATM   24  O2  UNL     1      25.997   4.893  50.126  1.00  0.00    -0.345 OA
HETATM   25  C20 UNL     1      26.794   4.136  49.248  1.00  0.00     0.202 C 
HETATM   26  C21 UNL     1      27.771   5.056  48.567  1.00  0.00     0.202 C 
BRANCH  20  27
HETATM   27  O1  UNL     1      26.117   8.782  47.272  1.00  0.00    -0.344 OA
BRANCH  27  28
HETATM   28  C14 UNL     1      26.840   9.945  47.474  1.00  0.00     0.121 C 
HETATM   29  C15 UNL     1      27.566   9.901  48.824  1.00  0.00     0.040 C 
HETATM   30  C16 UNL     1      27.941   9.982  46.394  1.00  0.00     0.040 C 
ENDBRANCH  27  28
ENDBRANCH  20  27
ENDBRANCH  11  13
ENDBRANCH  10  11
ENDBRANCH   9  10
ENDBRANCH   7   8
ENDBRANCH   2   5
TORSDOF 7
ENDMDL
MODEL 8
REMARK VINA RESULT:      -6.2      3.290      3.659
REMARK  7 active torsions:
REMARK  status: ('A' for Active; 'I' for Inactive)
REMARK    1  A    between atoms: C2_2  and  C4_5 
REMARK    2  A    between atoms: C5_7  and  C6_8 
REMARK    3  A    between atoms: C7_9  and  C8_10 
REMARK    4  A    between atoms: C8_10  and  N2_11 
REMARK    5  A    between atoms: N2_11  and  C9_12 
REMARK    6  A    between atoms: C13_18  and  O1_19 
REMARK    7  A    between atoms: O1_19  and  C14_20 
ROOT
HETATM    1  C1  UNL     1      14.248   3.975  51.377  1.00  0.00     0.058 C 
HETATM    2  C2  UNL     1      15.113   3.252  50.689  1.00  0.00     0.061 C 
HETATM    3  C3  UNL     1      15.702   3.947  49.583  1.00  0.00     0.098 C 
HETATM    4  N1  UNL     1      16.193   4.512  48.673  1.00  0.00    -0.192 NA
ENDROOT
BRANCH   2   5
HETATM    5  C4  UNL     1      15.430   1.866  51.044  1.00  0.00     0.133 C 
HETATM    6  F1  UNL     1      14.498   1.164  51.718  1.00  0.00    -0.205 F 
HETATM    7  C5  UNL     1      16.577   1.347  50.709  1.00  0.00     0.043 C 
BRANCH   7   8
HETATM    8  C6  UNL     1      17.903   1.245  50.147  1.00  0.00     0.001 C 
HETATM    9  C7  UNL     1      19.169   0.901  50.290  1.00  0.00    -0.007 C 
BRANCH   9  10
HETATM   10  C8  UNL     1      19.656   0.332  51.569  1.00  0.00     0.148 C 
BRANCH  10  11
HETATM   11  N2  UNL     1      20.669   1.136  52.211  1.00  0.00    -0.370 N 
HETATM   12  H8  UNL     1      20.489   2.095  51.928  1.00  0.00     0.161 HD
BRANCH  11  13
HETATM   13  C9  UNL     1      21.601   0.415  53.031  1.00  0.00     0.140 A 
HETATM   14  N3  UNL     1      21.157  -0.420  53.961  1.00  0.00    -0.224 NA
HETATM   15  C10 UNL     1      21.977  -1.113  54.755  1.00  0.00     0.236 A 
HETATM   16  N4  UNL     1      23.310  -1.012  54.664  1.00  0.00    -0.241 NA
HETATM   17  C11 UNL     1      23.849  -0.187  53.746  1.00  0.00     0.077 A 
HETATM   18  C12 UNL     1      25.215  -0.043  53.600  1.00  0.00     0.072 A 
HETATM   19  C19 UNL     1      22.973   0.515  52.941  1.00  0.00     0.075 A 
HETATM   20  C13 UNL     1      25.801   0.801  52.654  1.00  0.00     0.107 A 
HETATM   21  C17 UNL     1      24.873   1.468  51.889  1.00  0.00     0.136 A 
HETATM   22  C18 UNL     1      23.508   1.364  51.988  1.00  0.00     0.121 A 
HETATM   23  O3  UNL     1      25.406   2.314  50.941  1.00  0.00    -0.344 OA
HETATM   24  O2  UNL     1      22.786   2.126  51.116  1.00  0.00    -0.345 OA
HETATM   25  C20 UNL     1      23.229   3.417  50.773  1.00  0.00     0.202 C 
HETATM   26  C21 UNL     1      24.661   3.331  50.318  1.00  0.00     0.202 C 
BRANCH  20  27
HETATM   27  O1  UNL     1      27.145   0.783  52.690  1.00  0.00    -0.344 OA
BRANCH  27  28
HETATM   28  C14 UNL     1      28.006   0.995  53.753  1.00  0.00     0.121 C 
HETATM   29  C15 UNL     1      29.171  -0.003  53.710  1.00  0.00     0.040 C 
HETATM   30  C16 UNL     1      28.630   2.392  53.553  1.00  0.00     0.040 C 
ENDBRANCH  27  28
ENDBRANCH  20  27
ENDBRANCH  11  13
ENDBRANCH  10  11
ENDBRANCH   9  10
ENDBRANCH   7   8
ENDBRANCH   2   5
TORSDOF 7
ENDMDL
MODEL 9
REMARK VINA RESULT:      -6.2      2.142      2.796
REMARK  7 active torsions:
REMARK  status: ('A' for Active; 'I' for Inactive)
REMARK    1  A    between atoms: C2_2  and  C4_5 
REMARK    2  A    between atoms: C5_7  and  C6_8 
REMARK    3  A    between atoms: C7_9  and  C8_10 
REMARK    4  A    between atoms: C8_10  and  N2_11 
REMARK    5  A    between atoms: N2_11  and  C9_12 
REMARK    6  A    between atoms: C13_18  and  O1_19 
REMARK    7  A    between atoms: O1_19  and  C14_20 
ROOT
HETATM    1  C1  UNL     1      19.835   8.934  50.170  1.00  0.00     0.058 C 
HETATM    2  C2  UNL     1      20.663   8.442  49.264  1.00  0.00     0.061 C 
HETATM    3  C3  UNL     1      21.517   9.423  48.664  1.00  0.00     0.098 C 
HETATM    4  N1  UNL     1      22.225  10.223  48.167  1.00  0.00    -0.192 NA
ENDROOT
BRANCH   2   5
HETATM    5  C4  UNL     1      20.690   7.017  48.923  1.00  0.00     0.133 C 
HETATM    6  F1  UNL     1      20.322   6.666  47.675  1.00  0.00    -0.205 F 
HETATM    7  C5  UNL     1      21.062   6.136  49.807  1.00  0.00     0.043 C 
BRANCH   7   8
HETATM    8  C6  UNL     1      21.518   5.590  51.064  1.00  0.00     0.001 C 
HETATM    9  C7  UNL     1      21.507   4.602  51.938  1.00  0.00    -0.007 C 
BRANCH   9  10
HETATM   10  C8  UNL     1      20.697   3.386  51.692  1.00  0.00     0.148 C 
BRANCH  10  11
HETATM   11  N2  UNL     1      21.475   2.252  51.249  1.00  0.00    -0.370 N 
HETATM   12  H8  UNL     1      21.592   2.365  50.246  1.00  0.00     0.161 HD
BRANCH  11  13
HETATM   13  C9  UNL     1      21.857   1.327  52.277  1.00  0.00     0.140 A 
HETATM   14  N3  UNL     1      20.928   0.753  53.030  1.00  0.00    -0.224 NA
HETATM   15  C10 UNL     1      21.225  -0.111  54.004  1.00  0.00     0.236 A 
HETATM   16  N4  UNL     1      22.488  -0.459  54.286  1.00  0.00    -0.241 NA
HETATM   17  C11 UNL     1      23.496   0.074  53.571  1.00  0.00     0.077 A 
HETATM   18  C12 UNL     1      24.818  -0.248  53.810  1.00  0.00     0.072 A 
HETATM   19  C19 UNL     1      23.154   0.965  52.571  1.00  0.00     0.075 A 
HETATM   20  C13 UNL     1      25.882   0.286  53.081  1.00  0.00     0.107 A 
HETATM   21  C17 UNL     1      25.471   1.163  52.105  1.00  0.00     0.136 A 
HETATM   22  C18 UNL     1      24.176   1.520  51.822  1.00  0.00     0.121 A 
HETATM   23  O3  UNL     1      26.489   1.717  51.359  1.00  0.00    -0.344 OA
HETATM   24  O2  UNL     1      24.012   2.412  50.801  1.00  0.00    -0.345 OA
HETATM   25  C20 UNL     1      24.936   3.457  50.622  1.00  0.00     0.202 C 
HETATM   26  C21 UNL     1      26.323   2.874  50.578  1.00  0.00     0.202 C 
BRANCH  20  27
HETATM   27  O1  UNL     1      27.081  -0.169  53.486  1.00  0.00    -0.344 OA
BRANCH  27  28
HETATM   28  C14 UNL     1      28.002  -0.956  52.817  1.00  0.00     0.121 C 
HETATM   29  C15 UNL     1      29.250  -1.178  53.681  1.00  0.00     0.040 C 
HETATM   30  C16 UNL     1      27.356  -2.345  52.632  1.00  0.00     0.040 C 
ENDBRANCH  27  28
ENDBRANCH  20  27
ENDBRANCH  11  13
ENDBRANCH  10  11
ENDBRANCH   9  10
ENDBRANCH   7   8
ENDBRANCH   2   5
TORSDOF 7
ENDMDL
