MODEL 1
REMARK VINA RESULT:      -8.8      0.000      0.000
REMARK  2 active torsions:
REMARK  status: ('A' for Active; 'I' for Inactive)
REMARK    1  A    between atoms: N1_5  and  C5_6 
REMARK    2  A    between atoms: C11_15  and  C12_16 
ROOT
HETATM    1  C5  UNL     1      24.789  -0.535  53.977  1.00  0.00     0.141 A 
HETATM    2  N2  UNL     1      24.785  -1.284  55.089  1.00  0.00    -0.224 NA
HETATM    3  C6  UNL     1      23.615  -1.560  55.666  1.00  0.00     0.235 A 
HETATM    4  N3  UNL     1      22.426  -1.134  55.204  1.00  0.00    -0.245 NA
HETATM    5  C7  UNL     1      22.340  -0.364  54.073  1.00  0.00     0.056 A 
HETATM    6  C8  UNL     1      23.558  -0.084  53.484  1.00  0.00     0.037 A 
HETATM    7  C9  UNL     1      23.631   0.732  52.274  1.00  0.00     0.041 C 
HETATM    8  C10 UNL     1      22.723   1.035  51.357  1.00  0.00     0.136 C 
HETATM    9  O1  UNL     1      21.442   0.527  51.496  1.00  0.00    -0.355 OA
HETATM   10  C11 UNL     1      20.495   0.492  52.554  1.00  0.00     0.170 C 
HETATM   11  C17 UNL     1      20.925  -0.062  53.833  1.00  0.00     0.066 C 
HETATM   12  C18 UNL     1      20.523   0.857  55.002  1.00  0.00     0.019 C 
ENDROOT
BRANCH   1  13
HETATM   13  N1  UNL     1      25.986  -0.174  53.255  1.00  0.00    -0.331 N 
HETATM   14  C4  UNL     1      26.678  -0.778  52.128  1.00  0.00     0.155 C 
HETATM   15  C3  UNL     1      27.993  -1.354  52.566  1.00  0.00    -0.005 C 
HETATM   16  C2  UNL     1      28.539  -0.591  53.484  1.00  0.00    -0.082 C 
HETATM   17  C1  UNL     1      29.867  -1.011  54.046  1.00  0.00     0.043 C 
HETATM   18  C20 UNL     1      28.083   0.675  54.116  1.00  0.00     0.092 C 
HETATM   19  C19 UNL     1      26.669   1.038  53.725  1.00  0.00     0.277 C 
HETATM   20  F1  UNL     1      26.045   1.601  54.799  1.00  0.00    -0.226 F 
ENDBRANCH   1  13
BRANCH  10  21
HETATM   21  C12 UNL     1      19.246  -0.034  51.937  1.00  0.00     0.254 C 
HETATM   22  N4  UNL     1      18.209  -0.481  52.802  1.00  0.00     0.091 N 
HETATM   23  C13 UNL     1      17.204  -0.958  51.866  1.00  0.00     0.270 C 
HETATM   24  H12 UNL     1      17.755   0.197  53.411  1.00  0.00     0.316 HD
HETATM   25  C14 UNL     1      17.443  -0.217  50.543  1.00  0.00     0.036 C 
HETATM   26  C15 UNL     1      18.526   0.819  50.962  1.00  0.00     0.019 C 
HETATM   27  C16 UNL     1      17.768   1.989  51.452  1.00  0.00     0.012 C 
ENDBRANCH  10  21
TORSDOF 2
ENDMDL
MODEL 2
REMARK VINA RESULT:      -8.4      2.141      3.481
REMARK  2 active torsions:
REMARK  status: ('A' for Active; 'I' for Inactive)
REMARK    1  A    between atoms: N1_5  and  C5_6 
REMARK    2  A    between atoms: C11_15  and  C12_16 
ROOT
HETATM    1  C5  UNL     1      25.715   1.159  52.303  1.00  0.00     0.141 A 
HETATM    2  N2  UNL     1      26.402   2.086  51.621  1.00  0.00    -0.224 NA
HETATM    3  C6  UNL     1      25.744   2.860  50.757  1.00  0.00     0.235 A 
HETATM    4  N3  UNL     1      24.424   2.772  50.519  1.00  0.00    -0.245 NA
HETATM    5  C7  UNL     1      23.646   1.851  51.173  1.00  0.00     0.056 A 
HETATM    6  C8  UNL     1      24.338   1.056  52.065  1.00  0.00     0.037 A 
HETATM    7  C9  UNL     1      23.647   0.022  52.834  1.00  0.00     0.041 C 
HETATM    8  C10 UNL     1      22.368  -0.145  53.137  1.00  0.00     0.136 C 
HETATM    9  O1  UNL     1      21.449   0.783  52.679  1.00  0.00    -0.355 OA
HETATM   10  C11 UNL     1      21.166   1.364  51.414  1.00  0.00     0.170 C 
HETATM   11  C17 UNL     1      22.266   2.002  50.699  1.00  0.00     0.066 C 
HETATM   12  C18 UNL     1      22.312   1.548  49.227  1.00  0.00     0.019 C 
ENDROOT
BRANCH   1  13
HETATM   13  N1  UNL     1      26.308   0.267  53.271  1.00  0.00    -0.331 N 
HETATM   14  C4  UNL     1      26.680   0.433  54.667  1.00  0.00     0.155 C 
HETATM   15  C3  UNL     1      28.173   0.415  54.819  1.00  0.00    -0.005 C 
HETATM   16  C2  UNL     1      28.703  -0.443  53.979  1.00  0.00    -0.082 C 
HETATM   17  C1  UNL     1      30.197  -0.598  53.986  1.00  0.00     0.043 C 
HETATM   18  C20 UNL     1      28.092  -1.341  52.965  1.00  0.00     0.092 C 
HETATM   19  C19 UNL     1      26.612  -1.084  52.786  1.00  0.00     0.277 C 
HETATM   20  F1  UNL     1      26.293  -1.247  51.469  1.00  0.00    -0.226 F 
ENDBRANCH   1  13
BRANCH  10  21
HETATM   21  C12 UNL     1      19.909   2.135  51.616  1.00  0.00     0.254 C 
HETATM   22  N4  UNL     1      19.798   3.408  50.991  1.00  0.00     0.091 N 
HETATM   23  C13 UNL     1      18.495   3.868  51.445  1.00  0.00     0.270 C 
HETATM   24  H12 UNL     1      19.795   3.454  49.973  1.00  0.00     0.316 HD
HETATM   25  C14 UNL     1      17.680   2.615  51.795  1.00  0.00     0.036 C 
HETATM   26  C15 UNL     1      18.619   1.485  51.283  1.00  0.00     0.019 C 
HETATM   27  C16 UNL     1      18.254   1.295  49.864  1.00  0.00     0.012 C 
ENDBRANCH  10  21
TORSDOF 2
ENDMDL
MODEL 3
REMARK VINA RESULT:      -8.4      5.161      8.388
REMARK  2 active torsions:
REMARK  status: ('A' for Active; 'I' for Inactive)
REMARK    1  A    between atoms: N1_5  and  C5_6 
REMARK    2  A    between atoms: C11_15  and  C12_16 
ROOT
HETATM    1  C5  UNL     1      23.813   5.425  50.647  1.00  0.00     0.141 A 
HETATM    2  N2  UNL     1      22.832   5.685  51.523  1.00  0.00    -0.224 NA
HETATM    3  C6  UNL     1      22.624   4.825  52.521  1.00  0.00     0.235 A 
HETATM    4  N3  UNL     1      23.339   3.701  52.709  1.00  0.00    -0.245 NA
HETATM    5  C7  UNL     1      24.360   3.359  51.861  1.00  0.00     0.056 A 
HETATM    6  C8  UNL     1      24.566   4.258  50.831  1.00  0.00     0.037 A 
HETATM    7  C9  UNL     1      25.615   4.028  49.840  1.00  0.00     0.041 C 
HETATM    8  C10 UNL     1      26.703   3.272  49.865  1.00  0.00     0.136 C 
HETATM    9  O1  UNL     1      26.969   2.527  51.002  1.00  0.00    -0.355 OA
HETATM   10  C11 UNL     1      26.215   1.628  51.802  1.00  0.00     0.170 C 
HETATM   11  C17 UNL     1      24.936   2.095  52.326  1.00  0.00     0.066 C 
HETATM   12  C18 UNL     1      23.824   1.054  52.091  1.00  0.00     0.019 C 
ENDROOT
BRANCH   1  13
HETATM   13  N1  UNL     1      24.143   6.279  49.531  1.00  0.00    -0.331 N 
HETATM   14  C4  UNL     1      25.098   7.364  49.368  1.00  0.00     0.155 C 
HETATM   15  C3  UNL     1      24.384   8.676  49.221  1.00  0.00    -0.005 C 
HETATM   16  C2  UNL     1      23.278   8.515  48.533  1.00  0.00    -0.082 C 
HETATM   17  C1  UNL     1      22.425   9.726  48.284  1.00  0.00     0.043 C 
HETATM   18  C20 UNL     1      22.663   7.311  47.916  1.00  0.00     0.092 C 
HETATM   19  C19 UNL     1      23.382   6.036  48.299  1.00  0.00     0.277 C 
HETATM   20  F1  UNL     1      22.463   5.040  48.446  1.00  0.00    -0.226 F 
ENDBRANCH   1  13
BRANCH  10  21
HETATM   21  C12 UNL     1      27.199   1.038  52.751  1.00  0.00     0.254 C 
HETATM   22  N4  UNL     1      26.954   1.185  54.145  1.00  0.00     0.091 N 
HETATM   23  C13 UNL     1      28.119   0.547  54.736  1.00  0.00     0.270 C 
HETATM   24  H12 UNL     1      26.131   0.738  54.545  1.00  0.00     0.316 HD
HETATM   25  C14 UNL     1      28.655  -0.450  53.698  1.00  0.00     0.036 C 
HETATM   26  C15 UNL     1      27.535  -0.399  52.619  1.00  0.00     0.019 C 
HETATM   27  C16 UNL     1      26.546  -1.412  53.044  1.00  0.00     0.012 C 
ENDBRANCH  10  21
TORSDOF 2
ENDMDL
MODEL 4
REMARK VINA RESULT:      -8.2      6.948      8.897
REMARK  2 active torsions:
REMARK  status: ('A' for Active; 'I' for Inactive)
REMARK    1  A    between atoms: N1_5  and  C5_6 
REMARK    2  A    between atoms: C11_15  and  C12_16 
ROOT
HETATM    1  C5  UNL     1      25.632   7.858  49.427  1.00  0.00     0.141 A 
HETATM    2  N2  UNL     1      24.643   8.413  50.140  1.00  0.00    -0.224 NA
HETATM    3  C6  UNL     1      23.860   7.618  50.870  1.00  0.00     0.235 A 
HETATM    4  N3  UNL     1      23.996   6.282  50.939  1.00  0.00    -0.245 NA
HETATM    5  C7  UNL     1      24.981   5.633  50.241  1.00  0.00     0.056 A 
HETATM    6  C8  UNL     1      25.786   6.467  49.488  1.00  0.00     0.037 A 
HETATM    7  C9  UNL     1      26.878   5.923  48.683  1.00  0.00     0.041 C 
HETATM    8  C10 UNL     1      27.530   4.771  48.745  1.00  0.00     0.136 C 
HETATM    9  O1  UNL     1      27.174   3.856  49.721  1.00  0.00    -0.355 OA
HETATM   10  C11 UNL     1      25.946   3.286  50.151  1.00  0.00     0.170 C 
HETATM   11  C17 UNL     1      24.867   4.198  50.518  1.00  0.00     0.066 C 
HETATM   12  C18 UNL     1      23.538   3.782  49.859  1.00  0.00     0.019 C 
ENDROOT
BRANCH   1  13
HETATM   13  N1  UNL     1      26.552   8.609  48.605  1.00  0.00    -0.331 N 
HETATM   14  C4  UNL     1      26.637   8.832  47.171  1.00  0.00     0.155 C 
HETATM   15  C3  UNL     1      27.838   8.135  46.600  1.00  0.00    -0.005 C 
HETATM   16  C2  UNL     1      28.839   8.190  47.448  1.00  0.00    -0.082 C 
HETATM   17  C1  UNL     1      30.133   7.541  47.048  1.00  0.00     0.043 C 
HETATM   18  C20 UNL     1      28.958   8.798  48.799  1.00  0.00     0.092 C 
HETATM   19  C19 UNL     1      27.630   9.296  49.326  1.00  0.00     0.277 C 
HETATM   20  F1  UNL     1      27.579   9.074  50.671  1.00  0.00    -0.226 F 
ENDBRANCH   1  13
BRANCH  10  21
HETATM   21  C12 UNL     1      26.332   2.219  51.115  1.00  0.00     0.254 C 
HETATM   22  N4  UNL     1      27.267   2.546  52.136  1.00  0.00     0.091 N 
HETATM   23  C13 UNL     1      27.432   1.278  52.827  1.00  0.00     0.270 C 
HETATM   24  H12 UNL     1      27.004   3.238  52.835  1.00  0.00     0.316 HD
HETATM   25  C14 UNL     1      26.158   0.462  52.568  1.00  0.00     0.036 C 
HETATM   26  C15 UNL     1      25.260   1.514  51.855  1.00  0.00     0.019 C 
HETATM   27  C16 UNL     1      24.555   2.218  52.947  1.00  0.00     0.012 C 
ENDBRANCH  10  21
TORSDOF 2
ENDMDL
MODEL 5
REMARK VINA RESULT:      -7.9      2.507      3.478
REMARK  2 active torsions:
REMARK  status: ('A' for Active; 'I' for Inactive)
REMARK    1  A    between atoms: N1_5  and  C5_6 
REMARK    2  A    between atoms: C11_15  and  C12_16 
ROOT
HETATM    1  C5  UNL     1      24.108   2.121  52.862  1.00  0.00     0.141 A 
HETATM    2  N2  UNL     1      24.544   3.313  53.294  1.00  0.00    -0.224 NA
HETATM    3  C6  UNL     1      23.764   4.380  53.113  1.00  0.00     0.235 A 
HETATM    4  N3  UNL     1      22.558   4.341  52.519  1.00  0.00    -0.245 NA
HETATM    5  C7  UNL     1      22.037   3.163  52.048  1.00  0.00     0.056 A 
HETATM    6  C8  UNL     1      22.854   2.065  52.242  1.00  0.00     0.037 A 
HETATM    7  C9  UNL     1      22.439   0.739  51.788  1.00  0.00     0.041 C 
HETATM    8  C10 UNL     1      21.248   0.240  51.492  1.00  0.00     0.136 C 
HETATM    9  O1  UNL     1      20.137   1.058  51.604  1.00  0.00    -0.355 OA
HETATM   10  C11 UNL     1      19.808   2.359  51.138  1.00  0.00     0.170 C 
HETATM   11  C17 UNL     1      20.725   3.448  51.460  1.00  0.00     0.066 C 
HETATM   12  C18 UNL     1      21.037   4.300  50.215  1.00  0.00     0.019 C 
ENDROOT
BRANCH   1  13
HETATM   13  N1  UNL     1      24.853   0.892  53.005  1.00  0.00    -0.331 N 
HETATM   14  C4  UNL     1      24.786  -0.194  53.969  1.00  0.00     0.155 C 
HETATM   15  C3  UNL     1      26.012  -0.205  54.836  1.00  0.00    -0.005 C 
HETATM   16  C2  UNL     1      27.067   0.135  54.132  1.00  0.00    -0.082 C 
HETATM   17  C1  UNL     1      28.393   0.182  54.835  1.00  0.00     0.043 C 
HETATM   18  C20 UNL     1      27.223   0.506  52.701  1.00  0.00     0.092 C 
HETATM   19  C19 UNL     1      25.894   0.660  51.997  1.00  0.00     0.277 C 
HETATM   20  F1  UNL     1      25.986   1.684  51.101  1.00  0.00    -0.226 F 
ENDBRANCH   1  13
BRANCH  10  21
HETATM   21  C12 UNL     1      18.364   2.530  51.459  1.00  0.00     0.254 C 
HETATM   22  N4  UNL     1      17.835   3.851  51.481  1.00  0.00     0.091 N 
HETATM   23  C13 UNL     1      16.452   3.628  51.870  1.00  0.00     0.270 C 
HETATM   24  H12 UNL     1      17.821   4.386  50.614  1.00  0.00     0.316 HD
HETATM   25  C14 UNL     1      16.102   2.190  51.462  1.00  0.00     0.036 C 
HETATM   26  C15 UNL     1      17.368   1.784  50.654  1.00  0.00     0.019 C 
HETATM   27  C16 UNL     1      17.093   2.216  49.268  1.00  0.00     0.012 C 
ENDBRANCH  10  21
TORSDOF 2
ENDMDL
MODEL 6
REMARK VINA RESULT:      -7.9      4.875      7.674
REMARK  2 active torsions:
REMARK  status: ('A' for Active; 'I' for Inactive)
REMARK    1  A    between atoms: N1_5  and  C5_6 
REMARK    2  A    between atoms: C11_15  and  C12_16 
ROOT
HETATM    1  C5  UNL     1      22.275   1.907  51.297  1.00  0.00     0.141 A 
HETATM    2  N2  UNL     1      22.017   1.145  50.224  1.00  0.00    -0.224 NA
HETATM    3  C6  UNL     1      22.180   1.677  49.012  1.00  0.00     0.235 A 
HETATM    4  N3  UNL     1      22.588   2.939  48.790  1.00  0.00    -0.245 NA
HETATM    5  C7  UNL     1      22.872   3.785  49.831  1.00  0.00     0.056 A 
HETATM    6  C8  UNL     1      22.700   3.223  51.081  1.00  0.00     0.037 A 
HETATM    7  C9  UNL     1      22.958   4.003  52.291  1.00  0.00     0.041 C 
HETATM    8  C10 UNL     1      23.668   5.103  52.497  1.00  0.00     0.136 C 
HETATM    9  O1  UNL     1      24.316   5.688  51.422  1.00  0.00    -0.355 OA
HETATM   10  C11 UNL     1      23.921   6.079  50.115  1.00  0.00     0.170 C 
HETATM   11  C17 UNL     1      23.284   5.076  49.269  1.00  0.00     0.066 C 
HETATM   12  C18 UNL     1      22.009   5.633  48.608  1.00  0.00     0.019 C 
ENDROOT
BRANCH   1  13
HETATM   13  N1  UNL     1      22.146   1.447  52.660  1.00  0.00    -0.331 N 
HETATM   14  C4  UNL     1      23.082   0.827  53.584  1.00  0.00     0.155 C 
HETATM   15  C3  UNL     1      22.703  -0.603  53.836  1.00  0.00    -0.005 C 
HETATM   16  C2  UNL     1      21.396  -0.727  53.866  1.00  0.00    -0.082 C 
HETATM   17  C1  UNL     1      20.828  -2.096  54.108  1.00  0.00     0.043 C 
HETATM   18  C20 UNL     1      20.305   0.268  53.699  1.00  0.00     0.092 C 
HETATM   19  C19 UNL     1      20.820   1.622  53.265  1.00  0.00     0.277 C 
HETATM   20  F1  UNL     1      19.924   2.178  52.401  1.00  0.00    -0.226 F 
ENDBRANCH   1  13
BRANCH  10  21
HETATM   21  C12 UNL     1      25.085   6.832  49.570  1.00  0.00     0.254 C 
HETATM   22  N4  UNL     1      26.043   7.340  50.490  1.00  0.00     0.091 N 
HETATM   23  C13 UNL     1      26.975   8.038  49.619  1.00  0.00     0.270 C 
HETATM   24  H12 UNL     1      26.586   6.680  51.044  1.00  0.00     0.316 HD
HETATM   25  C14 UNL     1      26.851   7.395  48.231  1.00  0.00     0.036 C 
HETATM   26  C15 UNL     1      25.925   6.182  48.536  1.00  0.00     0.019 C 
HETATM   27  C16 UNL     1      26.839   5.091  48.932  1.00  0.00     0.012 C 
ENDBRANCH  10  21
TORSDOF 2
ENDMDL
MODEL 7
REMARK VINA RESULT:      -7.7      7.168      9.389
REMARK  2 active torsions:
REMARK  status: ('A' for Active; 'I' for Inactive)
REMARK    1  A    between atoms: N1_5  and  C5_6 
REMARK    2  A    between atoms: C11_15  and  C12_16 
ROOT
HETATM    1  C5  UNL     1      25.368   7.581  49.532  1.00  0.00     0.141 A 
HETATM    2  N2  UNL     1      24.375   8.071  50.287  1.00  0.00    -0.224 NA
HETATM    3  C6  UNL     1      23.689   7.229  51.062  1.00  0.00     0.235 A 
HETATM    4  N3  UNL     1      23.928   5.908  51.136  1.00  0.00    -0.245 NA
HETATM    5  C7  UNL     1      24.925   5.325  50.397  1.00  0.00     0.056 A 
HETATM    6  C8  UNL     1      25.628   6.207  49.599  1.00  0.00     0.037 A 
HETATM    7  C9  UNL     1      26.718   5.735  48.747  1.00  0.00     0.041 C 
HETATM    8  C10 UNL     1      27.457   4.635  48.788  1.00  0.00     0.136 C 
HETATM    9  O1  UNL     1      27.217   3.709  49.789  1.00  0.00    -0.355 OA
HETATM   10  C11 UNL     1      26.057   3.056  50.283  1.00  0.00     0.170 C 
HETATM   11  C17 UNL     1      24.932   3.889  50.694  1.00  0.00     0.066 C 
HETATM   12  C18 UNL     1      23.607   3.367  50.104  1.00  0.00     0.019 C 
ENDROOT
BRANCH   1  13
HETATM   13  N1  UNL     1      26.188   8.388  48.659  1.00  0.00    -0.331 N 
HETATM   14  C4  UNL     1      27.483   9.025  48.834  1.00  0.00     0.155 C 
HETATM   15  C3  UNL     1      27.335  10.518  48.872  1.00  0.00    -0.005 C 
HETATM   16  C2  UNL     1      26.396  10.901  48.038  1.00  0.00    -0.082 C 
HETATM   17  C1  UNL     1      26.103  12.371  47.939  1.00  0.00     0.043 C 
HETATM   18  C20 UNL     1      25.514  10.132  47.121  1.00  0.00     0.092 C 
HETATM   19  C19 UNL     1      25.637   8.638  47.322  1.00  0.00     0.277 C 
HETATM   20  F1  UNL     1      24.409   8.069  47.152  1.00  0.00    -0.226 F 
ENDBRANCH   1  13
BRANCH  10  21
HETATM   21  C12 UNL     1      26.567   2.033  51.237  1.00  0.00     0.254 C 
HETATM   22  N4  UNL     1      27.319   2.481  52.359  1.00  0.00     0.091 N 
HETATM   23  C13 UNL     1      27.680   1.233  53.012  1.00  0.00     0.270 C 
HETATM   24  H12 UNL     1      26.857   3.062  53.056  1.00  0.00     0.316 HD
HETATM   25  C14 UNL     1      26.631   0.193  52.594  1.00  0.00     0.036 C 
HETATM   26  C15 UNL     1      25.602   1.083  51.838  1.00  0.00     0.019 C 
HETATM   27  C16 UNL     1      24.672   1.564  52.881  1.00  0.00     0.012 C 
ENDBRANCH  10  21
TORSDOF 2
ENDMDL
MODEL 8
REMARK VINA RESULT:      -7.7      5.188      8.729
REMARK  2 active torsions:
REMARK  status: ('A' for Active; 'I' for Inactive)
REMARK    1  A    between atoms: N1_5  and  C5_6 
REMARK    2  A    between atoms: C11_15  and  C12_16 
ROOT
HETATM    1  C5  UNL     1      22.105   2.779  51.007  1.00  0.00     0.141 A 
HETATM    2  N2  UNL     1      22.542   2.324  52.190  1.00  0.00    -0.224 NA
HETATM    3  C6  UNL     1      23.792   2.606  52.558  1.00  0.00     0.235 A 
HETATM    4  N3  UNL     1      24.655   3.321  51.814  1.00  0.00    -0.245 NA
HETATM    5  C7  UNL     1      24.290   3.823  50.592  1.00  0.00     0.056 A 
HETATM    6  C8  UNL     1      22.992   3.525  50.221  1.00  0.00     0.037 A 
HETATM    7  C9  UNL     1      22.458   3.986  48.941  1.00  0.00     0.041 C 
HETATM    8  C10 UNL     1      22.841   4.955  48.123  1.00  0.00     0.136 C 
HETATM    9  O1  UNL     1      23.942   5.721  48.467  1.00  0.00    -0.355 OA
HETATM   10  C11 UNL     1      25.267   5.427  48.884  1.00  0.00     0.170 C 
HETATM   11  C17 UNL     1      25.437   4.545  50.034  1.00  0.00     0.066 C 
HETATM   12  C18 UNL     1      26.481   3.449  49.747  1.00  0.00     0.019 C 
ENDROOT
BRANCH   1  13
HETATM   13  N1  UNL     1      20.772   2.550  50.499  1.00  0.00    -0.331 N 
HETATM   14  C4  UNL     1      19.524   3.281  50.642  1.00  0.00     0.155 C 
HETATM   15  C3  UNL     1      18.551   2.501  51.479  1.00  0.00    -0.005 C 
HETATM   16  C2  UNL     1      18.666   1.218  51.229  1.00  0.00    -0.082 C 
HETATM   17  C1  UNL     1      17.769   0.275  51.978  1.00  0.00     0.043 C 
HETATM   18  C20 UNL     1      19.556   0.466  50.306  1.00  0.00     0.092 C 
HETATM   19  C19 UNL     1      20.607   1.349  49.671  1.00  0.00     0.277 C 
HETATM   20  F1  UNL     1      21.764   0.639  49.550  1.00  0.00    -0.226 F 
ENDBRANCH   1  13
BRANCH  10  21
HETATM   21  C12 UNL     1      25.972   6.738  48.885  1.00  0.00     0.254 C 
HETATM   22  N4  UNL     1      26.481   7.223  50.122  1.00  0.00     0.091 N 
HETATM   23  C13 UNL     1      27.038   8.513  49.748  1.00  0.00     0.270 C 
HETATM   24  H12 UNL     1      27.221   6.699  50.584  1.00  0.00     0.316 HD
HETATM   25  C14 UNL     1      27.364   8.437  48.249  1.00  0.00     0.036 C 
HETATM   26  C15 UNL     1      27.110   6.931  47.956  1.00  0.00     0.019 C 
HETATM   27  C16 UNL     1      28.395   6.261  48.244  1.00  0.00     0.012 C 
ENDBRANCH  10  21
TORSDOF 2
ENDMDL
MODEL 9
REMARK VINA RESULT:      -7.7      8.260      9.759
REMARK  2 active torsions:
REMARK  status: ('A' for Active; 'I' for Inactive)
REMARK    1  A    between atoms: N1_5  and  C5_6 
REMARK    2  A    between atoms: C11_15  and  C12_16 
ROOT
HETATM    1  C5  UNL     1      27.952   8.437  48.871  1.00  0.00     0.141 A 
HETATM    2  N2  UNL     1      27.392   9.537  49.392  1.00  0.00    -0.224 NA
HETATM    3  C6  UNL     1      26.206   9.426  49.992  1.00  0.00     0.235 A 
HETATM    4  N3  UNL     1      25.526   8.272  50.110  1.00  0.00    -0.245 NA
HETATM    5  C7  UNL     1      26.026   7.099  49.606  1.00  0.00     0.056 A 
HETATM    6  C8  UNL     1      27.255   7.227  48.987  1.00  0.00     0.037 A 
HETATM    7  C9  UNL     1      27.915   6.066  48.394  1.00  0.00     0.041 C 
HETATM    8  C10 UNL     1      27.757   4.765  48.590  1.00  0.00     0.136 C 
HETATM    9  O1  UNL     1      26.812   4.340  49.509  1.00  0.00    -0.355 OA
HETATM   10  C11 UNL     1      25.440   4.632  49.732  1.00  0.00     0.170 C 
HETATM   11  C17 UNL     1      25.061   6.033  49.889  1.00  0.00     0.066 C 
HETATM   12  C18 UNL     1      23.837   6.379  49.019  1.00  0.00     0.019 C 
ENDROOT
BRANCH   1  13
HETATM   13  N1  UNL     1      29.233   8.423  48.205  1.00  0.00    -0.331 N 
HETATM   14  C4  UNL     1      30.576   8.097  48.657  1.00  0.00     0.155 C 
HETATM   15  C3  UNL     1      31.431   9.330  48.701  1.00  0.00    -0.005 C 
HETATM   16  C2  UNL     1      31.128  10.127  47.702  1.00  0.00    -0.082 C 
HETATM   17  C1  UNL     1      31.884  11.419  47.582  1.00  0.00     0.043 C 
HETATM   18  C20 UNL     1      30.132  10.003  46.606  1.00  0.00     0.092 C 
HETATM   19  C19 UNL     1      29.217   8.813  46.790  1.00  0.00     0.277 C 
HETATM   20  F1  UNL     1      27.967   9.148  46.359  1.00  0.00    -0.226 F 
ENDBRANCH   1  13
BRANCH  10  21
HETATM   21  C12 UNL     1      25.002   3.658  50.769  1.00  0.00     0.254 C 
HETATM   22  N4  UNL     1      24.416   4.169  51.961  1.00  0.00     0.091 N 
HETATM   23  C13 UNL     1      24.172   2.961  52.733  1.00  0.00     0.270 C 
HETATM   24  H12 UNL     1      23.530   4.666  51.895  1.00  0.00     0.316 HD
HETATM   25  C14 UNL     1      24.063   1.806  51.726  1.00  0.00     0.036 C 
HETATM   26  C15 UNL     1      24.071   2.575  50.374  1.00  0.00     0.019 C 
HETATM   27  C16 UNL     1      22.654   2.904  50.112  1.00  0.00     0.012 C 
ENDBRANCH  10  21
TORSDOF 2
ENDMDL
