MODEL 1
REMARK VINA RESULT:      -8.0      0.000      0.000
REMARK  5 active torsions:
REMARK  status: ('A' for Active; 'I' for Inactive)
REMARK    1  A    between atoms: C3_3  and  C4_4 
REMARK    2  A    between atoms: C9_10  and  N2_11 
REMARK    3  A    between atoms: N2_11  and  C10_12 
REMARK    4  A    between atoms: C14_18  and  O1_19 
REMARK    5  A    between atoms: C16_21  and  O2_22 
ROOT
HETATM    1  C10 UNL     1      24.675  -0.717  53.824  1.00  0.00     0.142 A 
HETATM    2  N3  UNL     1      24.950  -1.354  54.975  1.00  0.00    -0.224 NA
HETATM    3  C11 UNL     1      23.958  -1.604  55.876  1.00  0.00     0.236 A 
HETATM    4  N4  UNL     1      22.707  -1.189  55.568  1.00  0.00    -0.241 NA
HETATM    5  C12 UNL     1      22.418  -0.541  54.402  1.00  0.00     0.075 A 
HETATM    6  C13 UNL     1      21.134  -0.127  54.108  1.00  0.00     0.072 A 
HETATM    7  C14 UNL     1      20.901   0.531  52.899  1.00  0.00     0.103 A 
HETATM    8  C16 UNL     1      21.899   0.788  51.983  1.00  0.00     0.102 A 
HETATM    9  C18 UNL     1      23.182   0.363  52.297  1.00  0.00     0.057 A 
HETATM   10  C19 UNL     1      23.429  -0.288  53.486  1.00  0.00     0.042 A 
ENDROOT
BRANCH   1  11
HETATM   11  N2  UNL     1      25.798  -0.520  52.974  1.00  0.00    -0.339 N 
HETATM   12  H11 UNL     1      26.047  -0.924  52.050  1.00  0.00     0.167 HD
BRANCH  11  13
HETATM   13  C9  UNL     1      26.845   0.371  53.343  1.00  0.00     0.058 A 
HETATM   14  C5  UNL     1      27.163   1.565  52.567  1.00  0.00    -0.025 A 
HETATM   15  C4  UNL     1      26.452   1.848  51.464  1.00  0.00     0.009 C 
HETATM   16  C6  UNL     1      28.253   2.518  52.926  1.00  0.00     0.087 A 
HETATM   17  C7  UNL     1      28.908   2.030  54.160  1.00  0.00     0.094 A 
HETATM   18  N1  UNL     1      28.611   0.962  54.839  1.00  0.00    -0.275 NA
HETATM   19  C8  UNL     1      27.553   0.093  54.436  1.00  0.00     0.145 A 
BRANCH  15  20
HETATM   20  C3  UNL     1      26.791   3.048  50.707  1.00  0.00    -0.004 C 
HETATM   21  C2  UNL     1      25.857   3.652  49.997  1.00  0.00    -0.031 C 
HETATM   22  C1  UNL     1      24.466   3.129  49.956  1.00  0.00     0.036 C 
ENDBRANCH  15  20
ENDBRANCH  11  13
ENDBRANCH   1  11
BRANCH   8  23
HETATM   23  O2  UNL     1      21.591   1.438  50.818  1.00  0.00    -0.353 OA
HETATM   24  C17 UNL     1      21.471   0.855  49.558  1.00  0.00     0.210 C 
ENDBRANCH   8  23
BRANCH   7  25
HETATM   25  O1  UNL     1      19.614   0.948  52.599  1.00  0.00    -0.353 OA
HETATM   26  C15 UNL     1      18.641   0.025  52.103  1.00  0.00     0.210 C 
ENDBRANCH   7  25
TORSDOF 5
ENDMDL
MODEL 2
REMARK VINA RESULT:      -7.8      2.804      5.592
REMARK  5 active torsions:
REMARK  status: ('A' for Active; 'I' for Inactive)
REMARK    1  A    between atoms: C3_3  and  C4_4 
REMARK    2  A    between atoms: C9_10  and  N2_11 
REMARK    3  A    between atoms: N2_11  and  C10_12 
REMARK    4  A    between atoms: C14_18  and  O1_19 
REMARK    5  A    between atoms: C16_21  and  O2_22 
ROOT
HETATM    1  C10 UNL     1      22.901   1.046  52.965  1.00  0.00     0.142 A 
HETATM    2  N3  UNL     1      21.815   0.391  53.413  1.00  0.00    -0.224 NA
HETATM    3  C11 UNL     1      21.956  -0.715  54.196  1.00  0.00     0.236 A 
HETATM    4  N4  UNL     1      23.211  -1.120  54.498  1.00  0.00    -0.241 NA
HETATM    5  C12 UNL     1      24.320  -0.462  54.048  1.00  0.00     0.075 A 
HETATM    6  C13 UNL     1      25.591  -0.893  54.369  1.00  0.00     0.072 A 
HETATM    7  C14 UNL     1      26.686  -0.178  53.879  1.00  0.00     0.103 A 
HETATM    8  C16 UNL     1      26.553   0.942  53.085  1.00  0.00     0.102 A 
HETATM    9  C18 UNL     1      25.266   1.358  52.775  1.00  0.00     0.057 A 
HETATM   10  C19 UNL     1      24.175   0.664  53.251  1.00  0.00     0.042 A 
ENDROOT
BRANCH   1  11
HETATM   11  N2  UNL     1      22.616   2.182  52.159  1.00  0.00    -0.339 N 
HETATM   12  H11 UNL     1      22.494   3.186  52.395  1.00  0.00     0.167 HD
BRANCH  11  13
HETATM   13  C9  UNL     1      22.444   2.053  50.751  1.00  0.00     0.058 A 
HETATM   14  C5  UNL     1      23.133   2.917  49.800  1.00  0.00    -0.025 A 
HETATM   15  C4  UNL     1      23.963   3.872  50.249  1.00  0.00     0.009 C 
HETATM   16  C6  UNL     1      22.975   2.809  48.320  1.00  0.00     0.087 A 
HETATM   17  C7  UNL     1      22.028   1.708  48.034  1.00  0.00     0.094 A 
HETATM   18  N1  UNL     1      21.422   0.948  48.897  1.00  0.00    -0.275 NA
HETATM   19  C8  UNL     1      21.621   1.108  50.302  1.00  0.00     0.145 A 
BRANCH  15  20
HETATM   20  C3  UNL     1      24.639   4.721  49.276  1.00  0.00    -0.004 C 
HETATM   21  C2  UNL     1      25.946   4.616  49.120  1.00  0.00    -0.031 C 
HETATM   22  C1  UNL     1      26.738   3.645  49.920  1.00  0.00     0.036 C 
ENDBRANCH  15  20
ENDBRANCH  11  13
ENDBRANCH   1  11
BRANCH   8  23
HETATM   23  O2  UNL     1      27.675   1.589  52.643  1.00  0.00    -0.353 OA
HETATM   24  C17 UNL     1      28.473   2.454  53.391  1.00  0.00     0.210 C 
ENDBRANCH   8  23
BRANCH   7  25
HETATM   25  O1  UNL     1      27.965  -0.606  54.198  1.00  0.00    -0.353 OA
HETATM   26  C15 UNL     1      28.673  -1.503  53.338  1.00  0.00     0.210 C 
ENDBRANCH   7  25
TORSDOF 5
ENDMDL
MODEL 3
REMARK VINA RESULT:      -7.8      3.020      7.002
REMARK  5 active torsions:
REMARK  status: ('A' for Active; 'I' for Inactive)
REMARK    1  A    between atoms: C3_3  and  C4_4 
REMARK    2  A    between atoms: C9_10  and  N2_11 
REMARK    3  A    between atoms: N2_11  and  C10_12 
REMARK    4  A    between atoms: C14_18  and  O1_19 
REMARK    5  A    between atoms: C16_21  and  O2_22 
ROOT
HETATM    1  C10 UNL     1      24.435   2.548  51.892  1.00  0.00     0.142 A 
HETATM    2  N3  UNL     1      24.803   3.461  50.977  1.00  0.00    -0.224 NA
HETATM    3  C11 UNL     1      26.091   3.509  50.535  1.00  0.00     0.236 A 
HETATM    4  N4  UNL     1      26.969   2.616  51.048  1.00  0.00    -0.241 NA
HETATM    5  C12 UNL     1      26.604   1.685  51.978  1.00  0.00     0.075 A 
HETATM    6  C13 UNL     1      27.516   0.782  52.488  1.00  0.00     0.072 A 
HETATM    7  C14 UNL     1      27.082  -0.146  53.436  1.00  0.00     0.103 A 
HETATM    8  C16 UNL     1      25.781  -0.201  53.889  1.00  0.00     0.102 A 
HETATM    9  C18 UNL     1      24.881   0.715  53.364  1.00  0.00     0.057 A 
HETATM   10  C19 UNL     1      25.292   1.637  52.426  1.00  0.00     0.042 A 
ENDROOT
BRANCH   1  11
HETATM   11  N2  UNL     1      23.064   2.605  52.267  1.00  0.00    -0.339 N 
HETATM   12  H11 UNL     1      22.593   2.960  53.122  1.00  0.00     0.167 HD
BRANCH  11  13
HETATM   13  C9  UNL     1      22.048   2.117  51.396  1.00  0.00     0.058 A 
HETATM   14  C5  UNL     1      21.088   1.102  51.811  1.00  0.00    -0.025 A 
HETATM   15  C4  UNL     1      21.148   0.599  53.054  1.00  0.00     0.009 C 
HETATM   16  C6  UNL     1      20.013   0.570  50.923  1.00  0.00     0.087 A 
HETATM   17  C7  UNL     1      20.117   1.246  49.612  1.00  0.00     0.094 A 
HETATM   18  N1  UNL     1      20.981   2.150  49.259  1.00  0.00    -0.275 NA
HETATM   19  C8  UNL     1      21.986   2.614  50.162  1.00  0.00     0.145 A 
BRANCH  15  20
HETATM   20  C3  UNL     1      20.175  -0.416  53.442  1.00  0.00    -0.004 C 
HETATM   21  C2  UNL     1      20.568  -1.449  54.163  1.00  0.00    -0.031 C 
HETATM   22  C1  UNL     1      21.986  -1.595  54.585  1.00  0.00     0.036 C 
ENDBRANCH  15  20
ENDBRANCH  11  13
ENDBRANCH   1  11
BRANCH   8  23
HETATM   23  O2  UNL     1      25.434  -1.141  54.821  1.00  0.00    -0.353 OA
HETATM   24  C17 UNL     1      25.186  -0.906  56.173  1.00  0.00     0.210 C 
ENDBRANCH   8  23
BRANCH   7  25
HETATM   25  O1  UNL     1      27.994  -1.054  53.951  1.00  0.00    -0.353 OA
HETATM   26  C15 UNL     1      29.399  -0.871  53.758  1.00  0.00     0.210 C 
ENDBRANCH   7  25
TORSDOF 5
ENDMDL
MODEL 4
REMARK VINA RESULT:      -7.6      3.223      7.005
REMARK  5 active torsions:
REMARK  status: ('A' for Active; 'I' for Inactive)
REMARK    1  A    between atoms: C3_3  and  C4_4 
REMARK    2  A    between atoms: C9_10  and  N2_11 
REMARK    3  A    between atoms: N2_11  and  C10_12 
REMARK    4  A    between atoms: C14_18  and  O1_19 
REMARK    5  A    between atoms: C16_21  and  O2_22 
ROOT
HETATM    1  C10 UNL     1      23.128   2.113  51.456  1.00  0.00     0.142 A 
HETATM    2  N3  UNL     1      22.647   3.368  51.397  1.00  0.00    -0.224 NA
HETATM    3  C11 UNL     1      23.165   4.340  52.200  1.00  0.00     0.236 A 
HETATM    4  N4  UNL     1      24.166   3.996  53.044  1.00  0.00    -0.241 NA
HETATM    5  C12 UNL     1      24.661   2.724  53.111  1.00  0.00     0.075 A 
HETATM    6  C13 UNL     1      25.682   2.395  53.979  1.00  0.00     0.072 A 
HETATM    7  C14 UNL     1      26.146   1.079  54.001  1.00  0.00     0.103 A 
HETATM    8  C16 UNL     1      25.627   0.089  53.194  1.00  0.00     0.102 A 
HETATM    9  C18 UNL     1      24.601   0.441  52.328  1.00  0.00     0.057 A 
HETATM   10  C19 UNL     1      24.132   1.736  52.293  1.00  0.00     0.042 A 
ENDROOT
BRANCH   1  11
HETATM   11  N2  UNL     1      22.501   1.197  50.568  1.00  0.00    -0.339 N 
HETATM   12  H11 UNL     1      22.885   0.572  49.832  1.00  0.00     0.167 HD
BRANCH  11  13
HETATM   13  C9  UNL     1      21.090   1.008  50.590  1.00  0.00     0.058 A 
HETATM   14  C5  UNL     1      20.420   0.272  51.656  1.00  0.00    -0.025 A 
HETATM   15  C4  UNL     1      21.142  -0.252  52.658  1.00  0.00     0.009 C 
HETATM   16  C6  UNL     1      18.944   0.056  51.708  1.00  0.00     0.087 A 
HETATM   17  C7  UNL     1      18.337   0.705  50.526  1.00  0.00     0.094 A 
HETATM   18  N1  UNL     1      18.952   1.357  49.584  1.00  0.00    -0.275 NA
HETATM   19  C8  UNL     1      20.370   1.526  49.597  1.00  0.00     0.145 A 
BRANCH  15  20
HETATM   20  C3  UNL     1      20.445  -0.984  53.710  1.00  0.00    -0.004 C 
HETATM   21  C2  UNL     1      21.128  -1.441  54.743  1.00  0.00    -0.031 C 
HETATM   22  C1  UNL     1      22.595  -1.222  54.851  1.00  0.00     0.036 C 
ENDBRANCH  15  20
ENDBRANCH  11  13
ENDBRANCH   1  11
BRANCH   8  23
HETATM   23  O2  UNL     1      26.136  -1.179  53.274  1.00  0.00    -0.353 OA
HETATM   24  C17 UNL     1      26.866  -1.836  52.285  1.00  0.00     0.210 C 
ENDBRANCH   8  23
BRANCH   7  25
HETATM   25  O1  UNL     1      27.171   0.743  54.872  1.00  0.00    -0.353 OA
HETATM   26  C15 UNL     1      28.538   0.831  54.462  1.00  0.00     0.210 C 
ENDBRANCH   7  25
TORSDOF 5
ENDMDL
MODEL 5
REMARK VINA RESULT:      -7.6      2.957      4.808
REMARK  5 active torsions:
REMARK  status: ('A' for Active; 'I' for Inactive)
REMARK    1  A    between atoms: C3_3  and  C4_4 
REMARK    2  A    between atoms: C9_10  and  N2_11 
REMARK    3  A    between atoms: N2_11  and  C10_12 
REMARK    4  A    between atoms: C14_18  and  O1_19 
REMARK    5  A    between atoms: C16_21  and  O2_22 
ROOT
HETATM    1  C10 UNL     1      25.654   2.457  51.219  1.00  0.00     0.142 A 
HETATM    2  N3  UNL     1      26.943   2.626  51.563  1.00  0.00    -0.224 NA
HETATM    3  C11 UNL     1      27.489   1.881  52.566  1.00  0.00     0.236 A 
HETATM    4  N4  UNL     1      26.693   0.982  53.189  1.00  0.00    -0.241 NA
HETATM    5  C12 UNL     1      25.383   0.803  52.847  1.00  0.00     0.075 A 
HETATM    6  C13 UNL     1      24.590  -0.121  53.496  1.00  0.00     0.072 A 
HETATM    7  C14 UNL     1      23.258  -0.259  53.100  1.00  0.00     0.103 A 
HETATM    8  C16 UNL     1      22.698   0.491  52.088  1.00  0.00     0.102 A 
HETATM    9  C18 UNL     1      23.513   1.414  51.447  1.00  0.00     0.057 A 
HETATM   10  C19 UNL     1      24.829   1.561  51.826  1.00  0.00     0.042 A 
ENDROOT
BRANCH   1  11
HETATM   11  N2  UNL     1      25.210   3.295  50.159  1.00  0.00    -0.339 N 
HETATM   12  H11 UNL     1      25.063   3.113  49.147  1.00  0.00     0.167 HD
BRANCH  11  13
HETATM   13  C9  UNL     1      24.873   4.657  50.399  1.00  0.00     0.058 A 
HETATM   14  C5  UNL     1      25.579   5.759  49.756  1.00  0.00    -0.025 A 
HETATM   15  C4  UNL     1      26.585   5.499  48.907  1.00  0.00     0.009 C 
HETATM   16  C6  UNL     1      25.250   7.197  49.986  1.00  0.00     0.087 A 
HETATM   17  C7  UNL     1      24.126   7.269  50.944  1.00  0.00     0.094 A 
HETATM   18  N1  UNL     1      23.508   6.274  51.508  1.00  0.00    -0.275 NA
HETATM   19  C8  UNL     1      23.876   4.920  51.242  1.00  0.00     0.145 A 
BRANCH  15  20
HETATM   20  C3  UNL     1      27.274   6.620  48.278  1.00  0.00    -0.004 C 
HETATM   21  C2  UNL     1      28.545   6.496  47.945  1.00  0.00    -0.031 C 
HETATM   22  C1  UNL     1      29.285   5.232  48.201  1.00  0.00     0.036 C 
ENDBRANCH  15  20
ENDBRANCH  11  13
ENDBRANCH   1  11
BRANCH   8  23
HETATM   23  O2  UNL     1      21.383   0.298  51.757  1.00  0.00    -0.353 OA
HETATM   24  C17 UNL     1      20.353   1.224  51.911  1.00  0.00     0.210 C 
ENDBRANCH   8  23
BRANCH   7  25
HETATM   25  O1  UNL     1      22.457  -1.186  53.749  1.00  0.00    -0.353 OA
HETATM   26  C15 UNL     1      21.706  -0.819  54.910  1.00  0.00     0.210 C 
ENDBRANCH   7  25
TORSDOF 5
ENDMDL
MODEL 6
REMARK VINA RESULT:      -7.6      2.785      6.576
REMARK  5 active torsions:
REMARK  status: ('A' for Active; 'I' for Inactive)
REMARK    1  A    between atoms: C3_3  and  C4_4 
REMARK    2  A    between atoms: C9_10  and  N2_11 
REMARK    3  A    between atoms: N2_11  and  C10_12 
REMARK    4  A    between atoms: C14_18  and  O1_19 
REMARK    5  A    between atoms: C16_21  and  O2_22 
ROOT
HETATM    1  C10 UNL     1      22.694  -0.318  53.070  1.00  0.00     0.142 A 
HETATM    2  N3  UNL     1      21.821  -1.032  53.801  1.00  0.00    -0.224 NA
HETATM    3  C11 UNL     1      22.212  -1.598  54.978  1.00  0.00     0.236 A 
HETATM    4  N4  UNL     1      23.493  -1.415  55.372  1.00  0.00    -0.241 NA
HETATM    5  C12 UNL     1      24.388  -0.692  54.635  1.00  0.00     0.075 A 
HETATM    6  C13 UNL     1      25.691  -0.518  55.056  1.00  0.00     0.072 A 
HETATM    7  C14 UNL     1      26.559   0.233  54.260  1.00  0.00     0.103 A 
HETATM    8  C16 UNL     1      26.172   0.808  53.069  1.00  0.00     0.102 A 
HETATM    9  C18 UNL     1      24.857   0.621  52.664  1.00  0.00     0.057 A 
HETATM   10  C19 UNL     1      23.988  -0.116  53.438  1.00  0.00     0.042 A 
ENDROOT
BRANCH   1  11
HETATM   11  N2  UNL     1      22.160   0.217  51.866  1.00  0.00    -0.339 N 
HETATM   12  H11 UNL     1      22.279  -0.059  50.871  1.00  0.00     0.167 HD
BRANCH  11  13
HETATM   13  C9  UNL     1      21.285   1.340  51.892  1.00  0.00     0.058 A 
HETATM   14  C5  UNL     1      19.837   1.203  51.780  1.00  0.00    -0.025 A 
HETATM   15  C4  UNL     1      19.294  -0.017  51.648  1.00  0.00     0.009 C 
HETATM   16  C6  UNL     1      18.894   2.359  51.804  1.00  0.00     0.087 A 
HETATM   17  C7  UNL     1      19.684   3.600  51.955  1.00  0.00     0.094 A 
HETATM   18  N1  UNL     1      20.976   3.703  52.053  1.00  0.00    -0.275 NA
HETATM   19  C8  UNL     1      21.820   2.552  52.023  1.00  0.00     0.145 A 
BRANCH  15  20
HETATM   20  C3  UNL     1      17.843  -0.125  51.538  1.00  0.00    -0.004 C 
HETATM   21  C2  UNL     1      17.185  -0.899  52.380  1.00  0.00    -0.031 C 
HETATM   22  C1  UNL     1      17.898  -1.662  53.439  1.00  0.00     0.036 C 
ENDBRANCH  15  20
ENDBRANCH  11  13
ENDBRANCH   1  11
BRANCH   8  23
HETATM   23  O2  UNL     1      27.082   1.529  52.344  1.00  0.00    -0.353 OA
HETATM   24  C17 UNL     1      26.787   2.484  51.372  1.00  0.00     0.210 C 
ENDBRANCH   8  23
BRANCH   7  25
HETATM   25  O1  UNL     1      27.868   0.410  54.678  1.00  0.00    -0.353 OA
HETATM   26  C15 UNL     1      28.910  -0.450  54.209  1.00  0.00     0.210 C 
ENDBRANCH   7  25
TORSDOF 5
ENDMDL
MODEL 7
REMARK VINA RESULT:      -7.5      2.807      5.491
REMARK  5 active torsions:
REMARK  status: ('A' for Active; 'I' for Inactive)
REMARK    1  A    between atoms: C3_3  and  C4_4 
REMARK    2  A    between atoms: C9_10  and  N2_11 
REMARK    3  A    between atoms: N2_11  and  C10_12 
REMARK    4  A    between atoms: C14_18  and  O1_19 
REMARK    5  A    between atoms: C16_21  and  O2_22 
ROOT
HETATM    1  C10 UNL     1      22.772  -0.348  53.173  1.00  0.00     0.142 A 
HETATM    2  N3  UNL     1      21.981  -1.121  53.938  1.00  0.00    -0.224 NA
HETATM    3  C11 UNL     1      22.452  -1.639  55.107  1.00  0.00     0.236 A 
HETATM    4  N4  UNL     1      23.725  -1.348  55.460  1.00  0.00    -0.241 NA
HETATM    5  C12 UNL     1      24.536  -0.563  54.690  1.00  0.00     0.075 A 
HETATM    6  C13 UNL     1      25.832  -0.278  55.070  1.00  0.00     0.072 A 
HETATM    7  C14 UNL     1      26.611   0.531  54.241  1.00  0.00     0.103 A 
HETATM    8  C16 UNL     1      26.144   1.058  53.056  1.00  0.00     0.102 A 
HETATM    9  C18 UNL     1      24.838   0.760  52.693  1.00  0.00     0.057 A 
HETATM   10  C19 UNL     1      24.055  -0.036  53.501  1.00  0.00     0.042 A 
ENDROOT
BRANCH   1  11
HETATM   11  N2  UNL     1      22.160   0.128  51.981  1.00  0.00    -0.339 N 
HETATM   12  H11 UNL     1      22.058  -0.295  51.038  1.00  0.00     0.167 HD
BRANCH  11  13
HETATM   13  C9  UNL     1      21.535   1.407  51.941  1.00  0.00     0.058 A 
HETATM   14  C5  UNL     1      21.966   2.457  51.026  1.00  0.00    -0.025 A 
HETATM   15  C4  UNL     1      22.986   2.227  50.185  1.00  0.00     0.009 C 
HETATM   16  C6  UNL     1      21.333   3.806  50.960  1.00  0.00     0.087 A 
HETATM   17  C7  UNL     1      20.241   3.856  51.956  1.00  0.00     0.094 A 
HETATM   18  N1  UNL     1      19.870   2.909  52.765  1.00  0.00    -0.275 NA
HETATM   19  C8  UNL     1      20.523   1.639  52.775  1.00  0.00     0.145 A 
BRANCH  15  20
HETATM   20  C3  UNL     1      23.397   3.295  49.281  1.00  0.00    -0.004 C 
HETATM   21  C2  UNL     1      23.120   3.197  47.994  1.00  0.00    -0.031 C 
HETATM   22  C1  UNL     1      22.397   2.016  47.452  1.00  0.00     0.036 C 
ENDBRANCH  15  20
ENDBRANCH  11  13
ENDBRANCH   1  11
BRANCH   8  23
HETATM   23  O2  UNL     1      26.970   1.843  52.297  1.00  0.00    -0.353 OA
HETATM   24  C17 UNL     1      26.594   2.600  51.188  1.00  0.00     0.210 C 
ENDBRANCH   8  23
BRANCH   7  25
HETATM   25  O1  UNL     1      27.914   0.820  54.618  1.00  0.00    -0.353 OA
HETATM   26  C15 UNL     1      28.943  -0.167  54.512  1.00  0.00     0.210 C 
ENDBRANCH   7  25
TORSDOF 5
ENDMDL
MODEL 8
REMARK VINA RESULT:      -7.5      2.834      4.641
REMARK  5 active torsions:
REMARK  status: ('A' for Active; 'I' for Inactive)
REMARK    1  A    between atoms: C3_3  and  C4_4 
REMARK    2  A    between atoms: C9_10  and  N2_11 
REMARK    3  A    between atoms: N2_11  and  C10_12 
REMARK    4  A    between atoms: C14_18  and  O1_19 
REMARK    5  A    between atoms: C16_21  and  O2_22 
ROOT
HETATM    1  C10 UNL     1      21.899   2.527  51.993  1.00  0.00     0.142 A 
HETATM    2  N3  UNL     1      21.419   3.244  50.962  1.00  0.00    -0.224 NA
HETATM    3  C11 UNL     1      20.250   2.883  50.361  1.00  0.00     0.236 A 
HETATM    4  N4  UNL     1      19.605   1.793  50.836  1.00  0.00    -0.241 NA
HETATM    5  C12 UNL     1      20.084   1.058  51.883  1.00  0.00     0.075 A 
HETATM    6  C13 UNL     1      19.410  -0.050  52.352  1.00  0.00     0.072 A 
HETATM    7  C14 UNL     1      19.950  -0.760  53.426  1.00  0.00     0.103 A 
HETATM    8  C16 UNL     1      21.132  -0.403  54.040  1.00  0.00     0.102 A 
HETATM    9  C18 UNL     1      21.795   0.715  53.553  1.00  0.00     0.057 A 
HETATM   10  C19 UNL     1      21.274   1.427  52.494  1.00  0.00     0.042 A 
ENDROOT
BRANCH   1  11
HETATM   11  N2  UNL     1      23.124   3.009  52.529  1.00  0.00    -0.339 N 
HETATM   12  H11 UNL     1      23.398   3.286  53.492  1.00  0.00     0.167 HD
BRANCH  11  13
HETATM   13  C9  UNL     1      24.264   3.190  51.696  1.00  0.00     0.058 A 
HETATM   14  C5  UNL     1      25.318   2.188  51.589  1.00  0.00    -0.025 A 
HETATM   15  C4  UNL     1      25.226   1.049  52.293  1.00  0.00     0.009 C 
HETATM   16  C6  UNL     1      26.524   2.347  50.725  1.00  0.00     0.087 A 
HETATM   17  C7  UNL     1      26.436   3.655  50.040  1.00  0.00     0.094 A 
HETATM   18  N1  UNL     1      25.488   4.538  50.149  1.00  0.00    -0.275 NA
HETATM   19  C8  UNL     1      24.360   4.319  50.996  1.00  0.00     0.145 A 
BRANCH  15  20
HETATM   20  C3  UNL     1      26.295   0.064  52.166  1.00  0.00    -0.004 C 
HETATM   21  C2  UNL     1      26.865  -0.416  53.255  1.00  0.00    -0.031 C 
HETATM   22  C1  UNL     1      26.437   0.030  54.607  1.00  0.00     0.036 C 
ENDBRANCH  15  20
ENDBRANCH  11  13
ENDBRANCH   1  11
BRANCH   8  23
HETATM   23  O2  UNL     1      21.598  -1.151  55.088  1.00  0.00    -0.353 OA
HETATM   24  C17 UNL     1      22.935  -1.426  55.370  1.00  0.00     0.210 C 
ENDBRANCH   8  23
BRANCH   7  25
HETATM   25  O1  UNL     1      19.276  -1.875  53.901  1.00  0.00    -0.353 OA
HETATM   26  C15 UNL     1      17.912  -2.112  53.545  1.00  0.00     0.210 C 
ENDBRANCH   7  25
TORSDOF 5
ENDMDL
MODEL 9
REMARK VINA RESULT:      -7.3      3.482      6.340
REMARK  5 active torsions:
REMARK  status: ('A' for Active; 'I' for Inactive)
REMARK    1  A    between atoms: C3_3  and  C4_4 
REMARK    2  A    between atoms: C9_10  and  N2_11 
REMARK    3  A    between atoms: N2_11  and  C10_12 
REMARK    4  A    between atoms: C14_18  and  O1_19 
REMARK    5  A    between atoms: C16_21  and  O2_22 
ROOT
HETATM    1  C10 UNL     1      23.665   3.276  51.368  1.00  0.00     0.142 A 
HETATM    2  N3  UNL     1      22.538   3.181  52.096  1.00  0.00    -0.224 NA
HETATM    3  C11 UNL     1      21.763   4.281  52.309  1.00  0.00     0.236 A 
HETATM    4  N4  UNL     1      22.167   5.453  51.766  1.00  0.00    -0.241 NA
HETATM    5  C12 UNL     1      23.309   5.560  51.025  1.00  0.00     0.075 A 
HETATM    6  C13 UNL     1      23.703   6.766  50.481  1.00  0.00     0.072 A 
HETATM    7  C14 UNL     1      24.880   6.812  49.732  1.00  0.00     0.103 A 
HETATM    8  C16 UNL     1      25.671   5.704  49.513  1.00  0.00     0.102 A 
HETATM    9  C18 UNL     1      25.257   4.501  50.069  1.00  0.00     0.057 A 
HETATM   10  C19 UNL     1      24.097   4.439  50.809  1.00  0.00     0.042 A 
ENDROOT
BRANCH   1  11
HETATM   11  N2  UNL     1      24.380   2.056  51.222  1.00  0.00    -0.339 N 
HETATM   12  H11 UNL     1      24.464   1.392  50.428  1.00  0.00     0.167 HD
BRANCH  11  13
HETATM   13  C9  UNL     1      25.168   1.540  52.291  1.00  0.00     0.058 A 
HETATM   14  C5  UNL     1      24.666   0.522  53.206  1.00  0.00    -0.025 A 
HETATM   15  C4  UNL     1      23.422   0.043  53.051  1.00  0.00     0.009 C 
HETATM   16  C6  UNL     1      25.465  -0.040  54.334  1.00  0.00     0.087 A 
HETATM   17  C7  UNL     1      26.793   0.612  54.333  1.00  0.00     0.094 A 
HETATM   18  N1  UNL     1      27.223   1.520  53.508  1.00  0.00    -0.275 NA
HETATM   19  C8  UNL     1      26.402   2.013  52.448  1.00  0.00     0.145 A 
BRANCH  15  20
HETATM   20  C3  UNL     1      22.947  -0.975  53.981  1.00  0.00    -0.004 C 
HETATM   21  C2  UNL     1      21.761  -0.836  54.544  1.00  0.00    -0.031 C 
HETATM   22  C1  UNL     1      20.903   0.342  54.246  1.00  0.00     0.036 C 
ENDBRANCH  15  20
ENDBRANCH  11  13
ENDBRANCH   1  11
BRANCH   8  23
HETATM   23  O2  UNL     1      26.812   5.830  48.767  1.00  0.00    -0.353 OA
HETATM   24  C17 UNL     1      27.793   4.854  48.595  1.00  0.00     0.210 C 
ENDBRANCH   8  23
BRANCH   7  25
HETATM   25  O1  UNL     1      25.279   8.020  49.183  1.00  0.00    -0.353 OA
HETATM   26  C15 UNL     1      25.925   9.012  49.986  1.00  0.00     0.210 C 
ENDBRANCH   7  25
TORSDOF 5
ENDMDL
