MODEL 1
REMARK VINA RESULT:      -6.5      0.000      0.000
REMARK  6 active torsions:
REMARK  status: ('A' for Active; 'I' for Inactive)
REMARK    1  A    between atoms: C13_14  and  C14_15 
REMARK    2  A    between atoms: C14_15  and  O2_16 
REMARK    3  A    between atoms: O2_16  and  C15_17 
REMARK    4  A    between atoms: C15_17  and  C16_18 
REMARK    5  A    between atoms: C16_18  and  C17_19 
REMARK    6  A    between atoms: C17_19  and  N1_20 
ROOT
HETATM    1  O1  UNL     1      24.635   3.900  50.233  1.00  0.00    -0.224 OA
HETATM    2  C1  UNL     1      23.390   3.609  50.475  1.00  0.00     0.148 C 
HETATM    3  C2  UNL     1      22.590   4.607  51.183  1.00  0.00     0.073 C 
HETATM    4  C3  UNL     1      21.404   4.174  51.987  1.00  0.00    -0.023 C 
HETATM    5  C4  UNL     1      20.604   3.079  52.295  1.00  0.00    -0.004 C 
HETATM    6  C5  UNL     1      20.609   1.702  51.830  1.00  0.00    -0.003 C 
HETATM    7  C6  UNL     1      21.024   0.674  51.048  1.00  0.00    -0.011 C 
HETATM    8  C7  UNL     1      22.075   1.220  50.022  1.00  0.00     0.020 A 
HETATM    9  C8  UNL     1      21.243   1.082  49.001  1.00  0.00    -0.011 A 
HETATM   10  C9  UNL     1      21.676   2.135  48.157  1.00  0.00    -0.006 A 
HETATM   11  C10 UNL     1      22.748   2.870  48.738  1.00  0.00    -0.012 A 
HETATM   12  C11 UNL     1      22.979   2.235  49.956  1.00  0.00     0.040 A 
HETATM   13  C12 UNL     1      22.852   1.322  51.012  1.00  0.00     0.003 A 
HETATM   14  C13 UNL     1      23.699   1.436  52.088  1.00  0.00     0.039 C 
ENDROOT
BRANCH  14  15
HETATM   15  C14 UNL     1      23.938   2.458  53.077  1.00  0.00     0.168 C 
BRANCH  15  16
HETATM   16  O2  UNL     1      25.283   2.245  53.532  1.00  0.00    -0.391 OA
BRANCH  16  17
HETATM   17  C15 UNL     1      25.676   0.940  53.635  1.00  0.00     0.169 C 
BRANCH  17  18
HETATM   18  C16 UNL     1      27.081   0.874  53.017  1.00  0.00     0.043 C 
BRANCH  18  19
HETATM   19  C17 UNL     1      27.654   2.222  52.748  1.00  0.00     0.125 C 
BRANCH  19  20
HETATM   20  N1  UNL     1      27.237   2.846  51.541  1.00  0.00    -0.163 NA
HETATM   21  F1  UNL     1      26.810   1.845  50.694  1.00  0.00    -0.136 F 
HETATM   22  H20 UNL     1      28.054   3.306  51.079  1.00  0.00     0.159 HD
ENDBRANCH  19  20
ENDBRANCH  18  19
ENDBRANCH  17  18
ENDBRANCH  16  17
ENDBRANCH  15  16
ENDBRANCH  14  15
TORSDOF 6
ENDMDL
MODEL 2
REMARK VINA RESULT:      -6.5      1.889      3.782
REMARK  6 active torsions:
REMARK  status: ('A' for Active; 'I' for Inactive)
REMARK    1  A    between atoms: C13_14  and  C14_15 
REMARK    2  A    between atoms: C14_15  and  O2_16 
REMARK    3  A    between atoms: O2_16  and  C15_17 
REMARK    4  A    between atoms: C15_17  and  C16_18 
REMARK    5  A    between atoms: C16_18  and  C17_19 
REMARK    6  A    between atoms: C17_19  and  N1_20 
ROOT
HETATM    1  O1  UNL     1      19.918   2.455  50.553  1.00  0.00    -0.224 OA
HETATM    2  C1  UNL     1      20.849   2.668  51.436  1.00  0.00     0.148 C 
HETATM    3  C2  UNL     1      21.053   4.046  51.879  1.00  0.00     0.073 C 
HETATM    4  C3  UNL     1      22.392   4.468  52.400  1.00  0.00    -0.023 C 
HETATM    5  C4  UNL     1      23.649   3.995  52.763  1.00  0.00    -0.004 C 
HETATM    6  C5  UNL     1      24.214   2.657  52.809  1.00  0.00    -0.003 C 
HETATM    7  C6  UNL     1      24.169   1.304  52.724  1.00  0.00    -0.011 C 
HETATM    8  C7  UNL     1      22.689   0.870  52.447  1.00  0.00     0.020 A 
HETATM    9  C8  UNL     1      22.547   0.358  53.660  1.00  0.00    -0.011 A 
HETATM   10  C9  UNL     1      21.162   0.569  53.881  1.00  0.00    -0.006 A 
HETATM   11  C10 UNL     1      20.547   1.225  52.777  1.00  0.00    -0.012 A 
HETATM   12  C11 UNL     1      21.581   1.400  51.861  1.00  0.00     0.040 A 
HETATM   13  C12 UNL     1      22.861   1.349  51.291  1.00  0.00     0.003 A 
HETATM   14  C13 UNL     1      23.045   1.871  50.033  1.00  0.00     0.039 C 
ENDROOT
BRANCH  14  15
HETATM   15  C14 UNL     1      22.905   3.187  49.460  1.00  0.00     0.168 C 
BRANCH  15  16
HETATM   16  O2  UNL     1      24.244   3.644  49.218  1.00  0.00    -0.391 OA
BRANCH  16  17
HETATM   17  C15 UNL     1      24.407   4.999  49.152  1.00  0.00     0.169 C 
BRANCH  17  18
HETATM   18  C16 UNL     1      25.889   5.259  49.462  1.00  0.00     0.043 C 
BRANCH  18  19
HETATM   19  C17 UNL     1      26.711   4.017  49.422  1.00  0.00     0.125 C 
BRANCH  19  20
HETATM   20  N1  UNL     1      26.992   3.416  50.679  1.00  0.00    -0.163 NA
HETATM   21  F1  UNL     1      26.662   2.081  50.572  1.00  0.00    -0.136 F 
HETATM   22  H20 UNL     1      26.369   3.824  51.413  1.00  0.00     0.159 HD
ENDBRANCH  19  20
ENDBRANCH  18  19
ENDBRANCH  17  18
ENDBRANCH  16  17
ENDBRANCH  15  16
ENDBRANCH  14  15
TORSDOF 6
ENDMDL
MODEL 3
REMARK VINA RESULT:      -6.3      2.486      4.570
REMARK  6 active torsions:
REMARK  status: ('A' for Active; 'I' for Inactive)
REMARK    1  A    between atoms: C13_14  and  C14_15 
REMARK    2  A    between atoms: C14_15  and  O2_16 
REMARK    3  A    between atoms: O2_16  and  C15_17 
REMARK    4  A    between atoms: C15_17  and  C16_18 
REMARK    5  A    between atoms: C16_18  and  C17_19 
REMARK    6  A    between atoms: C17_19  and  N1_20 
ROOT
HETATM    1  O1  UNL     1      25.514   4.614  50.225  1.00  0.00    -0.224 OA
HETATM    2  C1  UNL     1      24.885   3.487  50.383  1.00  0.00     0.148 C 
HETATM    3  C2  UNL     1      23.990   3.059  49.309  1.00  0.00     0.073 C 
HETATM    4  C3  UNL     1      22.841   2.151  49.618  1.00  0.00    -0.023 C 
HETATM    5  C4  UNL     1      22.265   1.381  50.623  1.00  0.00    -0.004 C 
HETATM    6  C5  UNL     1      22.668   1.097  51.991  1.00  0.00    -0.003 C 
HETATM    7  C6  UNL     1      23.511   1.137  53.053  1.00  0.00    -0.011 C 
HETATM    8  C7  UNL     1      24.831   1.860  52.617  1.00  0.00     0.020 A 
HETATM    9  C8  UNL     1      25.534   0.738  52.661  1.00  0.00    -0.011 A 
HETATM   10  C9  UNL     1      26.501   0.987  51.656  1.00  0.00    -0.006 A 
HETATM   11  C10 UNL     1      26.308   2.257  51.042  1.00  0.00    -0.012 A 
HETATM   12  C11 UNL     1      25.208   2.795  51.703  1.00  0.00     0.040 A 
HETATM   13  C12 UNL     1      24.139   2.916  52.603  1.00  0.00     0.003 A 
HETATM   14  C13 UNL     1      23.388   4.067  52.585  1.00  0.00     0.039 C 
ENDROOT
BRANCH  14  15
HETATM   15  C14 UNL     1      22.555   4.710  51.598  1.00  0.00     0.168 C 
BRANCH  15  16
HETATM   16  O2  UNL     1      22.925   6.096  51.629  1.00  0.00    -0.391 OA
BRANCH  16  17
HETATM   17  C15 UNL     1      22.318   6.894  50.700  1.00  0.00     0.169 C 
BRANCH  17  18
HETATM   18  C16 UNL     1      23.437   7.374  49.764  1.00  0.00     0.043 C 
BRANCH  18  19
HETATM   19  C17 UNL     1      24.499   8.136  50.479  1.00  0.00     0.125 C 
BRANCH  19  20
HETATM   20  N1  UNL     1      25.635   7.386  50.887  1.00  0.00    -0.163 NA
HETATM   21  F1  UNL     1      26.750   8.117  50.536  1.00  0.00    -0.136 F 
HETATM   22  H20 UNL     1      25.678   6.489  50.350  1.00  0.00     0.159 HD
ENDBRANCH  19  20
ENDBRANCH  18  19
ENDBRANCH  17  18
ENDBRANCH  16  17
ENDBRANCH  15  16
ENDBRANCH  14  15
TORSDOF 6
ENDMDL
MODEL 4
REMARK VINA RESULT:      -6.2      2.294      4.430
REMARK  6 active torsions:
REMARK  status: ('A' for Active; 'I' for Inactive)
REMARK    1  A    between atoms: C13_14  and  C14_15 
REMARK    2  A    between atoms: C14_15  and  O2_16 
REMARK    3  A    between atoms: O2_16  and  C15_17 
REMARK    4  A    between atoms: C15_17  and  C16_18 
REMARK    5  A    between atoms: C16_18  and  C17_19 
REMARK    6  A    between atoms: C17_19  and  N1_20 
ROOT
HETATM    1  O1  UNL     1      24.098   4.121  51.995  1.00  0.00    -0.224 OA
HETATM    2  C1  UNL     1      23.592   3.043  51.473  1.00  0.00     0.148 C 
HETATM    3  C2  UNL     1      23.703   2.880  50.024  1.00  0.00     0.073 C 
HETATM    4  C3  UNL     1      22.705   2.037  49.293  1.00  0.00    -0.023 C 
HETATM    5  C4  UNL     1      21.637   1.163  49.471  1.00  0.00    -0.004 C 
HETATM    6  C5  UNL     1      21.005   0.622  50.663  1.00  0.00    -0.003 C 
HETATM    7  C6  UNL     1      20.884   0.409  51.997  1.00  0.00    -0.011 C 
HETATM    8  C7  UNL     1      22.102   1.077  52.722  1.00  0.00     0.020 A 
HETATM    9  C8  UNL     1      22.640  -0.094  53.029  1.00  0.00    -0.011 A 
HETATM   10  C9  UNL     1      24.019   0.234  53.025  1.00  0.00    -0.006 A 
HETATM   11  C10 UNL     1      24.235   1.600  52.689  1.00  0.00    -0.012 A 
HETATM   12  C11 UNL     1      22.955   2.115  52.502  1.00  0.00     0.040 A 
HETATM   13  C12 UNL     1      21.556   2.177  52.430  1.00  0.00     0.003 A 
HETATM   14  C13 UNL     1      20.964   3.376  52.112  1.00  0.00     0.039 C 
ENDROOT
BRANCH  14  15
HETATM   15  C14 UNL     1      21.005   4.245  50.962  1.00  0.00     0.168 C 
BRANCH  15  16
HETATM   16  O2  UNL     1      21.254   5.559  51.482  1.00  0.00    -0.391 OA
BRANCH  16  17
HETATM   17  C15 UNL     1      21.257   6.572  50.565  1.00  0.00     0.169 C 
BRANCH  17  18
HETATM   18  C16 UNL     1      22.708   6.691  50.075  1.00  0.00     0.043 C 
BRANCH  18  19
HETATM   19  C17 UNL     1      23.512   7.647  50.886  1.00  0.00     0.125 C 
BRANCH  19  20
HETATM   20  N1  UNL     1      24.559   7.078  51.661  1.00  0.00    -0.163 NA
HETATM   21  F1  UNL     1      25.573   6.743  50.787  1.00  0.00    -0.136 F 
HETATM   22  H20 UNL     1      24.230   6.188  52.100  1.00  0.00     0.159 HD
ENDBRANCH  19  20
ENDBRANCH  18  19
ENDBRANCH  17  18
ENDBRANCH  16  17
ENDBRANCH  15  16
ENDBRANCH  14  15
TORSDOF 6
ENDMDL
MODEL 5
REMARK VINA RESULT:      -5.9      8.911     11.501
REMARK  6 active torsions:
REMARK  status: ('A' for Active; 'I' for Inactive)
REMARK    1  A    between atoms: C13_14  and  C14_15 
REMARK    2  A    between atoms: C14_15  and  O2_16 
REMARK    3  A    between atoms: O2_16  and  C15_17 
REMARK    4  A    between atoms: C15_17  and  C16_18 
REMARK    5  A    between atoms: C16_18  and  C17_19 
REMARK    6  A    between atoms: C17_19  and  N1_20 
ROOT
HETATM    1  O1  UNL     1      34.576   3.077  48.125  1.00  0.00    -0.224 OA
HETATM    2  C1  UNL     1      34.499   4.222  47.511  1.00  0.00     0.148 C 
HETATM    3  C2  UNL     1      35.043   5.392  48.198  1.00  0.00     0.073 C 
HETATM    4  C3  UNL     1      34.512   6.754  47.878  1.00  0.00    -0.023 C 
HETATM    5  C4  UNL     1      33.669   7.451  47.018  1.00  0.00    -0.004 C 
HETATM    6  C5  UNL     1      32.874   7.031  45.876  1.00  0.00    -0.003 C 
HETATM    7  C6  UNL     1      32.440   6.147  44.944  1.00  0.00    -0.011 C 
HETATM    8  C7  UNL     1      33.219   4.800  45.130  1.00  0.00     0.020 A 
HETATM    9  C8  UNL     1      33.906   4.971  44.011  1.00  0.00    -0.011 A 
HETATM   10  C9  UNL     1      35.117   4.309  44.334  1.00  0.00    -0.006 A 
HETATM   11  C10 UNL     1      35.095   3.788  45.659  1.00  0.00    -0.012 A 
HETATM   12  C11 UNL     1      33.834   4.129  46.142  1.00  0.00     0.040 A 
HETATM   13  C12 UNL     1      32.535   4.657  46.183  1.00  0.00     0.003 A 
HETATM   14  C13 UNL     1      31.795   4.499  47.329  1.00  0.00     0.039 C 
ENDROOT
BRANCH  14  15
HETATM   15  C14 UNL     1      31.951   4.931  48.696  1.00  0.00     0.168 C 
BRANCH  15  16
HETATM   16  O2  UNL     1      30.761   5.673  49.002  1.00  0.00    -0.391 OA
BRANCH  16  17
HETATM   17  C15 UNL     1      29.719   5.512  48.132  1.00  0.00     0.169 C 
BRANCH  17  18
HETATM   18  C16 UNL     1      29.100   6.907  47.955  1.00  0.00     0.043 C 
BRANCH  18  19
HETATM   19  C17 UNL     1      30.079   8.004  48.190  1.00  0.00     0.125 C 
BRANCH  19  20
HETATM   20  N1  UNL     1      30.194   8.459  49.531  1.00  0.00    -0.163 NA
HETATM   21  F1  UNL     1      31.350   9.207  49.608  1.00  0.00    -0.136 F 
HETATM   22  H20 UNL     1      30.319   7.642  50.172  1.00  0.00     0.159 HD
ENDBRANCH  19  20
ENDBRANCH  18  19
ENDBRANCH  17  18
ENDBRANCH  16  17
ENDBRANCH  15  16
ENDBRANCH  14  15
TORSDOF 6
ENDMDL
MODEL 6
REMARK VINA RESULT:      -5.8      2.860      4.569
REMARK  6 active torsions:
REMARK  status: ('A' for Active; 'I' for Inactive)
REMARK    1  A    between atoms: C13_14  and  C14_15 
REMARK    2  A    between atoms: C14_15  and  O2_16 
REMARK    3  A    between atoms: O2_16  and  C15_17 
REMARK    4  A    between atoms: C15_17  and  C16_18 
REMARK    5  A    between atoms: C16_18  and  C17_19 
REMARK    6  A    between atoms: C17_19  and  N1_20 
ROOT
HETATM    1  O1  UNL     1      24.434   0.959  51.997  1.00  0.00    -0.224 OA
HETATM    2  C1  UNL     1      24.404   2.246  51.809  1.00  0.00     0.148 C 
HETATM    3  C2  UNL     1      24.022   3.083  52.945  1.00  0.00     0.073 C 
HETATM    4  C3  UNL     1      23.414   4.429  52.705  1.00  0.00    -0.023 C 
HETATM    5  C4  UNL     1      23.113   5.358  51.713  1.00  0.00    -0.004 C 
HETATM    6  C5  UNL     1      23.361   5.374  50.281  1.00  0.00    -0.003 C 
HETATM    7  C6  UNL     1      23.887   4.902  49.123  1.00  0.00    -0.011 C 
HETATM    8  C7  UNL     1      24.752   3.636  49.446  1.00  0.00     0.020 A 
HETATM    9  C8  UNL     1      25.887   4.270  49.188  1.00  0.00    -0.011 A 
HETATM   10  C9  UNL     1      26.774   3.604  50.071  1.00  0.00    -0.006 A 
HETATM   11  C10 UNL     1      26.105   2.606  50.835  1.00  0.00    -0.012 A 
HETATM   12  C11 UNL     1      24.787   2.659  50.392  1.00  0.00     0.040 A 
HETATM   13  C12 UNL     1      23.654   3.054  49.666  1.00  0.00     0.003 A 
HETATM   14  C13 UNL     1      22.460   2.418  49.909  1.00  0.00     0.039 C 
ENDROOT
BRANCH  14  15
HETATM   15  C14 UNL     1      21.604   2.289  51.062  1.00  0.00     0.168 C 
BRANCH  15  16
HETATM   16  O2  UNL     1      20.811   1.118  50.822  1.00  0.00    -0.391 OA
BRANCH  16  17
HETATM   17  C15 UNL     1      20.721   0.236  51.862  1.00  0.00     0.169 C 
BRANCH  17  18
HETATM   18  C16 UNL     1      21.012   1.052  53.131  1.00  0.00     0.043 C 
BRANCH  18  19
HETATM   19  C17 UNL     1      21.428   0.201  54.280  1.00  0.00     0.125 C 
BRANCH  19  20
HETATM   20  N1  UNL     1      22.635  -0.528  54.108  1.00  0.00    -0.163 NA
HETATM   21  F1  UNL     1      22.487  -1.723  54.781  1.00  0.00    -0.136 F 
HETATM   22  H20 UNL     1      23.425  -0.018  54.566  1.00  0.00     0.159 HD
ENDBRANCH  19  20
ENDBRANCH  18  19
ENDBRANCH  17  18
ENDBRANCH  16  17
ENDBRANCH  15  16
ENDBRANCH  14  15
TORSDOF 6
ENDMDL
MODEL 7
REMARK VINA RESULT:      -5.8      3.576      5.637
REMARK  6 active torsions:
REMARK  status: ('A' for Active; 'I' for Inactive)
REMARK    1  A    between atoms: C13_14  and  C14_15 
REMARK    2  A    between atoms: C14_15  and  O2_16 
REMARK    3  A    between atoms: O2_16  and  C15_17 
REMARK    4  A    between atoms: C15_17  and  C16_18 
REMARK    5  A    between atoms: C16_18  and  C17_19 
REMARK    6  A    between atoms: C17_19  and  N1_20 
ROOT
HETATM    1  O1  UNL     1      23.599   4.391  52.217  1.00  0.00    -0.224 OA
HETATM    2  C1  UNL     1      23.282   3.268  51.641  1.00  0.00     0.148 C 
HETATM    3  C2  UNL     1      23.341   3.220  50.181  1.00  0.00     0.073 C 
HETATM    4  C3  UNL     1      22.486   2.244  49.435  1.00  0.00    -0.023 C 
HETATM    5  C4  UNL     1      21.619   1.167  49.596  1.00  0.00    -0.004 C 
HETATM    6  C5  UNL     1      21.172   0.439  50.772  1.00  0.00    -0.003 C 
HETATM    7  C6  UNL     1      21.171   0.125  52.091  1.00  0.00    -0.011 C 
HETATM    8  C7  UNL     1      22.275   0.973  52.809  1.00  0.00     0.020 A 
HETATM    9  C8  UNL     1      23.046  -0.085  53.008  1.00  0.00    -0.011 A 
HETATM   10  C9  UNL     1      24.333   0.508  52.968  1.00  0.00    -0.006 A 
HETATM   11  C10 UNL     1      24.260   1.908  52.721  1.00  0.00    -0.012 A 
HETATM   12  C11 UNL     1      22.897   2.171  52.627  1.00  0.00     0.040 A 
HETATM   13  C12 UNL     1      21.510   1.960  52.621  1.00  0.00     0.003 A 
HETATM   14  C13 UNL     1      20.680   3.036  52.416  1.00  0.00     0.039 C 
ENDROOT
BRANCH  14  15
HETATM   15  C14 UNL     1      20.486   3.965  51.330  1.00  0.00     0.168 C 
BRANCH  15  16
HETATM   16  O2  UNL     1      19.286   3.538  50.670  1.00  0.00    -0.391 OA
BRANCH  16  17
HETATM   17  C15 UNL     1      18.225   3.261  51.486  1.00  0.00     0.169 C 
BRANCH  17  18
HETATM   18  C16 UNL     1      17.227   2.472  50.623  1.00  0.00     0.043 C 
BRANCH  18  19
HETATM   19  C17 UNL     1      17.895   1.660  49.569  1.00  0.00     0.125 C 
BRANCH  19  20
HETATM   20  N1  UNL     1      17.587   0.273  49.564  1.00  0.00    -0.163 NA
HETATM   21  F1  UNL     1      18.017  -0.242  50.768  1.00  0.00    -0.136 F 
HETATM   22  H20 UNL     1      18.135  -0.209  48.814  1.00  0.00     0.159 HD
ENDBRANCH  19  20
ENDBRANCH  18  19
ENDBRANCH  17  18
ENDBRANCH  16  17
ENDBRANCH  15  16
ENDBRANCH  14  15
TORSDOF 6
ENDMDL
MODEL 8
REMARK VINA RESULT:      -5.7      2.881      5.025
REMARK  6 active torsions:
REMARK  status: ('A' for Active; 'I' for Inactive)
REMARK    1  A    between atoms: C13_14  and  C14_15 
REMARK    2  A    between atoms: C14_15  and  O2_16 
REMARK    3  A    between atoms: O2_16  and  C15_17 
REMARK    4  A    between atoms: C15_17  and  C16_18 
REMARK    5  A    between atoms: C16_18  and  C17_19 
REMARK    6  A    between atoms: C17_19  and  N1_20 
ROOT
HETATM    1  O1  UNL     1      25.586   4.671  50.411  1.00  0.00    -0.224 OA
HETATM    2  C1  UNL     1      24.962   3.534  50.502  1.00  0.00     0.148 C 
HETATM    3  C2  UNL     1      24.075   3.162  49.401  1.00  0.00     0.073 C 
HETATM    4  C3  UNL     1      22.930   2.232  49.651  1.00  0.00    -0.023 C 
HETATM    5  C4  UNL     1      22.352   1.403  50.608  1.00  0.00    -0.004 C 
HETATM    6  C5  UNL     1      22.750   1.045  51.960  1.00  0.00    -0.003 C 
HETATM    7  C6  UNL     1      23.587   1.029  53.027  1.00  0.00    -0.011 C 
HETATM    8  C7  UNL     1      24.905   1.782  52.640  1.00  0.00     0.020 A 
HETATM    9  C8  UNL     1      25.614   0.663  52.624  1.00  0.00    -0.011 A 
HETATM   10  C9  UNL     1      26.586   0.974  51.641  1.00  0.00    -0.006 A 
HETATM   11  C10 UNL     1      26.389   2.276  51.098  1.00  0.00    -0.012 A 
HETATM   12  C11 UNL     1      25.282   2.770  51.783  1.00  0.00     0.040 A 
HETATM   13  C12 UNL     1      24.208   2.834  52.682  1.00  0.00     0.003 A 
HETATM   14  C13 UNL     1      23.451   3.980  52.724  1.00  0.00     0.039 C 
ENDROOT
BRANCH  14  15
HETATM   15  C14 UNL     1      22.619   4.673  51.771  1.00  0.00     0.168 C 
BRANCH  15  16
HETATM   16  O2  UNL     1      21.268   4.375  52.153  1.00  0.00    -0.391 OA
BRANCH  16  17
HETATM   17  C15 UNL     1      20.338   4.450  51.155  1.00  0.00     0.169 C 
BRANCH  17  18
HETATM   18  C16 UNL     1      19.242   3.438  51.525  1.00  0.00     0.043 C 
BRANCH  18  19
HETATM   19  C17 UNL     1      18.838   2.582  50.375  1.00  0.00     0.125 C 
BRANCH  19  20
HETATM   20  N1  UNL     1      19.202   3.059  49.087  1.00  0.00    -0.163 NA
HETATM   21  F1  UNL     1      19.859   2.030  48.444  1.00  0.00    -0.136 F 
HETATM   22  H20 UNL     1      19.887   3.844  49.180  1.00  0.00     0.159 HD
ENDBRANCH  19  20
ENDBRANCH  18  19
ENDBRANCH  17  18
ENDBRANCH  16  17
ENDBRANCH  15  16
ENDBRANCH  14  15
TORSDOF 6
ENDMDL
MODEL 9
REMARK VINA RESULT:      -5.7      7.726     10.670
REMARK  6 active torsions:
REMARK  status: ('A' for Active; 'I' for Inactive)
REMARK    1  A    between atoms: C13_14  and  C14_15 
REMARK    2  A    between atoms: C14_15  and  O2_16 
REMARK    3  A    between atoms: O2_16  and  C15_17 
REMARK    4  A    between atoms: C15_17  and  C16_18 
REMARK    5  A    between atoms: C16_18  and  C17_19 
REMARK    6  A    between atoms: C17_19  and  N1_20 
ROOT
HETATM    1  O1  UNL     1      32.523   7.495  49.433  1.00  0.00    -0.224 OA
HETATM    2  C1  UNL     1      32.880   6.954  48.305  1.00  0.00     0.148 C 
HETATM    3  C2  UNL     1      33.045   7.841  47.155  1.00  0.00     0.073 C 
HETATM    4  C3  UNL     1      32.880   7.299  45.769  1.00  0.00    -0.023 C 
HETATM    5  C4  UNL     1      32.700   6.126  45.043  1.00  0.00    -0.004 C 
HETATM    6  C5  UNL     1      32.631   4.730  45.442  1.00  0.00    -0.003 C 
HETATM    7  C6  UNL     1      32.713   3.701  46.322  1.00  0.00    -0.011 C 
HETATM    8  C7  UNL     1      33.160   4.268  47.713  1.00  0.00     0.020 A 
HETATM    9  C8  UNL     1      34.358   3.710  47.625  1.00  0.00    -0.011 A 
HETATM   10  C9  UNL     1      35.141   4.637  48.359  1.00  0.00    -0.006 A 
HETATM   11  C10 UNL     1      34.358   5.726  48.836  1.00  0.00    -0.012 A 
HETATM   12  C11 UNL     1      33.069   5.443  48.393  1.00  0.00     0.040 A 
HETATM   13  C12 UNL     1      32.004   4.772  47.776  1.00  0.00     0.003 A 
HETATM   14  C13 UNL     1      30.747   5.322  47.847  1.00  0.00     0.039 C 
ENDROOT
BRANCH  14  15
HETATM   15  C14 UNL     1      30.161   6.556  47.385  1.00  0.00     0.168 C 
BRANCH  15  16
HETATM   16  O2  UNL     1      29.442   7.084  48.509  1.00  0.00    -0.391 OA
BRANCH  16  17
HETATM   17  C15 UNL     1      28.482   8.012  48.219  1.00  0.00     0.169 C 
BRANCH  17  18
HETATM   18  C16 UNL     1      27.284   7.220  47.672  1.00  0.00     0.043 C 
BRANCH  18  19
HETATM   19  C17 UNL     1      26.555   6.473  48.734  1.00  0.00     0.125 C 
BRANCH  19  20
HETATM   20  N1  UNL     1      27.280   5.427  49.368  1.00  0.00    -0.163 NA
HETATM   21  F1  UNL     1      27.576   4.493  48.398  1.00  0.00    -0.136 F 
HETATM   22  H20 UNL     1      26.670   4.951  50.072  1.00  0.00     0.159 HD
ENDBRANCH  19  20
ENDBRANCH  18  19
ENDBRANCH  17  18
ENDBRANCH  16  17
ENDBRANCH  15  16
ENDBRANCH  14  15
TORSDOF 6
ENDMDL
