MODEL 1
REMARK VINA RESULT:      -7.4      0.000      0.000
REMARK  5 active torsions:
REMARK  status: ('A' for Active; 'I' for Inactive)
REMARK    1  A    between atoms: S1_1  and  N1_2 
REMARK    2  A    between atoms: N1_2  and  N2_3 
REMARK    3  A    between atoms: C4_7  and  C5_8 
REMARK    4  A    between atoms: C7_10  and  C8_11 
REMARK    5  A    between atoms: C8_11  and  N3_12 
ROOT
HETATM    1  C5  UNL     1      22.645   1.041  52.047  1.00  0.00     0.098 A 
HETATM    2  C6  UNL     1      23.532   0.850  53.079  1.00  0.00     0.067 A 
HETATM    3  C7  UNL     1      24.722   1.417  52.762  1.00  0.00     0.082 A 
HETATM    4  N4  UNL     1      24.532   1.943  51.541  1.00  0.00    -0.131 NA
HETATM    5  O1  UNL     1      23.330   1.709  51.159  1.00  0.00    -0.216 OA
ENDROOT
BRANCH   1   6
HETATM    6  C4  UNL     1      21.217   0.577  51.978  1.00  0.00     0.064 A 
HETATM    7  C3  UNL     1      20.587   0.837  50.664  1.00  0.00     0.005 A 
HETATM    8  C2  UNL     1      19.732   0.278  51.399  1.00  0.00    -0.021 A 
HETATM    9  C1  UNL     1      19.023  -0.197  52.037  1.00  0.00     0.032 A 
HETATM   10  N2  UNL     1      18.231  -0.740  52.787  1.00  0.00    -0.199 NA
HETATM   11  C15 UNL     1      19.606  -0.565  53.605  1.00  0.00     0.133 A 
HETATM   12  C14 UNL     1      20.972  -0.039  53.448  1.00  0.00     0.042 A 
BRANCH  10  13
HETATM   13  N1  UNL     1      17.660  -1.327  53.867  1.00  0.00    -0.196 NA
HETATM   14  H2  UNL     1      18.199  -1.206  54.729  1.00  0.00     0.155 HD
BRANCH  13  15
HETATM   15  S1  UNL     1      17.443  -3.055  53.576  1.00  0.00    -0.082 SA
HETATM   16  H1  UNL     1      16.615  -3.314  52.472  1.00  0.00     0.120 HD
ENDBRANCH  13  15
ENDBRANCH  10  13
ENDBRANCH   1   6
BRANCH   3  17
HETATM   17  C8  UNL     1      25.935   1.434  53.600  1.00  0.00     0.178 C 
BRANCH  17  18
HETATM   18  N3  UNL     1      27.118   1.243  52.835  1.00  0.00    -0.407 N 
HETATM   19  C9  UNL     1      27.285  -0.099  52.337  1.00  0.00     0.117 C 
HETATM   20  C10 UNL     1      28.007  -0.990  53.323  1.00  0.00     0.019 C 
HETATM   21  C11 UNL     1      29.266  -0.406  53.870  1.00  0.00     0.003 C 
HETATM   22  C12 UNL     1      29.033   1.012  54.351  1.00  0.00     0.019 C 
HETATM   23  C13 UNL     1      28.309   1.840  53.316  1.00  0.00     0.117 C 
ENDBRANCH  17  18
ENDBRANCH   3  17
TORSDOF 5
ENDMDL
MODEL 2
REMARK VINA RESULT:      -7.4      2.886      3.368
REMARK  5 active torsions:
REMARK  status: ('A' for Active; 'I' for Inactive)
REMARK    1  A    between atoms: S1_1  and  N1_2 
REMARK    2  A    between atoms: N1_2  and  N2_3 
REMARK    3  A    between atoms: C4_7  and  C5_8 
REMARK    4  A    between atoms: C7_10  and  C8_11 
REMARK    5  A    between atoms: C8_11  and  N3_12 
ROOT
HETATM    1  C5  UNL     1      21.516  -0.784  53.822  1.00  0.00     0.098 A 
HETATM    2  C6  UNL     1      22.856  -0.517  53.670  1.00  0.00     0.067 A 
HETATM    3  C7  UNL     1      23.539  -1.027  54.723  1.00  0.00     0.082 A 
HETATM    4  N4  UNL     1      22.598  -1.594  55.496  1.00  0.00    -0.131 NA
HETATM    5  O1  UNL     1      21.448  -1.437  54.950  1.00  0.00    -0.216 OA
ENDROOT
BRANCH   1   6
HETATM    6  C4  UNL     1      20.401  -0.400  52.890  1.00  0.00     0.064 A 
HETATM    7  C3  UNL     1      19.068  -0.824  53.376  1.00  0.00     0.005 A 
HETATM    8  C2  UNL     1      18.909  -0.235  52.275  1.00  0.00    -0.021 A 
HETATM    9  C1  UNL     1      18.796   0.267  51.342  1.00  0.00     0.032 A 
HETATM   10  N2  UNL     1      18.694   0.844  50.274  1.00  0.00    -0.199 NA
HETATM   11  C15 UNL     1      20.259   0.822  50.646  1.00  0.00     0.133 A 
HETATM   12  C14 UNL     1      21.180   0.351  51.694  1.00  0.00     0.042 A 
BRANCH  10  13
HETATM   13  N1  UNL     1      18.973   1.510  49.127  1.00  0.00    -0.196 NA
HETATM   14  H2  UNL     1      19.660   1.034  48.536  1.00  0.00     0.155 HD
BRANCH  13  15
HETATM   15  S1  UNL     1      19.571   3.129  49.494  1.00  0.00    -0.082 SA
HETATM   16  H1  UNL     1      18.955   4.120  48.712  1.00  0.00     0.120 HD
ENDBRANCH  13  15
ENDBRANCH  10  13
ENDBRANCH   1   6
BRANCH   3  17
HETATM   17  C8  UNL     1      24.996  -0.955  54.940  1.00  0.00     0.178 C 
BRANCH  17  18
HETATM   18  N3  UNL     1      25.644  -0.147  53.966  1.00  0.00    -0.407 N 
HETATM   19  C9  UNL     1      26.099  -0.875  52.808  1.00  0.00     0.117 C 
HETATM   20  C10 UNL     1      27.492  -1.434  52.993  1.00  0.00     0.019 C 
HETATM   21  C11 UNL     1      28.489  -0.444  53.495  1.00  0.00     0.003 C 
HETATM   22  C12 UNL     1      27.944   0.306  54.693  1.00  0.00     0.019 C 
HETATM   23  C13 UNL     1      26.553   0.835  54.433  1.00  0.00     0.117 C 
ENDBRANCH  17  18
ENDBRANCH   3  17
TORSDOF 5
ENDMDL
MODEL 3
REMARK VINA RESULT:      -7.1      2.387      2.901
REMARK  5 active torsions:
REMARK  status: ('A' for Active; 'I' for Inactive)
REMARK    1  A    between atoms: S1_1  and  N1_2 
REMARK    2  A    between atoms: N1_2  and  N2_3 
REMARK    3  A    between atoms: C4_7  and  C5_8 
REMARK    4  A    between atoms: C7_10  and  C8_11 
REMARK    5  A    between atoms: C8_11  and  N3_12 
ROOT
HETATM    1  C5  UNL     1      21.130  -1.003  53.953  1.00  0.00     0.098 A 
HETATM    2  C6  UNL     1      22.371  -0.549  53.574  1.00  0.00     0.067 A 
HETATM    3  C7  UNL     1      23.293  -0.948  54.483  1.00  0.00     0.082 A 
HETATM    4  N4  UNL     1      22.592  -1.636  55.399  1.00  0.00    -0.131 NA
HETATM    5  O1  UNL     1      21.353  -1.649  55.065  1.00  0.00    -0.216 OA
ENDROOT
BRANCH   1   6
HETATM    6  C4  UNL     1      19.826  -0.790  53.236  1.00  0.00     0.064 A 
HETATM    7  C3  UNL     1      19.883   0.304  52.240  1.00  0.00     0.005 A 
HETATM    8  C2  UNL     1      18.719  -0.175  52.222  1.00  0.00    -0.021 A 
HETATM    9  C1  UNL     1      17.740  -0.594  52.223  1.00  0.00     0.032 A 
HETATM   10  N2  UNL     1      16.627  -1.091  52.243  1.00  0.00    -0.199 NA
HETATM   11  C15 UNL     1      17.513  -1.880  53.331  1.00  0.00     0.133 A 
HETATM   12  C14 UNL     1      18.871  -1.909  53.899  1.00  0.00     0.042 A 
BRANCH  10  13
HETATM   13  N1  UNL     1      15.559  -1.869  52.542  1.00  0.00    -0.196 NA
HETATM   14  H2  UNL     1      15.506  -2.723  51.979  1.00  0.00     0.155 HD
BRANCH  13  15
HETATM   15  S1  UNL     1      14.063  -0.958  52.327  1.00  0.00    -0.082 SA
HETATM   16  H1  UNL     1      13.663  -0.892  50.983  1.00  0.00     0.120 HD
ENDBRANCH  13  15
ENDBRANCH  10  13
ENDBRANCH   1   6
BRANCH   3  17
HETATM   17  C8  UNL     1      24.740  -0.668  54.443  1.00  0.00     0.178 C 
BRANCH  17  18
HETATM   18  N3  UNL     1      25.132  -0.039  53.230  1.00  0.00    -0.407 N 
HETATM   19  C9  UNL     1      26.192  -0.721  52.532  1.00  0.00     0.117 C 
HETATM   20  C10 UNL     1      27.562  -0.270  52.986  1.00  0.00     0.019 C 
HETATM   21  C11 UNL     1      27.740   1.212  53.020  1.00  0.00     0.003 C 
HETATM   22  C12 UNL     1      26.584   1.873  53.742  1.00  0.00     0.019 C 
HETATM   23  C13 UNL     1      25.251   1.373  53.236  1.00  0.00     0.117 C 
ENDBRANCH  17  18
ENDBRANCH   3  17
TORSDOF 5
ENDMDL
MODEL 4
REMARK VINA RESULT:      -6.9      4.691      7.036
REMARK  5 active torsions:
REMARK  status: ('A' for Active; 'I' for Inactive)
REMARK    1  A    between atoms: S1_1  and  N1_2 
REMARK    2  A    between atoms: N1_2  and  N2_3 
REMARK    3  A    between atoms: C4_7  and  C5_8 
REMARK    4  A    between atoms: C7_10  and  C8_11 
REMARK    5  A    between atoms: C8_11  and  N3_12 
ROOT
HETATM    1  C5  UNL     1      24.028   1.690  51.462  1.00  0.00     0.098 A 
HETATM    2  C6  UNL     1      24.475   2.948  51.136  1.00  0.00     0.067 A 
HETATM    3  C7  UNL     1      23.562   3.559  50.341  1.00  0.00     0.082 A 
HETATM    4  N4  UNL     1      22.578   2.656  50.199  1.00  0.00    -0.131 NA
HETATM    5  O1  UNL     1      22.876   1.594  50.855  1.00  0.00    -0.216 OA
ENDROOT
BRANCH   1   6
HETATM    6  C4  UNL     1      24.723   0.672  52.321  1.00  0.00     0.064 A 
HETATM    7  C3  UNL     1      23.813  -0.000  53.276  1.00  0.00     0.005 A 
HETATM    8  C2  UNL     1      24.966  -0.475  53.442  1.00  0.00    -0.021 A 
HETATM    9  C1  UNL     1      25.951  -0.864  53.567  1.00  0.00     0.032 A 
HETATM   10  N2  UNL     1      27.085  -1.292  53.690  1.00  0.00    -0.199 NA
HETATM   11  C15 UNL     1      27.127  -0.181  52.527  1.00  0.00     0.133 A 
HETATM   12  C14 UNL     1      26.250   0.755  51.805  1.00  0.00     0.042 A 
BRANCH  10  13
HETATM   13  N1  UNL     1      28.414  -1.507  53.538  1.00  0.00    -0.196 NA
HETATM   14  H2  UNL     1      28.762  -2.308  54.074  1.00  0.00     0.155 HD
BRANCH  13  15
HETATM   15  S1  UNL     1      29.322  -0.072  54.018  1.00  0.00    -0.082 SA
HETATM   16  H1  UNL     1      30.598  -0.022  53.433  1.00  0.00     0.120 HD
ENDBRANCH  13  15
ENDBRANCH  10  13
ENDBRANCH   1   6
BRANCH   3  17
HETATM   17  C8  UNL     1      23.663   4.916  49.774  1.00  0.00     0.178 C 
BRANCH  17  18
HETATM   18  N3  UNL     1      24.684   5.684  50.398  1.00  0.00    -0.407 N 
HETATM   19  C9  UNL     1      24.189   6.697  51.295  1.00  0.00     0.117 C 
HETATM   20  C10 UNL     1      23.905   8.003  50.586  1.00  0.00     0.019 C 
HETATM   21  C11 UNL     1      25.018   8.482  49.715  1.00  0.00     0.003 C 
HETATM   22  C12 UNL     1      25.511   7.367  48.815  1.00  0.00     0.019 C 
HETATM   23  C13 UNL     1      25.773   6.099  49.593  1.00  0.00     0.117 C 
ENDBRANCH  17  18
ENDBRANCH   3  17
TORSDOF 5
ENDMDL
MODEL 5
REMARK VINA RESULT:      -6.8      4.676      7.232
REMARK  5 active torsions:
REMARK  status: ('A' for Active; 'I' for Inactive)
REMARK    1  A    between atoms: S1_1  and  N1_2 
REMARK    2  A    between atoms: N1_2  and  N2_3 
REMARK    3  A    between atoms: C4_7  and  C5_8 
REMARK    4  A    between atoms: C7_10  and  C8_11 
REMARK    5  A    between atoms: C8_11  and  N3_12 
ROOT
HETATM    1  C5  UNL     1      23.466   2.060  52.665  1.00  0.00     0.098 A 
HETATM    2  C6  UNL     1      23.782   3.359  52.349  1.00  0.00     0.067 A 
HETATM    3  C7  UNL     1      22.687   3.980  51.847  1.00  0.00     0.082 A 
HETATM    4  N4  UNL     1      21.725   3.042  51.869  1.00  0.00    -0.131 NA
HETATM    5  O1  UNL     1      22.205   1.952  52.344  1.00  0.00    -0.216 OA
ENDROOT
BRANCH   1   6
HETATM    6  C4  UNL     1      24.379   1.017  53.247  1.00  0.00     0.064 A 
HETATM    7  C3  UNL     1      23.747  -0.318  53.344  1.00  0.00     0.005 A 
HETATM    8  C2  UNL     1      24.921  -0.413  53.788  1.00  0.00    -0.021 A 
HETATM    9  C1  UNL     1      25.918  -0.471  54.160  1.00  0.00     0.032 A 
HETATM   10  N2  UNL     1      27.061  -0.512  54.581  1.00  0.00    -0.199 NA
HETATM   11  C15 UNL     1      26.787   1.004  54.114  1.00  0.00     0.133 A 
HETATM   12  C14 UNL     1      25.732   1.849  53.531  1.00  0.00     0.042 A 
BRANCH  10  13
HETATM   13  N1  UNL     1      28.320  -0.174  54.951  1.00  0.00    -0.196 NA
HETATM   14  H2  UNL     1      28.431   0.824  55.154  1.00  0.00     0.155 HD
BRANCH  13  15
HETATM   15  S1  UNL     1      29.466  -0.622  53.686  1.00  0.00    -0.082 SA
HETATM   16  H1  UNL     1      28.833  -0.936  52.473  1.00  0.00     0.120 HD
ENDBRANCH  13  15
ENDBRANCH  10  13
ENDBRANCH   1   6
BRANCH   3  17
HETATM   17  C8  UNL     1      22.606   5.379  51.388  1.00  0.00     0.178 C 
BRANCH  17  18
HETATM   18  N3  UNL     1      23.768   5.777  50.673  1.00  0.00    -0.407 N 
HETATM   19  C9  UNL     1      24.268   7.078  51.044  1.00  0.00     0.117 C 
HETATM   20  C10 UNL     1      23.627   8.188  50.242  1.00  0.00     0.019 C 
HETATM   21  C11 UNL     1      23.624   7.958  48.768  1.00  0.00     0.003 C 
HETATM   22  C12 UNL     1      23.114   6.569  48.444  1.00  0.00     0.019 C 
HETATM   23  C13 UNL     1      23.800   5.515  49.281  1.00  0.00     0.117 C 
ENDBRANCH  17  18
ENDBRANCH   3  17
TORSDOF 5
ENDMDL
MODEL 6
REMARK VINA RESULT:      -6.7      3.350      8.162
REMARK  5 active torsions:
REMARK  status: ('A' for Active; 'I' for Inactive)
REMARK    1  A    between atoms: S1_1  and  N1_2 
REMARK    2  A    between atoms: N1_2  and  N2_3 
REMARK    3  A    between atoms: C4_7  and  C5_8 
REMARK    4  A    between atoms: C7_10  and  C8_11 
REMARK    5  A    between atoms: C8_11  and  N3_12 
ROOT
HETATM    1  C5  UNL     1      23.266   0.618  52.989  1.00  0.00     0.098 A 
HETATM    2  C6  UNL     1      22.463   1.016  51.948  1.00  0.00     0.067 A 
HETATM    3  C7  UNL     1      21.322   0.286  51.954  1.00  0.00     0.082 A 
HETATM    4  N4  UNL     1      21.456  -0.544  53.001  1.00  0.00    -0.131 NA
HETATM    5  O1  UNL     1      22.583  -0.328  53.574  1.00  0.00    -0.216 OA
ENDROOT
BRANCH   1   6
HETATM    6  C4  UNL     1      24.620   1.160  53.353  1.00  0.00     0.064 A 
HETATM    7  C3  UNL     1      24.769   2.601  53.044  1.00  0.00     0.005 A 
HETATM    8  C2  UNL     1      25.851   2.199  53.546  1.00  0.00    -0.021 A 
HETATM    9  C1  UNL     1      26.759   1.838  53.973  1.00  0.00     0.032 A 
HETATM   10  N2  UNL     1      27.785   1.401  54.463  1.00  0.00    -0.199 NA
HETATM   11  C15 UNL     1      26.744   0.176  54.387  1.00  0.00     0.133 A 
HETATM   12  C14 UNL     1      25.370  -0.134  53.957  1.00  0.00     0.042 A 
BRANCH  10  13
HETATM   13  N1  UNL     1      28.714   0.582  55.014  1.00  0.00    -0.196 NA
HETATM   14  H2  UNL     1      29.432   1.080  55.548  1.00  0.00     0.155 HD
BRANCH  13  15
HETATM   15  S1  UNL     1      29.506  -0.371  53.757  1.00  0.00    -0.082 SA
HETATM   16  H1  UNL     1      30.293   0.417  52.901  1.00  0.00     0.120 HD
ENDBRANCH  13  15
ENDBRANCH  10  13
ENDBRANCH   1   6
BRANCH   3  17
HETATM   17  C8  UNL     1      20.201   0.403  51.003  1.00  0.00     0.178 C 
BRANCH  17  18
HETATM   18  N3  UNL     1      18.974   0.708  51.653  1.00  0.00    -0.407 N 
HETATM   19  C9  UNL     1      17.977  -0.326  51.538  1.00  0.00     0.117 C 
HETATM   20  C10 UNL     1      17.134  -0.174  50.292  1.00  0.00     0.019 C 
HETATM   21  C11 UNL     1      16.584   1.199  50.088  1.00  0.00     0.003 C 
HETATM   22  C12 UNL     1      17.672   2.240  50.248  1.00  0.00     0.019 C 
HETATM   23  C13 UNL     1      18.470   2.024  51.512  1.00  0.00     0.117 C 
ENDBRANCH  17  18
ENDBRANCH   3  17
TORSDOF 5
ENDMDL
MODEL 7
REMARK VINA RESULT:      -6.7      7.525      9.232
REMARK  5 active torsions:
REMARK  status: ('A' for Active; 'I' for Inactive)
REMARK    1  A    between atoms: S1_1  and  N1_2 
REMARK    2  A    between atoms: N1_2  and  N2_3 
REMARK    3  A    between atoms: C4_7  and  C5_8 
REMARK    4  A    between atoms: C7_10  and  C8_11 
REMARK    5  A    between atoms: C8_11  and  N3_12 
ROOT
HETATM    1  C5  UNL     1      28.743   6.310  48.013  1.00  0.00     0.098 A 
HETATM    2  C6  UNL     1      29.858   5.513  48.101  1.00  0.00     0.067 A 
HETATM    3  C7  UNL     1      30.932   6.187  47.620  1.00  0.00     0.082 A 
HETATM    4  N4  UNL     1      30.444   7.382  47.249  1.00  0.00    -0.131 NA
HETATM    5  O1  UNL     1      29.185   7.421  47.487  1.00  0.00    -0.216 OA
ENDROOT
BRANCH   1   6
HETATM    6  C4  UNL     1      27.341   5.963  48.431  1.00  0.00     0.064 A 
HETATM    7  C3  UNL     1      26.391   7.086  48.264  1.00  0.00     0.005 A 
HETATM    8  C2  UNL     1      25.752   6.104  48.726  1.00  0.00    -0.021 A 
HETATM    9  C1  UNL     1      25.231   5.262  49.118  1.00  0.00     0.032 A 
HETATM   10  N2  UNL     1      24.657   4.284  49.566  1.00  0.00    -0.199 NA
HETATM   11  C15 UNL     1      26.200   3.873  49.370  1.00  0.00     0.133 A 
HETATM   12  C14 UNL     1      27.484   4.428  48.909  1.00  0.00     0.042 A 
BRANCH  10  13
HETATM   13  N1  UNL     1      24.383   3.044  50.037  1.00  0.00    -0.196 NA
HETATM   14  H2  UNL     1      23.382   2.870  50.170  1.00  0.00     0.155 HD
BRANCH  13  15
HETATM   15  S1  UNL     1      25.210   2.779  51.573  1.00  0.00    -0.082 SA
HETATM   16  H1  UNL     1      25.330   1.416  51.891  1.00  0.00     0.120 HD
ENDBRANCH  13  15
ENDBRANCH  10  13
ENDBRANCH   1   6
BRANCH   3  17
HETATM   17  C8  UNL     1      32.316   5.685  47.538  1.00  0.00     0.178 C 
BRANCH  17  18
HETATM   18  N3  UNL     1      32.393   4.427  46.881  1.00  0.00    -0.407 N 
HETATM   19  C9  UNL     1      32.949   3.374  47.693  1.00  0.00     0.117 C 
HETATM   20  C10 UNL     1      34.457   3.305  47.589  1.00  0.00     0.019 C 
HETATM   21  C11 UNL     1      34.976   3.306  46.190  1.00  0.00     0.003 C 
HETATM   22  C12 UNL     1      34.335   4.415  45.381  1.00  0.00     0.019 C 
HETATM   23  C13 UNL     1      32.833   4.420  45.534  1.00  0.00     0.117 C 
ENDBRANCH  17  18
ENDBRANCH   3  17
TORSDOF 5
ENDMDL
MODEL 8
REMARK VINA RESULT:      -6.6      3.919      5.486
REMARK  5 active torsions:
REMARK  status: ('A' for Active; 'I' for Inactive)
REMARK    1  A    between atoms: S1_1  and  N1_2 
REMARK    2  A    between atoms: N1_2  and  N2_3 
REMARK    3  A    between atoms: C4_7  and  C5_8 
REMARK    4  A    between atoms: C7_10  and  C8_11 
REMARK    5  A    between atoms: C8_11  and  N3_12 
ROOT
HETATM    1  C5  UNL     1      25.550   1.427  52.322  1.00  0.00     0.098 A 
HETATM    2  C6  UNL     1      25.051   2.164  51.275  1.00  0.00     0.067 A 
HETATM    3  C7  UNL     1      26.041   2.923  50.746  1.00  0.00     0.082 A 
HETATM    4  N4  UNL     1      27.124   2.631  51.485  1.00  0.00    -0.131 NA
HETATM    5  O1  UNL     1      26.809   1.769  52.381  1.00  0.00    -0.216 OA
ENDROOT
BRANCH   1   6
HETATM    6  C4  UNL     1      24.800   0.454  53.189  1.00  0.00     0.064 A 
HETATM    7  C3  UNL     1      25.686  -0.519  53.869  1.00  0.00     0.005 A 
HETATM    8  C2  UNL     1      24.500  -0.772  54.208  1.00  0.00    -0.021 A 
HETATM    9  C1  UNL     1      23.490  -0.969  54.483  1.00  0.00     0.032 A 
HETATM   10  N2  UNL     1      22.326  -1.175  54.782  1.00  0.00    -0.199 NA
HETATM   11  C15 UNL     1      22.337   0.079  53.773  1.00  0.00     0.133 A 
HETATM   12  C14 UNL     1      23.266   0.915  52.995  1.00  0.00     0.042 A 
BRANCH  10  13
HETATM   13  N1  UNL     1      20.977  -1.094  54.873  1.00  0.00    -0.196 NA
HETATM   14  H2  UNL     1      20.525  -1.998  55.037  1.00  0.00     0.155 HD
BRANCH  13  15
HETATM   15  S1  UNL     1      20.309  -0.390  53.399  1.00  0.00    -0.082 SA
HETATM   16  H1  UNL     1      19.189   0.420  53.650  1.00  0.00     0.120 HD
ENDBRANCH  13  15
ENDBRANCH  10  13
ENDBRANCH   1   6
BRANCH   3  17
HETATM   17  C8  UNL     1      25.918   3.855  49.610  1.00  0.00     0.178 C 
BRANCH  17  18
HETATM   18  N3  UNL     1      25.309   5.083  49.986  1.00  0.00    -0.407 N 
HETATM   19  C9  UNL     1      23.893   5.140  49.725  1.00  0.00     0.117 C 
HETATM   20  C10 UNL     1      23.586   5.635  48.329  1.00  0.00     0.019 C 
HETATM   21  C11 UNL     1      24.304   6.888  47.951  1.00  0.00     0.003 C 
HETATM   22  C12 UNL     1      25.780   6.776  48.274  1.00  0.00     0.019 C 
HETATM   23  C13 UNL     1      26.007   6.278  49.681  1.00  0.00     0.117 C 
ENDBRANCH  17  18
ENDBRANCH   3  17
TORSDOF 5
ENDMDL
MODEL 9
REMARK VINA RESULT:      -6.6      4.342      7.485
REMARK  5 active torsions:
REMARK  status: ('A' for Active; 'I' for Inactive)
REMARK    1  A    between atoms: S1_1  and  N1_2 
REMARK    2  A    between atoms: N1_2  and  N2_3 
REMARK    3  A    between atoms: C4_7  and  C5_8 
REMARK    4  A    between atoms: C7_10  and  C8_11 
REMARK    5  A    between atoms: C8_11  and  N3_12 
ROOT
HETATM    1  C5  UNL     1      23.851   2.466  52.675  1.00  0.00     0.098 A 
HETATM    2  C6  UNL     1      22.838   2.391  51.750  1.00  0.00     0.067 A 
HETATM    3  C7  UNL     1      22.359   3.634  51.503  1.00  0.00     0.082 A 
HETATM    4  N4  UNL     1      23.093   4.442  52.286  1.00  0.00    -0.131 NA
HETATM    5  O1  UNL     1      23.940   3.740  52.946  1.00  0.00    -0.216 OA
ENDROOT
BRANCH   1   6
HETATM    6  C4  UNL     1      24.658   1.329  53.235  1.00  0.00     0.064 A 
HETATM    7  C3  UNL     1      23.909   0.053  53.279  1.00  0.00     0.005 A 
HETATM    8  C2  UNL     1      25.062  -0.160  53.736  1.00  0.00    -0.021 A 
HETATM    9  C1  UNL     1      26.044  -0.318  54.120  1.00  0.00     0.032 A 
HETATM   10  N2  UNL     1      27.171  -0.474  54.556  1.00  0.00    -0.199 NA
HETATM   11  C15 UNL     1      27.040   1.074  54.136  1.00  0.00     0.133 A 
HETATM   12  C14 UNL     1      26.075   2.028  53.565  1.00  0.00     0.042 A 
BRANCH  10  13
HETATM   13  N1  UNL     1      28.448  -0.261  54.954  1.00  0.00    -0.196 NA
HETATM   14  H2  UNL     1      28.643   0.715  55.196  1.00  0.00     0.155 HD
BRANCH  13  15
HETATM   15  S1  UNL     1      29.572  -0.762  53.689  1.00  0.00    -0.082 SA
HETATM   16  H1  UNL     1      30.904  -0.434  53.992  1.00  0.00     0.120 HD
ENDBRANCH  13  15
ENDBRANCH  10  13
ENDBRANCH   1   6
BRANCH   3  17
HETATM   17  C8  UNL     1      21.270   3.985  50.573  1.00  0.00     0.178 C 
BRANCH  17  18
HETATM   18  N3  UNL     1      21.747   4.667  49.420  1.00  0.00    -0.407 N 
HETATM   19  C9  UNL     1      20.704   5.225  48.596  1.00  0.00     0.117 C 
HETATM   20  C10 UNL     1      20.196   4.239  47.568  1.00  0.00     0.019 C 
HETATM   21  C11 UNL     1      21.271   3.564  46.781  1.00  0.00     0.003 C 
HETATM   22  C12 UNL     1      22.347   3.024  47.699  1.00  0.00     0.019 C 
HETATM   23  C13 UNL     1      22.804   4.063  48.696  1.00  0.00     0.117 C 
ENDBRANCH  17  18
ENDBRANCH   3  17
TORSDOF 5
ENDMDL
