MODEL 1
REMARK VINA RESULT:      -7.0      0.000      0.000
REMARK  3 active torsions:
REMARK  status: ('A' for Active; 'I' for Inactive)
REMARK    1  A    between atoms: O1_2  and  C2_3 
REMARK    2  A    between atoms: C2_3  and  O2_4 
REMARK    3  A    between atoms: O2_4  and  C3_5 
ROOT
HETATM    1  C3  UNL     1      22.061   0.067  52.448  1.00  0.00     0.224 C 
HETATM    2  C4  UNL     1      20.853   0.714  51.862  1.00  0.00    -0.045 C 
HETATM    3  C5  UNL     1      21.091   0.853  50.379  1.00  0.00     0.046 C 
HETATM    4  C6  UNL     1      19.775   1.100  52.530  1.00  0.00     0.035 C 
HETATM    5  C7  UNL     1      18.764   1.710  51.666  1.00  0.00     0.046 C 
HETATM    6  C8  UNL     1      17.734   1.144  51.086  1.00  0.00     0.076 C 
HETATM    7  S1  UNL     1      16.845   2.424  50.147  1.00  0.00    -0.119 SA
HETATM    8  C9  UNL     1      17.576   3.783  51.185  1.00  0.00     0.212 C 
HETATM    9  N1  UNL     1      18.903   3.141  51.352  1.00  0.00    -0.290 N 
HETATM   10  C10 UNL     1      20.146   3.799  51.205  1.00  0.00     0.326 C 
HETATM   11  O3  UNL     1      20.735   3.405  52.207  1.00  0.00    -0.247 OA
HETATM   12  N2  UNL     1      21.332   4.497  50.958  1.00  0.00    -0.331 N 
HETATM   13  C11 UNL     1      22.112   5.428  51.827  1.00  0.00     0.147 C 
HETATM   14  C12 UNL     1      23.453   4.755  52.170  1.00  0.00     0.139 C 
HETATM   15  N3  UNL     1      23.781   3.750  51.247  1.00  0.00    -0.384 N 
HETATM   16  C13 UNL     1      23.565   4.221  49.943  1.00  0.00     0.139 C 
HETATM   17  C14 UNL     1      22.123   4.465  49.738  1.00  0.00     0.147 C 
HETATM   18  C15 UNL     1      24.522   2.631  51.518  1.00  0.00     0.247 C 
HETATM   19  C16 UNL     1      24.871   2.441  52.949  1.00  0.00     0.139 C 
HETATM   20  N4  UNL     1      23.888   1.711  53.410  1.00  0.00    -0.243 NA
HETATM   21  C17 UNL     1      23.247   0.988  52.338  1.00  0.00     0.156 C 
HETATM   22  N5  UNL     1      23.899   1.333  51.267  1.00  0.00    -0.241 NA
ENDROOT
BRANCH   1  23
HETATM   23  O2  UNL     1      21.783  -0.266  53.747  1.00  0.00    -0.350 OA
BRANCH  23  24
HETATM   24  C2  UNL     1      21.821  -1.627  53.996  1.00  0.00     0.338 C 
BRANCH  24  25
HETATM   25  O1  UNL     1      22.203  -1.812  55.320  1.00  0.00    -0.372 OA
HETATM   26  C1  UNL     1      23.474  -1.367  55.584  1.00  0.00     0.204 C 
ENDBRANCH  24  25
ENDBRANCH  23  24
ENDBRANCH   1  23
TORSDOF 3
ENDMDL
MODEL 2
REMARK VINA RESULT:      -6.5      2.911      6.426
REMARK  3 active torsions:
REMARK  status: ('A' for Active; 'I' for Inactive)
REMARK    1  A    between atoms: O1_2  and  C2_3 
REMARK    2  A    between atoms: C2_3  and  O2_4 
REMARK    3  A    between atoms: O2_4  and  C3_5 
ROOT
HETATM    1  C3  UNL     1      23.625   4.830  50.446  1.00  0.00     0.224 C 
HETATM    2  C4  UNL     1      24.255   3.555  50.892  1.00  0.00    -0.045 C 
HETATM    3  C5  UNL     1      24.076   2.551  49.781  1.00  0.00     0.046 C 
HETATM    4  C6  UNL     1      24.853   3.348  52.056  1.00  0.00     0.035 C 
HETATM    5  C7  UNL     1      25.364   1.983  52.194  1.00  0.00     0.046 C 
HETATM    6  C8  UNL     1      26.564   1.528  51.930  1.00  0.00     0.076 C 
HETATM    7  S1  UNL     1      26.586  -0.251  52.311  1.00  0.00    -0.119 SA
HETATM    8  C9  UNL     1      25.131  -0.088  53.457  1.00  0.00     0.212 C 
HETATM    9  N1  UNL     1      24.429   0.945  52.655  1.00  0.00    -0.290 N 
HETATM   10  C10 UNL     1      23.049   0.932  52.346  1.00  0.00     0.326 C 
HETATM   11  O3  UNL     1      22.743   2.091  52.608  1.00  0.00    -0.247 OA
HETATM   12  N2  UNL     1      21.698   0.802  52.009  1.00  0.00    -0.331 N 
HETATM   13  C11 UNL     1      20.466   1.132  52.786  1.00  0.00     0.147 C 
HETATM   14  C12 UNL     1      19.761   2.310  52.091  1.00  0.00     0.139 C 
HETATM   15  N3  UNL     1      20.147   2.427  50.747  1.00  0.00    -0.384 N 
HETATM   16  C13 UNL     1      20.126   1.161  50.140  1.00  0.00     0.139 C 
HETATM   17  C14 UNL     1      21.157   0.301  50.756  1.00  0.00     0.147 C 
HETATM   18  C15 UNL     1      20.191   3.591  50.030  1.00  0.00     0.247 C 
HETATM   19  C16 UNL     1      19.931   4.823  50.817  1.00  0.00     0.139 C 
HETATM   20  N4  UNL     1      21.123   5.199  51.203  1.00  0.00    -0.243 NA
HETATM   21  C17 UNL     1      22.134   4.658  50.325  1.00  0.00     0.156 C 
HETATM   22  N5  UNL     1      21.473   3.972  49.440  1.00  0.00    -0.241 NA
ENDROOT
BRANCH   1  23
HETATM   23  O2  UNL     1      23.963   5.812  51.339  1.00  0.00    -0.350 OA
BRANCH  23  24
HETATM   24  C2  UNL     1      24.596   6.900  50.762  1.00  0.00     0.338 C 
BRANCH  24  25
HETATM   25  O1  UNL     1      23.786   8.015  50.945  1.00  0.00    -0.372 OA
HETATM   26  C1  UNL     1      23.075   8.358  49.823  1.00  0.00     0.204 C 
ENDBRANCH  24  25
ENDBRANCH  23  24
ENDBRANCH   1  23
TORSDOF 3
ENDMDL
MODEL 3
REMARK VINA RESULT:      -6.4      9.701     12.365
REMARK  3 active torsions:
REMARK  status: ('A' for Active; 'I' for Inactive)
REMARK    1  A    between atoms: O1_2  and  C2_3 
REMARK    2  A    between atoms: C2_3  and  O2_4 
REMARK    3  A    between atoms: O2_4  and  C3_5 
ROOT
HETATM    1  C3  UNL     1      29.375   6.173  48.590  1.00  0.00     0.224 C 
HETATM    2  C4  UNL     1      30.719   5.613  48.272  1.00  0.00    -0.045 C 
HETATM    3  C5  UNL     1      31.717   6.293  49.175  1.00  0.00     0.046 C 
HETATM    4  C6  UNL     1      30.981   4.693  47.355  1.00  0.00     0.035 C 
HETATM    5  C7  UNL     1      32.404   4.359  47.280  1.00  0.00     0.046 C 
HETATM    6  C8  UNL     1      33.051   3.393  47.885  1.00  0.00     0.076 C 
HETATM    7  S1  UNL     1      34.798   3.491  47.386  1.00  0.00    -0.119 SA
HETATM    8  C9  UNL     1      34.371   4.437  45.844  1.00  0.00     0.212 C 
HETATM    9  N1  UNL     1      33.267   5.218  46.453  1.00  0.00    -0.290 N 
HETATM   10  C10 UNL     1      33.071   6.609  46.291  1.00  0.00     0.326 C 
HETATM   11  O3  UNL     1      31.870   6.645  46.039  1.00  0.00    -0.247 OA
HETATM   12  N2  UNL     1      32.996   7.999  46.153  1.00  0.00    -0.331 N 
HETATM   13  C11 UNL     1      32.450   8.839  45.045  1.00  0.00     0.147 C 
HETATM   14  C12 UNL     1      31.199   9.567  45.566  1.00  0.00     0.139 C 
HETATM   15  N3  UNL     1      31.187   9.644  46.967  1.00  0.00    -0.384 N 
HETATM   16  C13 UNL     1      32.452  10.043  47.427  1.00  0.00     0.139 C 
HETATM   17  C14 UNL     1      33.444   8.994  47.114  1.00  0.00     0.147 C 
HETATM   18  C15 UNL     1      30.068   9.683  47.753  1.00  0.00     0.247 C 
HETATM   19  C16 UNL     1      28.786   9.490  47.029  1.00  0.00     0.139 C 
HETATM   20  N4  UNL     1      28.591   8.197  47.089  1.00  0.00    -0.243 NA
HETATM   21  C17 UNL     1      29.313   7.626  48.201  1.00  0.00     0.156 C 
HETATM   22  N5  UNL     1      29.913   8.635  48.760  1.00  0.00    -0.241 NA
ENDROOT
BRANCH   1  23
HETATM   23  O2  UNL     1      28.431   5.422  47.943  1.00  0.00    -0.350 OA
BRANCH  23  24
HETATM   24  C2  UNL     1      27.281   5.209  48.682  1.00  0.00     0.338 C 
BRANCH  24  25
HETATM   25  O1  UNL     1      27.424   4.005  49.363  1.00  0.00    -0.372 OA
HETATM   26  C1  UNL     1      26.230   3.376  49.608  1.00  0.00     0.204 C 
ENDBRANCH  24  25
ENDBRANCH  23  24
ENDBRANCH   1  23
TORSDOF 3
ENDMDL
MODEL 4
REMARK VINA RESULT:      -6.4      2.603      4.912
REMARK  3 active torsions:
REMARK  status: ('A' for Active; 'I' for Inactive)
REMARK    1  A    between atoms: O1_2  and  C2_3 
REMARK    2  A    between atoms: C2_3  and  O2_4 
REMARK    3  A    between atoms: O2_4  and  C3_5 
ROOT
HETATM    1  C3  UNL     1      19.498   0.932  52.235  1.00  0.00     0.224 C 
HETATM    2  C4  UNL     1      20.886   0.683  52.719  1.00  0.00    -0.045 C 
HETATM    3  C5  UNL     1      21.173   1.689  53.805  1.00  0.00     0.046 C 
HETATM    4  C6  UNL     1      21.712  -0.249  52.265  1.00  0.00     0.035 C 
HETATM    5  C7  UNL     1      23.009  -0.232  52.943  1.00  0.00     0.046 C 
HETATM    6  C8  UNL     1      23.400  -0.931  53.980  1.00  0.00     0.076 C 
HETATM    7  S1  UNL     1      25.121  -0.471  54.350  1.00  0.00    -0.119 SA
HETATM    8  C9  UNL     1      25.394   0.151  52.619  1.00  0.00     0.212 C 
HETATM    9  N1  UNL     1      24.029   0.706  52.447  1.00  0.00    -0.290 N 
HETATM   10  C10 UNL     1      23.733   1.977  51.903  1.00  0.00     0.326 C 
HETATM   11  O3  UNL     1      22.835   1.689  51.118  1.00  0.00    -0.247 OA
HETATM   12  N2  UNL     1      23.527   3.280  51.437  1.00  0.00    -0.331 N 
HETATM   13  C11 UNL     1      23.496   3.822  50.046  1.00  0.00     0.147 C 
HETATM   14  C12 UNL     1      22.059   4.280  49.741  1.00  0.00     0.139 C 
HETATM   15  N3  UNL     1      21.329   4.520  50.915  1.00  0.00    -0.384 N 
HETATM   16  C13 UNL     1      22.110   5.267  51.810  1.00  0.00     0.139 C 
HETATM   17  C14 UNL     1      23.271   4.462  52.244  1.00  0.00     0.147 C 
HETATM   18  C15 UNL     1      19.975   4.378  51.054  1.00  0.00     0.247 C 
HETATM   19  C16 UNL     1      19.282   3.793  49.879  1.00  0.00     0.139 C 
HETATM   20  N4  UNL     1      19.283   2.508  50.129  1.00  0.00    -0.243 NA
HETATM   21  C17 UNL     1      19.421   2.269  51.546  1.00  0.00     0.156 C 
HETATM   22  N5  UNL     1      19.494   3.453  52.078  1.00  0.00    -0.241 NA
ENDROOT
BRANCH   1  23
HETATM   23  O2  UNL     1      19.138  -0.099  51.409  1.00  0.00    -0.350 OA
BRANCH  23  24
HETATM   24  C2  UNL     1      17.817  -0.490  51.545  1.00  0.00     0.338 C 
BRANCH  24  25
HETATM   25  O1  UNL     1      17.725  -1.311  52.663  1.00  0.00    -0.372 OA
HETATM   26  C1  UNL     1      16.563  -2.039  52.706  1.00  0.00     0.204 C 
ENDBRANCH  24  25
ENDBRANCH  23  24
ENDBRANCH   1  23
TORSDOF 3
ENDMDL
MODEL 5
REMARK VINA RESULT:      -6.1     10.450     13.125
REMARK  3 active torsions:
REMARK  status: ('A' for Active; 'I' for Inactive)
REMARK    1  A    between atoms: O1_2  and  C2_3 
REMARK    2  A    between atoms: C2_3  and  O2_4 
REMARK    3  A    between atoms: O2_4  and  C3_5 
ROOT
HETATM    1  C3  UNL     1      29.311   9.086  49.366  1.00  0.00     0.224 C 
HETATM    2  C4  UNL     1      30.258   8.063  48.839  1.00  0.00    -0.045 C 
HETATM    3  C5  UNL     1      31.616   8.363  49.420  1.00  0.00     0.046 C 
HETATM    4  C6  UNL     1      29.953   7.078  48.005  1.00  0.00     0.035 C 
HETATM    5  C7  UNL     1      31.109   6.245  47.670  1.00  0.00     0.046 C 
HETATM    6  C8  UNL     1      31.508   5.132  48.235  1.00  0.00     0.076 C 
HETATM    7  S1  UNL     1      33.004   4.566  47.367  1.00  0.00    -0.119 SA
HETATM    8  C9  UNL     1      32.571   5.548  45.848  1.00  0.00     0.212 C 
HETATM    9  N1  UNL     1      31.988   6.699  46.580  1.00  0.00    -0.290 N 
HETATM   10  C10 UNL     1      32.254   8.059  46.297  1.00  0.00     0.326 C 
HETATM   11  O3  UNL     1      31.117   8.523  46.304  1.00  0.00    -0.247 OA
HETATM   12  N2  UNL     1      32.634   9.374  46.012  1.00  0.00    -0.331 N 
HETATM   13  C11 UNL     1      32.162  10.316  44.952  1.00  0.00     0.147 C 
HETATM   14  C12 UNL     1      31.407  11.469  45.636  1.00  0.00     0.139 C 
HETATM   15  N3  UNL     1      31.762  11.595  46.987  1.00  0.00    -0.384 N 
HETATM   16  C13 UNL     1      33.158  11.520  47.115  1.00  0.00     0.139 C 
HETATM   17  C14 UNL     1      33.618  10.171  46.727  1.00  0.00     0.147 C 
HETATM   18  C15 UNL     1      30.952  12.067  47.983  1.00  0.00     0.247 C 
HETATM   19  C16 UNL     1      29.548  12.330  47.578  1.00  0.00     0.139 C 
HETATM   20  N4  UNL     1      28.938  11.201  47.833  1.00  0.00    -0.243 NA
HETATM   21  C17 UNL     1      29.664  10.446  48.826  1.00  0.00     0.156 C 
HETATM   22  N5  UNL     1      30.693  11.185  49.119  1.00  0.00    -0.241 NA
ENDROOT
BRANCH   1  23
HETATM   23  O2  UNL     1      28.038   8.709  49.030  1.00  0.00    -0.350 OA
BRANCH  23  24
HETATM   24  C2  UNL     1      27.127   8.828  50.065  1.00  0.00     0.338 C 
BRANCH  24  25
HETATM   25  O1  UNL     1      26.356   9.961  49.831  1.00  0.00    -0.372 OA
HETATM   26  C1  UNL     1      25.640   9.898  48.662  1.00  0.00     0.204 C 
ENDBRANCH  24  25
ENDBRANCH  23  24
ENDBRANCH   1  23
TORSDOF 3
ENDMDL
MODEL 6
REMARK VINA RESULT:      -5.9      3.253      5.659
REMARK  3 active torsions:
REMARK  status: ('A' for Active; 'I' for Inactive)
REMARK    1  A    between atoms: O1_2  and  C2_3 
REMARK    2  A    between atoms: C2_3  and  O2_4 
REMARK    3  A    between atoms: O2_4  and  C3_5 
ROOT
HETATM    1  C3  UNL     1      20.868   3.534  50.638  1.00  0.00     0.224 C 
HETATM    2  C4  UNL     1      22.224   3.217  51.170  1.00  0.00    -0.045 C 
HETATM    3  C5  UNL     1      22.514   4.196  52.279  1.00  0.00     0.046 C 
HETATM    4  C6  UNL     1      23.023   2.253  50.736  1.00  0.00     0.035 C 
HETATM    5  C7  UNL     1      24.293   2.203  51.462  1.00  0.00     0.046 C 
HETATM    6  C8  UNL     1      24.612   1.476  52.504  1.00  0.00     0.076 C 
HETATM    7  S1  UNL     1      26.337   1.853  52.944  1.00  0.00    -0.119 SA
HETATM    8  C9  UNL     1      26.704   2.480  51.233  1.00  0.00     0.212 C 
HETATM    9  N1  UNL     1      25.373   3.099  51.017  1.00  0.00    -0.290 N 
HETATM   10  C10 UNL     1      25.155   4.389  50.478  1.00  0.00     0.326 C 
HETATM   11  O3  UNL     1      24.276   4.151  49.656  1.00  0.00    -0.247 OA
HETATM   12  N2  UNL     1      25.027   5.704  50.022  1.00  0.00    -0.331 N 
HETATM   13  C11 UNL     1      25.073   6.263  48.638  1.00  0.00     0.147 C 
HETATM   14  C12 UNL     1      23.671   6.790  48.285  1.00  0.00     0.139 C 
HETATM   15  N3  UNL     1      22.908   7.049  49.434  1.00  0.00    -0.384 N 
HETATM   16  C13 UNL     1      23.688   7.750  50.367  1.00  0.00     0.139 C 
HETATM   17  C14 UNL     1      24.793   6.888  50.834  1.00  0.00     0.147 C 
HETATM   18  C15 UNL     1      21.545   6.967  49.520  1.00  0.00     0.247 C 
HETATM   19  C16 UNL     1      20.871   6.427  48.312  1.00  0.00     0.139 C 
HETATM   20  N4  UNL     1      20.805   5.142  48.546  1.00  0.00    -0.243 NA
HETATM   21  C17 UNL     1      20.878   4.880  49.963  1.00  0.00     0.156 C 
HETATM   22  N5  UNL     1      20.984   6.054  50.513  1.00  0.00    -0.241 NA
ENDROOT
BRANCH   1  23
HETATM   23  O2  UNL     1      20.494   2.530  49.785  1.00  0.00    -0.350 OA
BRANCH  23  24
HETATM   24  C2  UNL     1      19.201   2.077  49.986  1.00  0.00     0.338 C 
BRANCH  24  25
HETATM   25  O1  UNL     1      19.110   1.598  51.288  1.00  0.00    -0.372 OA
HETATM   26  C1  UNL     1      19.007   0.232  51.356  1.00  0.00     0.204 C 
ENDBRANCH  24  25
ENDBRANCH  23  24
ENDBRANCH   1  23
TORSDOF 3
ENDMDL
MODEL 7
REMARK VINA RESULT:      -5.8      9.899     12.218
REMARK  3 active torsions:
REMARK  status: ('A' for Active; 'I' for Inactive)
REMARK    1  A    between atoms: O1_2  and  C2_3 
REMARK    2  A    between atoms: C2_3  and  O2_4 
REMARK    3  A    between atoms: O2_4  and  C3_5 
ROOT
HETATM    1  C3  UNL     1      31.430   7.198  46.488  1.00  0.00     0.224 C 
HETATM    2  C4  UNL     1      30.055   7.299  47.053  1.00  0.00    -0.045 C 
HETATM    3  C5  UNL     1      29.190   7.974  46.019  1.00  0.00     0.046 C 
HETATM    4  C6  UNL     1      29.673   6.875  48.250  1.00  0.00     0.035 C 
HETATM    5  C7  UNL     1      28.255   7.126  48.511  1.00  0.00     0.046 C 
HETATM    6  C8  UNL     1      27.234   6.326  48.323  1.00  0.00     0.076 C 
HETATM    7  S1  UNL     1      25.728   7.206  48.843  1.00  0.00    -0.119 SA
HETATM    8  C9  UNL     1      26.702   8.364  49.924  1.00  0.00     0.212 C 
HETATM    9  N1  UNL     1      27.876   8.454  49.020  1.00  0.00    -0.290 N 
HETATM   10  C10 UNL     1      28.538   9.652  48.667  1.00  0.00     0.326 C 
HETATM   11  O3  UNL     1      29.709   9.325  48.827  1.00  0.00    -0.247 OA
HETATM   12  N2  UNL     1      29.082  10.886  48.297  1.00  0.00    -0.331 N 
HETATM   13  C11 UNL     1      30.056  11.771  49.004  1.00  0.00     0.147 C 
HETATM   14  C12 UNL     1      31.365  11.789  48.195  1.00  0.00     0.139 C 
HETATM   15  N3  UNL     1      31.156  11.412  46.859  1.00  0.00    -0.384 N 
HETATM   16  C13 UNL     1      30.029  12.078  46.353  1.00  0.00     0.139 C 
HETATM   17  C14 UNL     1      28.821  11.620  47.068  1.00  0.00     0.147 C 
HETATM   18  C15 UNL     1      32.072  10.790  46.055  1.00  0.00     0.247 C 
HETATM   19  C16 UNL     1      33.327  10.380  46.734  1.00  0.00     0.139 C 
HETATM   20  N4  UNL     1      33.078   9.158  47.129  1.00  0.00    -0.243 NA
HETATM   21  C17 UNL     1      32.027   8.572  46.331  1.00  0.00     0.156 C 
HETATM   22  N5  UNL     1      31.699   9.499  45.481  1.00  0.00    -0.241 NA
ENDROOT
BRANCH   1  23
HETATM   23  O2  UNL     1      32.177   6.399  47.312  1.00  0.00    -0.350 OA
BRANCH  23  24
HETATM   24  C2  UNL     1      33.038   5.550  46.638  1.00  0.00     0.338 C 
BRANCH  24  25
HETATM   25  O1  UNL     1      34.321   5.760  47.130  1.00  0.00    -0.372 OA
HETATM   26  C1  UNL     1      34.359   5.929  48.491  1.00  0.00     0.204 C 
ENDBRANCH  24  25
ENDBRANCH  23  24
ENDBRANCH   1  23
TORSDOF 3
ENDMDL
MODEL 8
REMARK VINA RESULT:      -5.8     11.642     13.592
REMARK  3 active torsions:
REMARK  status: ('A' for Active; 'I' for Inactive)
REMARK    1  A    between atoms: O1_2  and  C2_3 
REMARK    2  A    between atoms: C2_3  and  O2_4 
REMARK    3  A    between atoms: O2_4  and  C3_5 
ROOT
HETATM    1  C3  UNL     1      33.893   6.185  46.836  1.00  0.00     0.224 C 
HETATM    2  C4  UNL     1      33.514   7.204  45.817  1.00  0.00    -0.045 C 
HETATM    3  C5  UNL     1      33.925   8.552  46.353  1.00  0.00     0.046 C 
HETATM    4  C6  UNL     1      32.918   6.961  44.659  1.00  0.00     0.035 C 
HETATM    5  C7  UNL     1      32.674   8.177  43.884  1.00  0.00     0.046 C 
HETATM    6  C8  UNL     1      33.419   8.718  42.951  1.00  0.00     0.076 C 
HETATM    7  S1  UNL     1      32.577  10.218  42.358  1.00  0.00    -0.119 SA
HETATM    8  C9  UNL     1      30.928   9.607  42.963  1.00  0.00     0.212 C 
HETATM    9  N1  UNL     1      31.456   8.947  44.182  1.00  0.00    -0.290 N 
HETATM   10  C10 UNL     1      30.888   9.055  45.473  1.00  0.00     0.326 C 
HETATM   11  O3  UNL     1      30.884   7.879  45.823  1.00  0.00    -0.247 OA
HETATM   12  N2  UNL     1      30.320   9.282  46.731  1.00  0.00    -0.331 N 
HETATM   13  C11 UNL     1      29.130   8.662  47.387  1.00  0.00     0.147 C 
HETATM   14  C12 UNL     1      29.622   7.827  48.583  1.00  0.00     0.139 C 
HETATM   15  N3  UNL     1      30.893   8.237  49.015  1.00  0.00    -0.384 N 
HETATM   16  C13 UNL     1      30.933   9.638  49.096  1.00  0.00     0.139 C 
HETATM   17  C14 UNL     1      30.790  10.214  47.743  1.00  0.00     0.147 C 
HETATM   18  C15 UNL     1      31.830   7.434  49.607  1.00  0.00     0.247 C 
HETATM   19  C16 UNL     1      31.482   5.991  49.652  1.00  0.00     0.139 C 
HETATM   20  N4  UNL     1      32.000   5.516  48.549  1.00  0.00    -0.243 NA
HETATM   21  C17 UNL     1      33.069   6.367  48.083  1.00  0.00     0.156 C 
HETATM   22  N5  UNL     1      33.134   7.327  48.957  1.00  0.00    -0.241 NA
ENDROOT
BRANCH   1  23
HETATM   23  O2  UNL     1      33.732   4.942  46.284  1.00  0.00    -0.350 OA
BRANCH  23  24
HETATM   24  C2  UNL     1      34.767   4.067  46.561  1.00  0.00     0.338 C 
BRANCH  24  25
HETATM   25  O1  UNL     1      34.306   3.131  47.480  1.00  0.00    -0.372 OA
HETATM   26  C1  UNL     1      33.170   2.482  47.069  1.00  0.00     0.204 C 
ENDBRANCH  24  25
ENDBRANCH  23  24
ENDBRANCH   1  23
TORSDOF 3
ENDMDL
MODEL 9
REMARK VINA RESULT:      -5.7      2.758      5.481
REMARK  3 active torsions:
REMARK  status: ('A' for Active; 'I' for Inactive)
REMARK    1  A    between atoms: O1_2  and  C2_3 
REMARK    2  A    between atoms: C2_3  and  O2_4 
REMARK    3  A    between atoms: O2_4  and  C3_5 
ROOT
HETATM    1  C3  UNL     1      20.169   3.543  48.796  1.00  0.00     0.224 C 
HETATM    2  C4  UNL     1      20.278   2.630  49.969  1.00  0.00    -0.045 C 
HETATM    3  C5  UNL     1      20.104   3.467  51.211  1.00  0.00     0.046 C 
HETATM    4  C6  UNL     1      20.496   1.323  49.919  1.00  0.00     0.035 C 
HETATM    5  C7  UNL     1      20.557   0.711  51.247  1.00  0.00     0.046 C 
HETATM    6  C8  UNL     1      19.595   0.139  51.929  1.00  0.00     0.076 C 
HETATM    7  S1  UNL     1      20.293  -0.436  53.508  1.00  0.00    -0.119 SA
HETATM    8  C9  UNL     1      22.018  -0.452  52.813  1.00  0.00     0.212 C 
HETATM    9  N1  UNL     1      21.842   0.750  51.961  1.00  0.00    -0.290 N 
HETATM   10  C10 UNL     1      22.768   1.814  51.860  1.00  0.00     0.326 C 
HETATM   11  O3  UNL     1      22.821   1.959  50.642  1.00  0.00    -0.247 OA
HETATM   12  N2  UNL     1      23.691   2.865  51.881  1.00  0.00    -0.331 N 
HETATM   13  C11 UNL     1      24.991   3.033  51.165  1.00  0.00     0.147 C 
HETATM   14  C12 UNL     1      24.835   4.175  50.146  1.00  0.00     0.139 C 
HETATM   15  N3  UNL     1      23.767   5.024  50.476  1.00  0.00    -0.384 N 
HETATM   16  C13 UNL     1      23.816   5.330  51.845  1.00  0.00     0.139 C 
HETATM   17  C14 UNL     1      23.582   4.104  52.634  1.00  0.00     0.147 C 
HETATM   18  C15 UNL     1      23.010   5.735  49.585  1.00  0.00     0.247 C 
HETATM   19  C16 UNL     1      23.290   5.448  48.155  1.00  0.00     0.139 C 
HETATM   20  N4  UNL     1      22.450   4.489  47.863  1.00  0.00    -0.243 NA
HETATM   21  C17 UNL     1      21.330   4.501  48.775  1.00  0.00     0.156 C 
HETATM   22  N5  UNL     1      21.569   5.493  49.580  1.00  0.00    -0.241 NA
ENDROOT
BRANCH   1  23
HETATM   23  O2  UNL     1      20.105   2.781  47.660  1.00  0.00    -0.350 OA
BRANCH  23  24
HETATM   24  C2  UNL     1      19.150   3.206  46.753  1.00  0.00     0.338 C 
BRANCH  24  25
HETATM   25  O1  UNL     1      19.803   3.582  45.585  1.00  0.00    -0.372 OA
HETATM   26  C1  UNL     1      19.774   4.935  45.361  1.00  0.00     0.204 C 
ENDBRANCH  24  25
ENDBRANCH  23  24
ENDBRANCH   1  23
TORSDOF 3
ENDMDL
