MODEL 1
REMARK VINA RESULT:      -7.7      0.000      0.000
REMARK  5 active torsions:
REMARK  status: ('A' for Active; 'I' for Inactive)
REMARK    1  A    between atoms: C3_3  and  C4_4 
REMARK    2  A    between atoms: C5_6  and  C6_7 
REMARK    3  A    between atoms: C6_7  and  N1_8 
REMARK    4  A    between atoms: N1_8  and  C7_9 
REMARK    5  A    between atoms: C12_15  and  N3_16 
ROOT
HETATM    1  C7  UNL     1      23.488   3.398  52.434  1.00  0.00     0.056 A 
HETATM    2  C8  UNL     1      24.376   2.482  52.850  1.00  0.00     0.106 A 
HETATM    3  N2  UNL     1      25.645   2.841  53.423  1.00  0.00    -0.380 N 
HETATM    4  C9  UNL     1      26.505   2.027  54.293  1.00  0.00     0.161 C 
HETATM    5  C10 UNL     1      26.741   0.674  53.712  1.00  0.00    -0.004 A 
HETATM    6  C11 UNL     1      28.074   0.330  53.805  1.00  0.00     0.040 A 
HETATM    7  C12 UNL     1      28.615  -0.855  53.357  1.00  0.00     0.026 A 
HETATM    8  C13 UNL     1      27.736  -1.759  52.773  1.00  0.00     0.032 A 
HETATM    9  C14 UNL     1      26.384  -1.458  52.656  1.00  0.00     0.040 A 
HETATM   10  C15 UNL     1      25.895  -0.242  53.127  1.00  0.00     0.086 A 
HETATM   11  O1  UNL     1      24.508  -0.073  52.944  1.00  0.00    -0.290 OA
HETATM   12  C16 UNL     1      23.859   1.136  52.632  1.00  0.00     0.194 A 
HETATM   13  N4  UNL     1      22.681   1.253  52.094  1.00  0.00    -0.259 NA
HETATM   14  C17 UNL     1      22.329   2.649  51.916  1.00  0.00     0.210 A 
HETATM   15  H10 UNL     1      25.955   3.811  53.161  1.00  0.00     0.160 HD
ENDROOT
BRANCH   1  16
HETATM   16  N1  UNL     1      23.714   4.790  52.518  1.00  0.00    -0.386 N 
HETATM   17  H9  UNL     1      24.157   5.075  53.444  1.00  0.00     0.159 HD
BRANCH  16  18
HETATM   18  C6  UNL     1      23.407   5.749  51.513  1.00  0.00     0.148 C 
BRANCH  18  19
HETATM   19  C5  UNL     1      24.479   6.146  50.620  1.00  0.00     0.011 C 
HETATM   20  C4  UNL     1      24.808   5.841  49.380  1.00  0.00     0.008 C 
HETATM   21 BR1  UNL     1      23.527   4.598  48.719  1.00  0.00    -0.051 Br
BRANCH  20  22
HETATM   22  C3  UNL     1      25.967   6.408  48.717  1.00  0.00     0.014 C 
HETATM   23  C2  UNL     1      27.086   5.735  48.548  1.00  0.00    -0.030 C 
HETATM   24  C1  UNL     1      27.284   4.339  49.010  1.00  0.00     0.036 C 
ENDBRANCH  20  22
ENDBRANCH  18  19
ENDBRANCH  16  18
ENDBRANCH   1  16
BRANCH   7  25
HETATM   25  N3  UNL     1      30.003  -1.134  53.491  1.00  0.00    -0.399 N 
HETATM   26  H14 UNL     1      30.465  -0.890  54.398  1.00  0.00     0.156 HD
HETATM   27  H15 UNL     1      30.318  -1.567  52.578  1.00  0.00     0.156 HD
ENDBRANCH   7  25
TORSDOF 5
ENDMDL
MODEL 2
REMARK VINA RESULT:      -7.7      1.313      1.479
REMARK  5 active torsions:
REMARK  status: ('A' for Active; 'I' for Inactive)
REMARK    1  A    between atoms: C3_3  and  C4_4 
REMARK    2  A    between atoms: C5_6  and  C6_7 
REMARK    3  A    between atoms: C6_7  and  N1_8 
REMARK    4  A    between atoms: N1_8  and  C7_9 
REMARK    5  A    between atoms: C12_15  and  N3_16 
ROOT
HETATM    1  C7  UNL     1      22.133   2.379  52.260  1.00  0.00     0.056 A 
HETATM    2  C8  UNL     1      23.294   1.900  52.735  1.00  0.00     0.106 A 
HETATM    3  N2  UNL     1      24.371   2.758  53.147  1.00  0.00    -0.380 N 
HETATM    4  C9  UNL     1      25.480   2.440  54.057  1.00  0.00     0.161 C 
HETATM    5  C10 UNL     1      26.158   1.170  53.665  1.00  0.00    -0.004 A 
HETATM    6  C11 UNL     1      27.529   1.319  53.703  1.00  0.00     0.040 A 
HETATM    7  C12 UNL     1      28.437   0.331  53.394  1.00  0.00     0.026 A 
HETATM    8  C13 UNL     1      27.914  -0.901  53.020  1.00  0.00     0.032 A 
HETATM    9  C14 UNL     1      26.540  -1.100  52.966  1.00  0.00     0.040 A 
HETATM   10  C15 UNL     1      25.669  -0.061  53.290  1.00  0.00     0.086 A 
HETATM   11  O1  UNL     1      24.306  -0.405  53.193  1.00  0.00    -0.290 OA
HETATM   12  C16 UNL     1      23.271   0.443  52.758  1.00  0.00     0.194 A 
HETATM   13  N4  UNL     1      22.113   0.063  52.303  1.00  0.00    -0.259 NA
HETATM   14  C17 UNL     1      21.295   1.207  51.950  1.00  0.00     0.210 A 
HETATM   15  H10 UNL     1      24.319   3.718  52.721  1.00  0.00     0.160 HD
ENDROOT
BRANCH   1  16
HETATM   16  N1  UNL     1      21.863   3.759  52.120  1.00  0.00    -0.386 N 
HETATM   17  H9  UNL     1      21.567   4.210  53.037  1.00  0.00     0.159 HD
BRANCH  16  18
HETATM   18  C6  UNL     1      21.961   4.511  50.916  1.00  0.00     0.148 C 
BRANCH  18  19
HETATM   19  C5  UNL     1      23.292   4.795  50.413  1.00  0.00     0.011 C 
HETATM   20  C4  UNL     1      24.040   4.295  49.448  1.00  0.00     0.008 C 
HETATM   21 BR1  UNL     1      23.057   2.902  48.602  1.00  0.00    -0.051 Br
BRANCH  20  22
HETATM   22  C3  UNL     1      25.373   4.788  49.158  1.00  0.00     0.014 C 
HETATM   23  C2  UNL     1      26.461   4.141  49.516  1.00  0.00    -0.030 C 
HETATM   24  C1  UNL     1      26.448   2.850  50.249  1.00  0.00     0.036 C 
ENDBRANCH  20  22
ENDBRANCH  18  19
ENDBRANCH  16  18
ENDBRANCH   1  16
BRANCH   7  25
HETATM   25  N3  UNL     1      29.838   0.566  53.458  1.00  0.00    -0.399 N 
HETATM   26  H14 UNL     1      30.369   0.143  54.255  1.00  0.00     0.156 HD
HETATM   27  H15 UNL     1      30.087   1.166  52.622  1.00  0.00     0.156 HD
ENDBRANCH   7  25
TORSDOF 5
ENDMDL
MODEL 3
REMARK VINA RESULT:      -7.7      3.270      6.624
REMARK  5 active torsions:
REMARK  status: ('A' for Active; 'I' for Inactive)
REMARK    1  A    between atoms: C3_3  and  C4_4 
REMARK    2  A    between atoms: C5_6  and  C6_7 
REMARK    3  A    between atoms: C6_7  and  N1_8 
REMARK    4  A    between atoms: N1_8  and  C7_9 
REMARK    5  A    between atoms: C12_15  and  N3_16 
ROOT
HETATM    1  C7  UNL     1      24.044   6.517  51.216  1.00  0.00     0.056 A 
HETATM    2  C8  UNL     1      25.017   6.316  50.314  1.00  0.00     0.106 A 
HETATM    3  N2  UNL     1      25.904   5.187  50.375  1.00  0.00    -0.380 N 
HETATM    4  C9  UNL     1      26.695   4.601  49.283  1.00  0.00     0.161 C 
HETATM    5  C10 UNL     1      27.484   5.643  48.564  1.00  0.00    -0.004 A 
HETATM    6  C11 UNL     1      28.777   5.213  48.351  1.00  0.00     0.040 A 
HETATM    7  C12 UNL     1      29.755   5.944  47.713  1.00  0.00     0.026 A 
HETATM    8  C13 UNL     1      29.392   7.206  47.258  1.00  0.00     0.032 A 
HETATM    9  C14 UNL     1      28.101   7.683  47.449  1.00  0.00     0.040 A 
HETATM   10  C15 UNL     1      27.154   6.897  48.102  1.00  0.00     0.086 A 
HETATM   11  O1  UNL     1      25.890   7.508  48.224  1.00  0.00    -0.290 OA
HETATM   12  C16 UNL     1      25.017   7.382  49.320  1.00  0.00     0.194 A 
HETATM   13  N4  UNL     1      24.056   8.204  49.628  1.00  0.00    -0.259 NA
HETATM   14  C17 UNL     1      23.359   7.761  50.820  1.00  0.00     0.210 A 
HETATM   15  H10 UNL     1      25.964   4.762  51.334  1.00  0.00     0.160 HD
ENDROOT
BRANCH   1  16
HETATM   16  N1  UNL     1      23.802   5.645  52.302  1.00  0.00    -0.386 N 
HETATM   17  H9  UNL     1      24.349   5.919  53.173  1.00  0.00     0.159 HD
BRANCH  16  18
HETATM   18  C6  UNL     1      22.936   4.517  52.290  1.00  0.00     0.148 C 
BRANCH  18  19
HETATM   19  C5  UNL     1      23.532   3.217  52.539  1.00  0.00     0.011 C 
HETATM   20  C4  UNL     1      23.795   2.164  51.790  1.00  0.00     0.008 C 
HETATM   21 BR1  UNL     1      23.223   2.545  50.015  1.00  0.00    -0.051 Br
BRANCH  20  22
HETATM   22  C3  UNL     1      24.415   0.964  52.319  1.00  0.00     0.014 C 
HETATM   23  C2  UNL     1      25.702   0.718  52.195  1.00  0.00    -0.030 C 
HETATM   24  C1  UNL     1      26.652   1.629  51.509  1.00  0.00     0.036 C 
ENDBRANCH  20  22
ENDBRANCH  18  19
ENDBRANCH  16  18
ENDBRANCH   1  16
BRANCH   7  25
HETATM   25  N3  UNL     1      31.068   5.428  47.533  1.00  0.00    -0.399 N 
HETATM   26  H14 UNL     1      31.189   4.614  46.887  1.00  0.00     0.156 HD
HETATM   27  H15 UNL     1      31.713   6.014  48.134  1.00  0.00     0.156 HD
ENDBRANCH   7  25
TORSDOF 5
ENDMDL
MODEL 4
REMARK VINA RESULT:      -7.6      3.040      6.683
REMARK  5 active torsions:
REMARK  status: ('A' for Active; 'I' for Inactive)
REMARK    1  A    between atoms: C3_3  and  C4_4 
REMARK    2  A    between atoms: C5_6  and  C6_7 
REMARK    3  A    between atoms: C6_7  and  N1_8 
REMARK    4  A    between atoms: N1_8  and  C7_9 
REMARK    5  A    between atoms: C12_15  and  N3_16 
ROOT
HETATM    1  C7  UNL     1      23.867   3.667  52.236  1.00  0.00     0.056 A 
HETATM    2  C8  UNL     1      24.613   4.069  51.196  1.00  0.00     0.106 A 
HETATM    3  N2  UNL     1      25.888   3.482  50.888  1.00  0.00    -0.380 N 
HETATM    4  C9  UNL     1      26.598   3.490  49.601  1.00  0.00     0.161 C 
HETATM    5  C10 UNL     1      26.689   4.868  49.038  1.00  0.00    -0.004 A 
HETATM    6  C11 UNL     1      27.962   5.120  48.571  1.00  0.00     0.040 A 
HETATM    7  C12 UNL     1      28.370   6.302  47.994  1.00  0.00     0.026 A 
HETATM    8  C13 UNL     1      27.413   7.303  47.883  1.00  0.00     0.032 A 
HETATM    9  C14 UNL     1      26.117   7.098  48.339  1.00  0.00     0.040 A 
HETATM   10  C15 UNL     1      25.763   5.879  48.915  1.00  0.00     0.086 A 
HETATM   11  O1  UNL     1      24.418   5.812  49.331  1.00  0.00    -0.290 OA
HETATM   12  C16 UNL     1      23.941   5.143  50.474  1.00  0.00     0.194 A 
HETATM   13  N4  UNL     1      22.813   5.375  51.078  1.00  0.00    -0.259 NA
HETATM   14  C17 UNL     1      22.648   4.496  52.220  1.00  0.00     0.210 A 
HETATM   15  H10 UNL     1      26.329   3.001  51.712  1.00  0.00     0.160 HD
ENDROOT
BRANCH   1  16
HETATM   16  N1  UNL     1      24.262   2.639  53.121  1.00  0.00    -0.386 N 
HETATM   17  H9  UNL     1      24.747   3.014  53.991  1.00  0.00     0.159 HD
BRANCH  16  18
HETATM   18  C6  UNL     1      24.059   1.244  52.925  1.00  0.00     0.148 C 
BRANCH  18  19
HETATM   19  C5  UNL     1      25.231   0.432  52.654  1.00  0.00     0.011 C 
HETATM   20  C4  UNL     1      25.852  -0.537  53.299  1.00  0.00     0.008 C 
HETATM   21 BR1  UNL     1      24.921  -0.850  54.929  1.00  0.00    -0.051 Br
BRANCH  20  22
HETATM   22  C3  UNL     1      27.036  -1.190  52.775  1.00  0.00     0.014 C 
HETATM   23  C2  UNL     1      28.246  -0.934  53.228  1.00  0.00    -0.030 C 
HETATM   24  C1  UNL     1      28.529   0.040  54.311  1.00  0.00     0.036 C 
ENDBRANCH  20  22
ENDBRANCH  18  19
ENDBRANCH  16  18
ENDBRANCH   1  16
BRANCH   7  25
HETATM   25  N3  UNL     1      29.704   6.482  47.536  1.00  0.00    -0.399 N 
HETATM   26  H14 UNL     1      30.124   7.438  47.615  1.00  0.00     0.156 HD
HETATM   27  H15 UNL     1      30.036   5.542  47.180  1.00  0.00     0.156 HD
ENDBRANCH   7  25
TORSDOF 5
ENDMDL
MODEL 5
REMARK VINA RESULT:      -7.5      2.290      4.571
REMARK  5 active torsions:
REMARK  status: ('A' for Active; 'I' for Inactive)
REMARK    1  A    between atoms: C3_3  and  C4_4 
REMARK    2  A    between atoms: C5_6  and  C6_7 
REMARK    3  A    between atoms: C6_7  and  N1_8 
REMARK    4  A    between atoms: N1_8  and  C7_9 
REMARK    5  A    between atoms: C12_15  and  N3_16 
ROOT
HETATM    1  C7  UNL     1      26.378   2.392  51.842  1.00  0.00     0.056 A 
HETATM    2  C8  UNL     1      25.311   1.606  52.054  1.00  0.00     0.106 A 
HETATM    3  N2  UNL     1      24.024   1.880  51.473  1.00  0.00    -0.380 N 
HETATM    4  C9  UNL     1      22.918   0.939  51.247  1.00  0.00     0.161 C 
HETATM    5  C10 UNL     1      22.600   0.166  52.482  1.00  0.00    -0.004 A 
HETATM    6  C11 UNL     1      21.237   0.118  52.688  1.00  0.00     0.040 A 
HETATM    7  C12 UNL     1      20.623  -0.520  53.744  1.00  0.00     0.026 A 
HETATM    8  C13 UNL     1      21.455  -1.156  54.656  1.00  0.00     0.032 A 
HETATM    9  C14 UNL     1      22.835  -1.135  54.492  1.00  0.00     0.040 A 
HETATM   10  C15 UNL     1      23.399  -0.472  53.404  1.00  0.00     0.086 A 
HETATM   11  O1  UNL     1      24.806  -0.533  53.364  1.00  0.00    -0.290 OA
HETATM   12  C16 UNL     1      25.664   0.492  52.925  1.00  0.00     0.194 A 
HETATM   13  N4  UNL     1      26.923   0.615  53.225  1.00  0.00    -0.259 NA
HETATM   14  C17 UNL     1      27.493   1.790  52.594  1.00  0.00     0.210 A 
HETATM   15  H10 UNL     1      23.905   2.886  51.192  1.00  0.00     0.160 HD
ENDROOT
BRANCH   1  16
HETATM   16  N1  UNL     1      26.339   3.552  51.036  1.00  0.00    -0.386 N 
HETATM   17  H9  UNL     1      26.173   4.436  51.604  1.00  0.00     0.159 HD
BRANCH  16  18
HETATM   18  C6  UNL     1      26.497   3.593  49.623  1.00  0.00     0.148 C 
BRANCH  18  19
HETATM   19  C5  UNL     1      27.041   4.810  49.048  1.00  0.00     0.011 C 
HETATM   20  C4  UNL     1      26.515   5.930  48.592  1.00  0.00     0.008 C 
HETATM   21 BR1  UNL     1      24.624   5.811  48.773  1.00  0.00    -0.051 Br
BRANCH  20  22
HETATM   22  C3  UNL     1      27.322   7.012  48.060  1.00  0.00     0.014 C 
HETATM   23  C2  UNL     1      27.485   8.153  48.694  1.00  0.00    -0.030 C 
HETATM   24  C1  UNL     1      26.870   8.458  50.010  1.00  0.00     0.036 C 
ENDBRANCH  20  22
ENDBRANCH  18  19
ENDBRANCH  16  18
ENDBRANCH   1  16
BRANCH   7  25
HETATM   25  N3  UNL     1      19.208  -0.524  53.884  1.00  0.00    -0.399 N 
HETATM   26  H14 UNL     1      18.671  -1.286  53.408  1.00  0.00     0.156 HD
HETATM   27  H15 UNL     1      18.957   0.307  54.490  1.00  0.00     0.156 HD
ENDBRANCH   7  25
TORSDOF 5
ENDMDL
MODEL 6
REMARK VINA RESULT:      -7.4      6.102      8.688
REMARK  5 active torsions:
REMARK  status: ('A' for Active; 'I' for Inactive)
REMARK    1  A    between atoms: C3_3  and  C4_4 
REMARK    2  A    between atoms: C5_6  and  C6_7 
REMARK    3  A    between atoms: C6_7  and  N1_8 
REMARK    4  A    between atoms: N1_8  and  C7_9 
REMARK    5  A    between atoms: C12_15  and  N3_16 
ROOT
HETATM    1  C7  UNL     1      29.552   9.496  49.416  1.00  0.00     0.056 A 
HETATM    2  C8  UNL     1      30.283   8.509  48.875  1.00  0.00     0.106 A 
HETATM    3  N2  UNL     1      30.043   7.122  49.166  1.00  0.00    -0.380 N 
HETATM    4  C9  UNL     1      30.433   5.951  48.367  1.00  0.00     0.161 C 
HETATM    5  C10 UNL     1      31.878   6.000  48.000  1.00  0.00    -0.004 A 
HETATM    6  C11 UNL     1      32.472   4.771  48.203  1.00  0.00     0.040 A 
HETATM    7  C12 UNL     1      33.798   4.489  47.960  1.00  0.00     0.026 A 
HETATM    8  C13 UNL     1      34.578   5.531  47.475  1.00  0.00     0.032 A 
HETATM    9  C14 UNL     1      34.025   6.787  47.255  1.00  0.00     0.040 A 
HETATM   10  C15 UNL     1      32.676   7.013  47.520  1.00  0.00     0.086 A 
HETATM   11  O1  UNL     1      32.253   8.330  47.250  1.00  0.00    -0.290 OA
HETATM   12  C16 UNL     1      31.304   9.058  47.991  1.00  0.00     0.194 A 
HETATM   13  N4  UNL     1      31.179  10.353  48.008  1.00  0.00    -0.259 NA
HETATM   14  C17 UNL     1      30.094  10.757  48.881  1.00  0.00     0.210 A 
HETATM   15  H10 UNL     1      29.525   6.975  50.069  1.00  0.00     0.160 HD
ENDROOT
BRANCH   1  16
HETATM   16  N1  UNL     1      28.487   9.267  50.316  1.00  0.00    -0.386 N 
HETATM   17  H9  UNL     1      28.827   9.057  51.303  1.00  0.00     0.159 HD
BRANCH  16  18
HETATM   18  C6  UNL     1      27.101   9.300  49.997  1.00  0.00     0.148 C 
BRANCH  18  19
HETATM   19  C5  UNL     1      26.382   8.040  50.016  1.00  0.00     0.011 C 
HETATM   20  C4  UNL     1      26.029   7.164  49.094  1.00  0.00     0.008 C 
HETATM   21 BR1  UNL     1      26.649   7.799  47.410  1.00  0.00    -0.051 Br
BRANCH  20  22
HETATM   22  C3  UNL     1      25.294   5.954  49.408  1.00  0.00     0.014 C 
HETATM   23  C2  UNL     1      25.836   4.757  49.338  1.00  0.00    -0.030 C 
HETATM   24  C1  UNL     1      27.244   4.514  48.936  1.00  0.00     0.036 C 
ENDBRANCH  20  22
ENDBRANCH  18  19
ENDBRANCH  16  18
ENDBRANCH   1  16
BRANCH   7  25
HETATM   25  N3  UNL     1      34.334   3.193  48.195  1.00  0.00    -0.399 N 
HETATM   26  H14 UNL     1      35.135   3.109  48.864  1.00  0.00     0.156 HD
HETATM   27  H15 UNL     1      33.774   2.517  47.603  1.00  0.00     0.156 HD
ENDBRANCH   7  25
TORSDOF 5
ENDMDL
MODEL 7
REMARK VINA RESULT:      -7.3      1.645      2.157
REMARK  5 active torsions:
REMARK  status: ('A' for Active; 'I' for Inactive)
REMARK    1  A    between atoms: C3_3  and  C4_4 
REMARK    2  A    between atoms: C5_6  and  C6_7 
REMARK    3  A    between atoms: C6_7  and  N1_8 
REMARK    4  A    between atoms: N1_8  and  C7_9 
REMARK    5  A    between atoms: C12_15  and  N3_16 
ROOT
HETATM    1  C7  UNL     1      22.367   3.602  50.264  1.00  0.00     0.056 A 
HETATM    2  C8  UNL     1      23.144   3.018  51.189  1.00  0.00     0.106 A 
HETATM    3  N2  UNL     1      23.973   3.773  52.088  1.00  0.00    -0.380 N 
HETATM    4  C9  UNL     1      24.517   3.348  53.386  1.00  0.00     0.161 C 
HETATM    5  C10 UNL     1      25.204   2.028  53.281  1.00  0.00    -0.004 A 
HETATM    6  C11 UNL     1      26.413   2.056  53.945  1.00  0.00     0.040 A 
HETATM    7  C12 UNL     1      27.287   0.994  54.033  1.00  0.00     0.026 A 
HETATM    8  C13 UNL     1      26.904  -0.182  53.401  1.00  0.00     0.032 A 
HETATM    9  C14 UNL     1      25.695  -0.259  52.720  1.00  0.00     0.040 A 
HETATM   10  C15 UNL     1      24.852   0.849  52.664  1.00  0.00     0.086 A 
HETATM   11  O1  UNL     1      23.663   0.627  51.942  1.00  0.00    -0.290 OA
HETATM   12  C16 UNL     1      23.006   1.568  51.127  1.00  0.00     0.194 A 
HETATM   13  N4  UNL     1      22.159   1.297  50.178  1.00  0.00    -0.259 NA
HETATM   14  C17 UNL     1      21.679   2.512  49.549  1.00  0.00     0.210 A 
HETATM   15  H10 UNL     1      24.192   4.738  51.734  1.00  0.00     0.160 HD
ENDROOT
BRANCH   1  16
HETATM   16  N1  UNL     1      22.293   5.002  50.086  1.00  0.00    -0.386 N 
HETATM   17  H9  UNL     1      21.755   5.484  50.868  1.00  0.00     0.159 HD
BRANCH  16  18
HETATM   18  C6  UNL     1      22.854   5.738  49.005  1.00  0.00     0.148 C 
BRANCH  18  19
HETATM   19  C5  UNL     1      24.260   5.529  48.715  1.00  0.00     0.011 C 
HETATM   20  C4  UNL     1      25.386   5.984  49.231  1.00  0.00     0.008 C 
HETATM   21 BR1  UNL     1      24.947   7.166  50.656  1.00  0.00    -0.051 Br
BRANCH  20  22
HETATM   22  C3  UNL     1      26.689   5.593  48.727  1.00  0.00     0.014 C 
HETATM   23  C2  UNL     1      27.213   4.408  48.960  1.00  0.00    -0.030 C 
HETATM   24  C1  UNL     1      26.537   3.352  49.753  1.00  0.00     0.036 C 
ENDBRANCH  20  22
ENDBRANCH  18  19
ENDBRANCH  16  18
ENDBRANCH   1  16
BRANCH   7  25
HETATM   25  N3  UNL     1      28.517   1.104  54.738  1.00  0.00    -0.399 N 
HETATM   26  H14 UNL     1      29.051   2.001  54.653  1.00  0.00     0.156 HD
HETATM   27  H15 UNL     1      28.661   0.188  55.250  1.00  0.00     0.156 HD
ENDBRANCH   7  25
TORSDOF 5
ENDMDL
MODEL 8
REMARK VINA RESULT:      -7.2      3.814      6.989
REMARK  5 active torsions:
REMARK  status: ('A' for Active; 'I' for Inactive)
REMARK    1  A    between atoms: C3_3  and  C4_4 
REMARK    2  A    between atoms: C5_6  and  C6_7 
REMARK    3  A    between atoms: C6_7  and  N1_8 
REMARK    4  A    between atoms: N1_8  and  C7_9 
REMARK    5  A    between atoms: C12_15  and  N3_16 
ROOT
HETATM    1  C7  UNL     1      23.500   2.102  52.096  1.00  0.00     0.056 A 
HETATM    2  C8  UNL     1      22.330   1.563  52.471  1.00  0.00     0.106 A 
HETATM    3  N2  UNL     1      22.239   0.549  53.486  1.00  0.00    -0.380 N 
HETATM    4  C9  UNL     1      21.066   0.184  54.294  1.00  0.00     0.161 C 
HETATM    5  C10 UNL     1      19.867  -0.051  53.438  1.00  0.00    -0.004 A 
HETATM    6  C11 UNL     1      19.209  -1.198  53.830  1.00  0.00     0.040 A 
HETATM    7  C12 UNL     1      18.066  -1.690  53.239  1.00  0.00     0.026 A 
HETATM    8  C13 UNL     1      17.554  -0.963  52.171  1.00  0.00     0.032 A 
HETATM    9  C14 UNL     1      18.183   0.199  51.740  1.00  0.00     0.040 A 
HETATM   10  C15 UNL     1      19.338   0.648  52.377  1.00  0.00     0.086 A 
HETATM   11  O1  UNL     1      19.865   1.836  51.835  1.00  0.00    -0.290 OA
HETATM   12  C16 UNL     1      21.232   2.151  51.714  1.00  0.00     0.194 A 
HETATM   13  N4  UNL     1      21.744   3.028  50.901  1.00  0.00    -0.259 NA
HETATM   14  C17 UNL     1      23.185   3.090  51.048  1.00  0.00     0.210 A 
HETATM   15  H10 UNL     1      23.142   0.031  53.633  1.00  0.00     0.160 HD
ENDROOT
BRANCH   1  16
HETATM   16  N1  UNL     1      24.741   1.727  52.656  1.00  0.00    -0.386 N 
HETATM   17  H9  UNL     1      25.025   2.351  53.470  1.00  0.00     0.159 HD
BRANCH  16  18
HETATM   18  C6  UNL     1      25.562   0.649  52.222  1.00  0.00     0.148 C 
BRANCH  18  19
HETATM   19  C5  UNL     1      26.980   0.728  52.521  1.00  0.00     0.011 C 
HETATM   20  C4  UNL     1      27.707   0.534  53.605  1.00  0.00     0.008 C 
HETATM   21 BR1  UNL     1      26.533   0.055  55.024  1.00  0.00    -0.051 Br
BRANCH  20  22
HETATM   22  C3  UNL     1      29.149   0.687  53.615  1.00  0.00     0.014 C 
HETATM   23  C2  UNL     1      29.971  -0.337  53.526  1.00  0.00    -0.030 C 
HETATM   24  C1  UNL     1      29.520  -1.746  53.408  1.00  0.00     0.036 C 
ENDBRANCH  20  22
ENDBRANCH  18  19
ENDBRANCH  16  18
ENDBRANCH   1  16
BRANCH   7  25
HETATM   25  N3  UNL     1      17.445  -2.883  53.703  1.00  0.00    -0.399 N 
HETATM   26  H14 UNL     1      16.676  -3.292  53.123  1.00  0.00     0.156 HD
HETATM   27  H15 UNL     1      17.921  -3.141  54.613  1.00  0.00     0.156 HD
ENDBRANCH   7  25
TORSDOF 5
ENDMDL
MODEL 9
REMARK VINA RESULT:      -7.0      4.328      7.984
REMARK  5 active torsions:
REMARK  status: ('A' for Active; 'I' for Inactive)
REMARK    1  A    between atoms: C3_3  and  C4_4 
REMARK    2  A    between atoms: C5_6  and  C6_7 
REMARK    3  A    between atoms: C6_7  and  N1_8 
REMARK    4  A    between atoms: N1_8  and  C7_9 
REMARK    5  A    between atoms: C12_15  and  N3_16 
ROOT
HETATM    1  C7  UNL     1      22.453  -0.113  53.790  1.00  0.00     0.056 A 
HETATM    2  C8  UNL     1      21.252  -0.235  53.203  1.00  0.00     0.106 A 
HETATM    3  N2  UNL     1      20.851   0.582  52.090  1.00  0.00    -0.380 N 
HETATM    4  C9  UNL     1      19.807   0.301  51.094  1.00  0.00     0.161 C 
HETATM    5  C10 UNL     1      18.521  -0.078  51.747  1.00  0.00    -0.004 A 
HETATM    6  C11 UNL     1      17.463   0.581  51.156  1.00  0.00     0.040 A 
HETATM    7  C12 UNL     1      16.144   0.447  51.531  1.00  0.00     0.026 A 
HETATM    8  C13 UNL     1      15.880  -0.420  52.583  1.00  0.00     0.032 A 
HETATM    9  C14 UNL     1      16.913  -1.107  53.211  1.00  0.00     0.040 A 
HETATM   10  C15 UNL     1      18.229  -0.931  52.788  1.00  0.00     0.086 A 
HETATM   11  O1  UNL     1      19.169  -1.689  53.513  1.00  0.00    -0.290 OA
HETATM   12  C16 UNL     1      20.471  -1.279  53.854  1.00  0.00     0.194 A 
HETATM   13  N4  UNL     1      21.199  -1.771  54.814  1.00  0.00    -0.259 NA
HETATM   14  C17 UNL     1      22.488  -1.109  54.876  1.00  0.00     0.210 A 
HETATM   15  H10 UNL     1      21.396   1.478  52.020  1.00  0.00     0.160 HD
ENDROOT
BRANCH   1  16
HETATM   16  N1  UNL     1      23.428   0.822  53.374  1.00  0.00    -0.386 N 
HETATM   17  H9  UNL     1      23.128   1.828  53.551  1.00  0.00     0.159 HD
BRANCH  16  18
HETATM   18  C6  UNL     1      24.683   0.512  52.782  1.00  0.00     0.148 C 
BRANCH  18  19
HETATM   19  C5  UNL     1      25.817   0.342  53.672  1.00  0.00     0.011 C 
HETATM   20  C4  UNL     1      27.029   0.859  53.731  1.00  0.00     0.008 C 
HETATM   21 BR1  UNL     1      27.222   2.078  52.283  1.00  0.00    -0.051 Br
BRANCH  20  22
HETATM   22  C3  UNL     1      27.982   0.497  54.763  1.00  0.00     0.014 C 
HETATM   23  C2  UNL     1      28.974  -0.342  54.548  1.00  0.00    -0.030 C 
HETATM   24  C1  UNL     1      29.224  -1.003  53.243  1.00  0.00     0.036 C 
ENDBRANCH  20  22
ENDBRANCH  18  19
ENDBRANCH  16  18
ENDBRANCH   1  16
BRANCH   7  25
HETATM   25  N3  UNL     1      15.110   1.164  50.868  1.00  0.00    -0.399 N 
HETATM   26  H14 UNL     1      14.123   0.851  51.021  1.00  0.00     0.156 HD
HETATM   27  H15 UNL     1      15.578   1.932  50.309  1.00  0.00     0.156 HD
ENDBRANCH   7  25
TORSDOF 5
ENDMDL
