MODEL 1
REMARK VINA RESULT:      -7.7      0.000      0.000
REMARK  4 active torsions:
REMARK  status: ('A' for Active; 'I' for Inactive)
REMARK    1  A    between atoms: O1_2  and  C2_3 
REMARK    2  A    between atoms: C6_7  and  N1_8 
REMARK    3  A    between atoms: C15_19  and  C16_20 
REMARK    4  A    between atoms: C18_24  and  C19_25 
ROOT
HETATM    1  N1  UNL     1      22.638   1.722  51.773  1.00  0.00    -0.254 N 
HETATM    2  C7  UNL     1      22.284   0.426  52.244  1.00  0.00     0.228 C 
HETATM    3  N2  UNL     1      22.822  -0.458  53.028  1.00  0.00    -0.255 NA
HETATM    4  C8  UNL     1      24.062  -0.448  53.756  1.00  0.00     0.115 C 
HETATM    5  C9  UNL     1      25.150   0.313  53.708  1.00  0.00     0.009 C 
HETATM    6  C10 UNL     1      25.735   1.460  53.007  1.00  0.00     0.031 C 
HETATM    7  C11 UNL     1      24.797   2.525  52.608  1.00  0.00     0.127 C 
HETATM    8  N3  UNL     1      23.611   2.665  52.134  1.00  0.00    -0.186 NA
HETATM    9  C12 UNL     1      26.723   2.092  53.971  1.00  0.00     0.027 C 
HETATM   10  C13 UNL     1      27.853   1.186  54.364  1.00  0.00     0.058 C 
HETATM   11  C14 UNL     1      28.057   0.075  53.401  1.00  0.00     0.003 C 
HETATM   12  C15 UNL     1      28.629  -1.054  53.791  1.00  0.00     0.028 C 
HETATM   13  N4  UNL     1      27.632   0.235  52.053  1.00  0.00    -0.392 N 
HETATM   14  C17 UNL     1      26.509   1.089  51.759  1.00  0.00     0.138 C 
HETATM   15  H21 UNL     1      28.117  -0.253  51.288  1.00  0.00     0.159 HD
ENDROOT
BRANCH   1  16
HETATM   16  C6  UNL     1      21.753   2.106  50.660  1.00  0.00     0.154 A 
HETATM   17  C4  UNL     1      22.501   2.187  49.368  1.00  0.00     0.036 A 
HETATM   18  C3  UNL     1      22.500   3.558  48.771  1.00  0.00     0.017 A 
HETATM   19  C5  UNL     1      21.804   1.302  48.327  1.00  0.00     0.017 C 
HETATM   20  C2  UNL     1      21.954   4.659  49.209  1.00  0.00     0.065 A 
HETATM   21  C20 UNL     1      21.221   4.568  50.480  1.00  0.00     0.048 A 
HETATM   22  C18 UNL     1      21.170   3.406  51.073  1.00  0.00     0.008 A 
BRANCH  20  23
HETATM   23  O1  UNL     1      22.026   5.878  48.556  1.00  0.00    -0.356 OA
HETATM   24  C1  UNL     1      22.762   5.905  47.333  1.00  0.00     0.210 C 
ENDBRANCH  20  23
BRANCH  22  25
HETATM   25  C19 UNL     1      20.429   3.343  52.346  1.00  0.00     0.268 C 
HETATM   26  O2  UNL     1      19.159   3.324  52.312  1.00  0.00    -0.302 OA
ENDBRANCH  22  25
ENDBRANCH   1  16
BRANCH  12  27
HETATM   27  C16 UNL     1      28.911  -2.253  52.979  1.00  0.00     0.251 C 
HETATM   28  F1  UNL     1      27.788  -2.979  52.646  1.00  0.00    -0.251 F 
ENDBRANCH  12  27
TORSDOF 4
ENDMDL
MODEL 2
REMARK VINA RESULT:      -7.6      2.237      3.827
REMARK  4 active torsions:
REMARK  status: ('A' for Active; 'I' for Inactive)
REMARK    1  A    between atoms: O1_2  and  C2_3 
REMARK    2  A    between atoms: C6_7  and  N1_8 
REMARK    3  A    between atoms: C15_19  and  C16_20 
REMARK    4  A    between atoms: C18_24  and  C19_25 
ROOT
HETATM    1  N1  UNL     1      23.508   2.903  50.431  1.00  0.00    -0.254 N 
HETATM    2  C7  UNL     1      24.650   3.442  49.774  1.00  0.00     0.228 C 
HETATM    3  N2  UNL     1      25.921   3.175  49.746  1.00  0.00    -0.255 NA
HETATM    4  C8  UNL     1      26.689   2.164  50.418  1.00  0.00     0.115 C 
HETATM    5  C9  UNL     1      26.441   1.340  51.432  1.00  0.00     0.009 C 
HETATM    6  C10 UNL     1      25.400   0.963  52.391  1.00  0.00     0.031 C 
HETATM    7  C11 UNL     1      24.012   1.003  51.895  1.00  0.00     0.127 C 
HETATM    8  N3  UNL     1      23.255   1.725  51.149  1.00  0.00    -0.186 NA
HETATM    9  C12 UNL     1      25.678  -0.478  52.780  1.00  0.00     0.027 C 
HETATM   10  C13 UNL     1      27.003  -0.680  53.456  1.00  0.00     0.058 C 
HETATM   11  C14 UNL     1      27.546   0.574  54.038  1.00  0.00     0.003 C 
HETATM   12  C15 UNL     1      28.849   0.718  54.223  1.00  0.00     0.028 C 
HETATM   13  N4  UNL     1      26.651   1.619  54.395  1.00  0.00    -0.392 N 
HETATM   14  C17 UNL     1      25.416   1.776  53.669  1.00  0.00     0.138 C 
HETATM   15  H21 UNL     1      26.876   2.264  55.165  1.00  0.00     0.159 HD
ENDROOT
BRANCH   1  16
HETATM   16  C6  UNL     1      22.371   3.829  50.295  1.00  0.00     0.154 A 
HETATM   17  C4  UNL     1      22.017   4.459  51.604  1.00  0.00     0.036 A 
HETATM   18  C3  UNL     1      20.636   4.119  52.068  1.00  0.00     0.017 A 
HETATM   19  C5  UNL     1      22.016   5.984  51.444  1.00  0.00     0.017 C 
HETATM   20  C2  UNL     1      19.727   3.372  51.506  1.00  0.00     0.065 A 
HETATM   21  C20 UNL     1      20.086   2.757  50.220  1.00  0.00     0.048 A 
HETATM   22  C18 UNL     1      21.274   3.000  49.737  1.00  0.00     0.008 A 
BRANCH  20  23
HETATM   23  O1  UNL     1      18.474   3.133  52.044  1.00  0.00    -0.356 OA
HETATM   24  C1  UNL     1      17.368   3.749  51.385  1.00  0.00     0.210 C 
ENDBRANCH  20  23
BRANCH  22  25
HETATM   25  C19 UNL     1      21.607   2.371  48.446  1.00  0.00     0.268 C 
HETATM   26  O2  UNL     1      21.464   1.114  48.325  1.00  0.00    -0.302 OA
ENDBRANCH  22  25
ENDBRANCH   1  16
BRANCH  12  27
HETATM   27  C16 UNL     1      29.559   1.882  54.785  1.00  0.00     0.251 C 
HETATM   28  F1  UNL     1      29.537   2.995  53.972  1.00  0.00    -0.251 F 
ENDBRANCH  12  27
TORSDOF 4
ENDMDL
MODEL 3
REMARK VINA RESULT:      -7.4      6.503      8.992
REMARK  4 active torsions:
REMARK  status: ('A' for Active; 'I' for Inactive)
REMARK    1  A    between atoms: O1_2  and  C2_3 
REMARK    2  A    between atoms: C6_7  and  N1_8 
REMARK    3  A    between atoms: C15_19  and  C16_20 
REMARK    4  A    between atoms: C18_24  and  C19_25 
ROOT
HETATM    1  N1  UNL     1      27.982   7.192  47.681  1.00  0.00    -0.254 N 
HETATM    2  C7  UNL     1      28.541   5.967  48.144  1.00  0.00     0.228 C 
HETATM    3  N2  UNL     1      28.085   4.890  48.708  1.00  0.00    -0.255 NA
HETATM    4  C8  UNL     1      26.753   4.519  49.098  1.00  0.00     0.115 C 
HETATM    5  C9  UNL     1      25.614   5.189  49.237  1.00  0.00     0.009 C 
HETATM    6  C10 UNL     1      25.033   6.529  49.111  1.00  0.00     0.031 C 
HETATM    7  C11 UNL     1      25.561   7.367  48.020  1.00  0.00     0.127 C 
HETATM    8  N3  UNL     1      26.677   7.648  47.446  1.00  0.00    -0.186 NA
HETATM    9  C12 UNL     1      23.555   6.330  48.827  1.00  0.00     0.027 C 
HETATM   10  C13 UNL     1      22.815   5.623  49.925  1.00  0.00     0.058 C 
HETATM   11  C14 UNL     1      23.522   5.694  51.229  1.00  0.00     0.003 C 
HETATM   12  C15 UNL     1      23.314   4.769  52.155  1.00  0.00     0.028 C 
HETATM   13  N4  UNL     1      24.424   6.764  51.474  1.00  0.00    -0.392 N 
HETATM   14  C17 UNL     1      25.133   7.363  50.372  1.00  0.00     0.138 C 
HETATM   15  H21 UNL     1      24.577   7.114  52.430  1.00  0.00     0.159 HD
ENDROOT
BRANCH   1  16
HETATM   16  C6  UNL     1      29.059   8.157  47.402  1.00  0.00     0.154 A 
HETATM   17  C4  UNL     1      30.159   7.535  46.601  1.00  0.00     0.036 A 
HETATM   18  C3  UNL     1      31.471   7.513  47.318  1.00  0.00     0.017 A 
HETATM   19  C5  UNL     1      30.408   8.383  45.347  1.00  0.00     0.017 C 
HETATM   20  C2  UNL     1      31.779   7.947  48.509  1.00  0.00     0.065 A 
HETATM   21  C20 UNL     1      30.691   8.555  49.288  1.00  0.00     0.048 A 
HETATM   22  C18 UNL     1      29.508   8.618  48.739  1.00  0.00     0.008 A 
BRANCH  20  23
HETATM   23  O1  UNL     1      33.045   7.865  49.064  1.00  0.00    -0.356 OA
HETATM   24  C1  UNL     1      33.943   6.928  48.472  1.00  0.00     0.210 C 
ENDBRANCH  20  23
BRANCH  22  25
HETATM   25  C19 UNL     1      28.436   9.234  49.542  1.00  0.00     0.268 C 
HETATM   26  O2  UNL     1      28.036  10.399  49.233  1.00  0.00    -0.302 OA
ENDBRANCH  22  25
ENDBRANCH   1  16
BRANCH  12  27
HETATM   27  C16 UNL     1      23.921   4.680  53.495  1.00  0.00     0.251 C 
HETATM   28  F1  UNL     1      24.488   3.454  53.772  1.00  0.00    -0.251 F 
ENDBRANCH  12  27
TORSDOF 4
ENDMDL
MODEL 4
REMARK VINA RESULT:      -7.2      2.410      3.271
REMARK  4 active torsions:
REMARK  status: ('A' for Active; 'I' for Inactive)
REMARK    1  A    between atoms: O1_2  and  C2_3 
REMARK    2  A    between atoms: C6_7  and  N1_8 
REMARK    3  A    between atoms: C15_19  and  C16_20 
REMARK    4  A    between atoms: C18_24  and  C19_25 
ROOT
HETATM    1  N1  UNL     1      23.324   3.160  50.436  1.00  0.00    -0.254 N 
HETATM    2  C7  UNL     1      24.474   3.652  49.756  1.00  0.00     0.228 C 
HETATM    3  N2  UNL     1      25.731   3.330  49.700  1.00  0.00    -0.255 NA
HETATM    4  C8  UNL     1      26.469   2.284  50.352  1.00  0.00     0.115 C 
HETATM    5  C9  UNL     1      26.208   1.468  51.368  1.00  0.00     0.009 C 
HETATM    6  C10 UNL     1      25.172   1.132  52.349  1.00  0.00     0.031 C 
HETATM    7  C11 UNL     1      23.777   1.234  51.883  1.00  0.00     0.127 C 
HETATM    8  N3  UNL     1      23.036   1.991  51.156  1.00  0.00    -0.186 NA
HETATM    9  C12 UNL     1      25.396  -0.321  52.727  1.00  0.00     0.027 C 
HETATM   10  C13 UNL     1      26.725  -0.583  53.373  1.00  0.00     0.058 C 
HETATM   11  C14 UNL     1      27.334   0.644  53.947  1.00  0.00     0.003 C 
HETATM   12  C15 UNL     1      28.646   0.731  54.104  1.00  0.00     0.028 C 
HETATM   13  N4  UNL     1      26.493   1.726  54.327  1.00  0.00    -0.392 N 
HETATM   14  C17 UNL     1      25.251   1.940  53.628  1.00  0.00     0.138 C 
HETATM   15  H21 UNL     1      26.763   2.357  55.094  1.00  0.00     0.159 HD
ENDROOT
BRANCH   1  16
HETATM   16  C6  UNL     1      22.226   4.135  50.327  1.00  0.00     0.154 A 
HETATM   17  C4  UNL     1      22.080   4.643  48.928  1.00  0.00     0.036 A 
HETATM   18  C3  UNL     1      22.314   6.115  48.807  1.00  0.00     0.017 A 
HETATM   19  C5  UNL     1      20.633   4.433  48.466  1.00  0.00     0.017 C 
HETATM   20  C2  UNL     1      22.619   6.989  49.725  1.00  0.00     0.065 A 
HETATM   21  C20 UNL     1      22.760   6.480  51.097  1.00  0.00     0.048 A 
HETATM   22  C18 UNL     1      22.572   5.204  51.296  1.00  0.00     0.008 A 
BRANCH  20  23
HETATM   23  O1  UNL     1      22.812   8.339  49.482  1.00  0.00    -0.356 OA
HETATM   24  C1  UNL     1      23.975   8.693  48.734  1.00  0.00     0.210 C 
ENDBRANCH  20  23
BRANCH  22  25
HETATM   25  C19 UNL     1      22.720   4.719  52.681  1.00  0.00     0.268 C 
HETATM   26  O2  UNL     1      23.749   5.065  53.341  1.00  0.00    -0.302 OA
ENDBRANCH  22  25
ENDBRANCH   1  16
BRANCH  12  27
HETATM   27  C16 UNL     1      29.418   1.861  54.654  1.00  0.00     0.251 C 
HETATM   28  F1  UNL     1      29.406   2.986  53.856  1.00  0.00    -0.251 F 
ENDBRANCH  12  27
TORSDOF 4
ENDMDL
MODEL 5
REMARK VINA RESULT:      -7.1      3.787      7.358
REMARK  4 active torsions:
REMARK  status: ('A' for Active; 'I' for Inactive)
REMARK    1  A    between atoms: O1_2  and  C2_3 
REMARK    2  A    between atoms: C6_7  and  N1_8 
REMARK    3  A    between atoms: C15_19  and  C16_20 
REMARK    4  A    between atoms: C18_24  and  C19_25 
ROOT
HETATM    1  N1  UNL     1      23.826   2.235  51.801  1.00  0.00    -0.254 N 
HETATM    2  C7  UNL     1      24.092   3.037  52.947  1.00  0.00     0.228 C 
HETATM    3  N2  UNL     1      24.027   4.302  53.234  1.00  0.00    -0.255 NA
HETATM    4  C8  UNL     1      23.635   5.433  52.439  1.00  0.00     0.115 C 
HETATM    5  C9  UNL     1      23.439   5.620  51.138  1.00  0.00     0.009 C 
HETATM    6  C10 UNL     1      23.482   4.927  49.847  1.00  0.00     0.031 C 
HETATM    7  C11 UNL     1      23.065   3.513  49.853  1.00  0.00     0.127 C 
HETATM    8  N3  UNL     1      23.177   2.458  50.577  1.00  0.00    -0.186 NA
HETATM    9  C12 UNL     1      22.513   5.659  48.936  1.00  0.00     0.027 C 
HETATM   10  C13 UNL     1      22.879   7.093  48.686  1.00  0.00     0.058 C 
HETATM   11  C14 UNL     1      24.312   7.373  48.955  1.00  0.00     0.003 C 
HETATM   12  C15 UNL     1      24.709   8.597  49.267  1.00  0.00     0.028 C 
HETATM   13  N4  UNL     1      25.255   6.312  48.873  1.00  0.00    -0.392 N 
HETATM   14  C17 UNL     1      24.837   4.965  49.172  1.00  0.00     0.138 C 
HETATM   15  H21 UNL     1      26.231   6.496  48.604  1.00  0.00     0.159 HD
ENDROOT
BRANCH   1  16
HETATM   16  C6  UNL     1      24.376   0.884  51.999  1.00  0.00     0.154 A 
HETATM   17  C4  UNL     1      23.855   0.258  53.253  1.00  0.00     0.036 A 
HETATM   18  C3  UNL     1      24.925  -0.041  54.254  1.00  0.00     0.017 A 
HETATM   19  C5  UNL     1      23.238  -1.106  52.915  1.00  0.00     0.017 C 
HETATM   20  C2  UNL     1      26.211   0.165  54.186  1.00  0.00     0.065 A 
HETATM   21  C20 UNL     1      26.714   0.781  52.950  1.00  0.00     0.048 A 
HETATM   22  C18 UNL     1      25.848   1.075  52.019  1.00  0.00     0.008 A 
BRANCH  20  23
HETATM   23  O1  UNL     1      27.105  -0.159  55.193  1.00  0.00    -0.356 OA
HETATM   24  C1  UNL     1      28.475   0.169  54.961  1.00  0.00     0.210 C 
ENDBRANCH  20  23
BRANCH  22  25
HETATM   25  C19 UNL     1      26.379   1.692  50.789  1.00  0.00     0.268 C 
HETATM   26  O2  UNL     1      27.029   2.779  50.885  1.00  0.00    -0.302 OA
ENDBRANCH  22  25
ENDBRANCH   1  16
BRANCH  12  27
HETATM   27  C16 UNL     1      26.079   9.056  49.562  1.00  0.00     0.251 C 
HETATM   28  F1  UNL     1      26.645   8.452  50.665  1.00  0.00    -0.251 F 
ENDBRANCH  12  27
TORSDOF 4
ENDMDL
MODEL 6
REMARK VINA RESULT:      -7.0      3.697      7.772
REMARK  4 active torsions:
REMARK  status: ('A' for Active; 'I' for Inactive)
REMARK    1  A    between atoms: O1_2  and  C2_3 
REMARK    2  A    between atoms: C6_7  and  N1_8 
REMARK    3  A    between atoms: C15_19  and  C16_20 
REMARK    4  A    between atoms: C18_24  and  C19_25 
ROOT
HETATM    1  N1  UNL     1      23.939   2.302  51.600  1.00  0.00    -0.254 N 
HETATM    2  C7  UNL     1      23.889   3.308  52.607  1.00  0.00     0.228 C 
HETATM    3  N2  UNL     1      23.270   4.438  52.764  1.00  0.00    -0.255 NA
HETATM    4  C8  UNL     1      22.343   5.135  51.915  1.00  0.00     0.115 C 
HETATM    5  C9  UNL     1      21.988   5.008  50.641  1.00  0.00     0.009 C 
HETATM    6  C10 UNL     1      22.250   4.214  49.437  1.00  0.00     0.031 C 
HETATM    7  C11 UNL     1      22.534   2.783  49.650  1.00  0.00     0.127 C 
HETATM    8  N3  UNL     1      23.172   2.017  50.460  1.00  0.00    -0.186 NA
HETATM    9  C12 UNL     1      20.988   4.284  48.596  1.00  0.00     0.027 C 
HETATM   10  C13 UNL     1      20.632   5.671  48.147  1.00  0.00     0.058 C 
HETATM   11  C14 UNL     1      21.791   6.599  48.185  1.00  0.00     0.003 C 
HETATM   12  C15 UNL     1      21.601   7.905  48.308  1.00  0.00     0.028 C 
HETATM   13  N4  UNL     1      23.108   6.073  48.088  1.00  0.00    -0.392 N 
HETATM   14  C17 UNL     1      23.381   4.747  48.582  1.00  0.00     0.138 C 
HETATM   15  H21 UNL     1      23.867   6.628  47.670  1.00  0.00     0.159 HD
ENDROOT
BRANCH   1  16
HETATM   16  C6  UNL     1      25.063   1.389  51.863  1.00  0.00     0.154 A 
HETATM   17  C4  UNL     1      25.104   0.968  53.297  1.00  0.00     0.036 A 
HETATM   18  C3  UNL     1      26.349   1.400  54.004  1.00  0.00     0.017 A 
HETATM   19  C5  UNL     1      25.118  -0.564  53.371  1.00  0.00     0.017 C 
HETATM   20  C2  UNL     1      27.372   2.073  53.556  1.00  0.00     0.065 A 
HETATM   21  C20 UNL     1      27.322   2.482  52.145  1.00  0.00     0.048 A 
HETATM   22  C18 UNL     1      26.270   2.147  51.449  1.00  0.00     0.008 A 
BRANCH  20  23
HETATM   23  O1  UNL     1      28.475   2.414  54.321  1.00  0.00    -0.356 OA
HETATM   24  C1  UNL     1      29.418   1.375  54.582  1.00  0.00     0.210 C 
ENDBRANCH  20  23
BRANCH  22  25
HETATM   25  C19 UNL     1      26.246   2.570  50.037  1.00  0.00     0.268 C 
HETATM   26  O2  UNL     1      26.629   3.746  49.746  1.00  0.00    -0.302 OA
ENDBRANCH  22  25
ENDBRANCH   1  16
BRANCH  12  27
HETATM   27  C16 UNL     1      22.623   8.966  48.362  1.00  0.00     0.251 C 
HETATM   28  F1  UNL     1      23.397   8.939  49.503  1.00  0.00    -0.251 F 
ENDBRANCH  12  27
TORSDOF 4
ENDMDL
MODEL 7
REMARK VINA RESULT:      -6.9      6.742      9.399
REMARK  4 active torsions:
REMARK  status: ('A' for Active; 'I' for Inactive)
REMARK    1  A    between atoms: O1_2  and  C2_3 
REMARK    2  A    between atoms: C6_7  and  N1_8 
REMARK    3  A    between atoms: C15_19  and  C16_20 
REMARK    4  A    between atoms: C18_24  and  C19_25 
ROOT
HETATM    1  N1  UNL     1      28.762   7.221  47.937  1.00  0.00    -0.254 N 
HETATM    2  C7  UNL     1      29.063   5.871  48.272  1.00  0.00     0.228 C 
HETATM    3  N2  UNL     1      28.382   4.828  48.639  1.00  0.00    -0.255 NA
HETATM    4  C8  UNL     1      26.973   4.648  48.858  1.00  0.00     0.115 C 
HETATM    5  C9  UNL     1      25.948   5.483  48.990  1.00  0.00     0.009 C 
HETATM    6  C10 UNL     1      25.607   6.908  49.003  1.00  0.00     0.031 C 
HETATM    7  C11 UNL     1      26.378   7.770  48.088  1.00  0.00     0.127 C 
HETATM    8  N3  UNL     1      27.579   7.921  47.657  1.00  0.00    -0.186 NA
HETATM    9  C12 UNL     1      24.156   7.005  48.568  1.00  0.00     0.027 C 
HETATM   10  C13 UNL     1      23.197   6.308  49.488  1.00  0.00     0.058 C 
HETATM   11  C14 UNL     1      23.761   6.094  50.846  1.00  0.00     0.003 C 
HETATM   12  C15 UNL     1      23.309   5.113  51.612  1.00  0.00     0.028 C 
HETATM   13  N4  UNL     1      24.792   6.954  51.314  1.00  0.00    -0.392 N 
HETATM   14  C17 UNL     1      25.702   7.552  50.371  1.00  0.00     0.138 C 
HETATM   15  H21 UNL     1      24.894   7.152  52.319  1.00  0.00     0.159 HD
ENDROOT
BRANCH   1  16
HETATM   16  C6  UNL     1      30.003   8.011  47.889  1.00  0.00     0.154 A 
HETATM   17  C4  UNL     1      30.330   8.601  49.224  1.00  0.00     0.036 A 
HETATM   18  C3  UNL     1      30.338  10.096  49.224  1.00  0.00     0.017 A 
HETATM   19  C5  UNL     1      31.758   8.198  49.614  1.00  0.00     0.017 C 
HETATM   20  C2  UNL     1      30.104  10.931  48.250  1.00  0.00     0.065 A 
HETATM   21  C20 UNL     1      29.783  10.343  46.942  1.00  0.00     0.048 A 
HETATM   22  C18 UNL     1      29.755   9.041  46.849  1.00  0.00     0.008 A 
BRANCH  20  23
HETATM   23  O1  UNL     1      30.142  12.310  48.380  1.00  0.00    -0.356 OA
HETATM   24  C1  UNL     1      29.298  13.057  47.506  1.00  0.00     0.210 C 
ENDBRANCH  20  23
BRANCH  22  25
HETATM   25  C19 UNL     1      29.430   8.477  45.526  1.00  0.00     0.268 C 
HETATM   26  O2  UNL     1      30.366   7.965  44.835  1.00  0.00    -0.302 OA
ENDBRANCH  22  25
ENDBRANCH   1  16
BRANCH  12  27
HETATM   27  C16 UNL     1      23.746   4.756  52.975  1.00  0.00     0.251 C 
HETATM   28  F1  UNL     1      24.123   3.437  53.113  1.00  0.00    -0.251 F 
ENDBRANCH  12  27
TORSDOF 4
ENDMDL
MODEL 8
REMARK VINA RESULT:      -6.9      3.047      5.081
REMARK  4 active torsions:
REMARK  status: ('A' for Active; 'I' for Inactive)
REMARK    1  A    between atoms: O1_2  and  C2_3 
REMARK    2  A    between atoms: C6_7  and  N1_8 
REMARK    3  A    between atoms: C15_19  and  C16_20 
REMARK    4  A    between atoms: C18_24  and  C19_25 
ROOT
HETATM    1  N1  UNL     1      25.045   4.853  50.202  1.00  0.00    -0.254 N 
HETATM    2  C7  UNL     1      24.258   5.620  51.108  1.00  0.00     0.228 C 
HETATM    3  N2  UNL     1      23.676   5.404  52.249  1.00  0.00    -0.255 NA
HETATM    4  C8  UNL     1      23.610   4.226  53.069  1.00  0.00     0.115 C 
HETATM    5  C9  UNL     1      23.895   2.945  52.864  1.00  0.00     0.009 C 
HETATM    6  C10 UNL     1      24.385   2.014  51.843  1.00  0.00     0.031 C 
HETATM    7  C11 UNL     1      25.410   2.538  50.922  1.00  0.00     0.127 C 
HETATM    8  N3  UNL     1      25.695   3.612  50.276  1.00  0.00    -0.186 NA
HETATM    9  C12 UNL     1      25.025   0.858  52.590  1.00  0.00     0.027 C 
HETATM   10  C13 UNL     1      24.073   0.099  53.467  1.00  0.00     0.058 C 
HETATM   11  C14 UNL     1      22.654   0.296  53.076  1.00  0.00     0.003 C 
HETATM   12  C15 UNL     1      21.685   0.137  53.965  1.00  0.00     0.028 C 
HETATM   13  N4  UNL     1      22.345   0.658  51.736  1.00  0.00    -0.392 N 
HETATM   14  C17 UNL     1      23.294   1.427  50.971  1.00  0.00     0.138 C 
HETATM   15  H21 UNL     1      21.452   0.377  51.308  1.00  0.00     0.159 HD
ENDROOT
BRANCH   1  16
HETATM   16  C6  UNL     1      25.169   5.568  48.922  1.00  0.00     0.154 A 
HETATM   17  C4  UNL     1      25.901   6.862  49.085  1.00  0.00     0.036 A 
HETATM   18  C3  UNL     1      25.070   8.057  48.742  1.00  0.00     0.017 A 
HETATM   19  C5  UNL     1      27.077   6.902  48.101  1.00  0.00     0.017 C 
HETATM   20  C2  UNL     1      23.834   8.124  48.333  1.00  0.00     0.065 A 
HETATM   21  C20 UNL     1      23.123   6.847  48.175  1.00  0.00     0.048 A 
HETATM   22  C18 UNL     1      23.773   5.749  48.453  1.00  0.00     0.008 A 
BRANCH  20  23
HETATM   23  O1  UNL     1      23.171   9.306  48.046  1.00  0.00    -0.356 OA
HETATM   24  C1  UNL     1      21.834   9.423  48.532  1.00  0.00     0.210 C 
ENDBRANCH  20  23
BRANCH  22  25
HETATM   25  C19 UNL     1      23.037   4.482  48.287  1.00  0.00     0.268 C 
HETATM   26  O2  UNL     1      21.923   4.342  48.881  1.00  0.00    -0.302 OA
ENDBRANCH  22  25
ENDBRANCH   1  16
BRANCH  12  27
HETATM   27  C16 UNL     1      20.233   0.289  53.757  1.00  0.00     0.251 C 
HETATM   28  F1  UNL     1      19.612  -0.853  53.298  1.00  0.00    -0.251 F 
ENDBRANCH  12  27
TORSDOF 4
ENDMDL
MODEL 9
REMARK VINA RESULT:      -6.8      3.777      7.435
REMARK  4 active torsions:
REMARK  status: ('A' for Active; 'I' for Inactive)
REMARK    1  A    between atoms: O1_2  and  C2_3 
REMARK    2  A    between atoms: C6_7  and  N1_8 
REMARK    3  A    between atoms: C15_19  and  C16_20 
REMARK    4  A    between atoms: C18_24  and  C19_25 
ROOT
HETATM    1  N1  UNL     1      24.595   2.416  52.596  1.00  0.00    -0.254 N 
HETATM    2  C7  UNL     1      24.147   3.518  53.379  1.00  0.00     0.228 C 
HETATM    3  N2  UNL     1      23.505   4.623  53.150  1.00  0.00    -0.255 NA
HETATM    4  C8  UNL     1      22.977   5.175  51.933  1.00  0.00     0.115 C 
HETATM    5  C9  UNL     1      23.149   4.896  50.645  1.00  0.00     0.009 C 
HETATM    6  C10 UNL     1      23.868   3.995  49.739  1.00  0.00     0.031 C 
HETATM    7  C11 UNL     1      24.059   2.612  50.213  1.00  0.00     0.127 C 
HETATM    8  N3  UNL     1      24.337   1.972  51.291  1.00  0.00    -0.186 NA
HETATM    9  C12 UNL     1      23.034   3.908  48.473  1.00  0.00     0.027 C 
HETATM   10  C13 UNL     1      22.870   5.219  47.762  1.00  0.00     0.058 C 
HETATM   11  C14 UNL     1      23.913   6.208  48.136  1.00  0.00     0.003 C 
HETATM   12  C15 UNL     1      23.678   7.506  48.021  1.00  0.00     0.028 C 
HETATM   13  N4  UNL     1      25.168   5.746  48.619  1.00  0.00    -0.392 N 
HETATM   14  C17 UNL     1      25.238   4.496  49.333  1.00  0.00     0.138 C 
HETATM   15  H21 UNL     1      26.025   6.295  48.464  1.00  0.00     0.159 HD
ENDROOT
BRANCH   1  16
HETATM   16  C6  UNL     1      25.535   1.598  53.380  1.00  0.00     0.154 A 
HETATM   17  C4  UNL     1      26.878   1.527  52.725  1.00  0.00     0.036 A 
HETATM   18  C3  UNL     1      27.269   0.140  52.327  1.00  0.00     0.017 A 
HETATM   19  C5  UNL     1      27.951   1.968  53.729  1.00  0.00     0.017 C 
HETATM   20  C2  UNL     1      26.619  -0.982  52.468  1.00  0.00     0.065 A 
HETATM   21  C20 UNL     1      25.301  -0.902  53.113  1.00  0.00     0.048 A 
HETATM   22  C18 UNL     1      24.879   0.273  53.494  1.00  0.00     0.008 A 
BRANCH  20  23
HETATM   23  O1  UNL     1      27.095  -2.215  52.052  1.00  0.00    -0.356 OA
HETATM   24  C1  UNL     1      28.179  -2.767  52.799  1.00  0.00     0.210 C 
ENDBRANCH  20  23
BRANCH  22  25
HETATM   25  C19 UNL     1      23.553   0.325  54.137  1.00  0.00     0.268 C 
HETATM   26  O2  UNL     1      22.949  -0.767  54.379  1.00  0.00    -0.302 OA
ENDBRANCH  22  25
ENDBRANCH   1  16
BRANCH  12  27
HETATM   27  C16 UNL     1      24.588   8.621  48.340  1.00  0.00     0.251 C 
HETATM   28  F1  UNL     1      25.695   8.691  47.521  1.00  0.00    -0.251 F 
ENDBRANCH  12  27
TORSDOF 4
ENDMDL
