MODEL 1
REMARK VINA RESULT:      -7.3      0.000      0.000
REMARK  7 active torsions:
REMARK  status: ('A' for Active; 'I' for Inactive)
REMARK    1  A    between atoms: C1_2  and  C2_3 
REMARK    2  A    between atoms: C1_2  and  C8_10 
REMARK    3  A    between atoms: C11_13  and  N1_14 
REMARK    4  A    between atoms: N1_14  and  C12_15 
REMARK    5  A    between atoms: N1_14  and  C14_18 
REMARK    6  A    between atoms: C12_15  and  C13_16 
REMARK    7  A    between atoms: C14_18  and  C15_19 
ROOT
HETATM    1  C8  UNL     1      23.102  -0.538  53.829  1.00  0.00     0.015 A 
HETATM    2  C9  UNL     1      21.930  -0.993  54.449  1.00  0.00     0.018 A 
HETATM    3  C10 UNL     1      20.666  -0.767  53.896  1.00  0.00     0.030 A 
HETATM    4  C11 UNL     1      20.531  -0.083  52.712  1.00  0.00     0.030 A 
HETATM    5  C16 UNL     1      21.707   0.339  52.148  1.00  0.00     0.030 A 
HETATM    6  C17 UNL     1      22.966   0.144  52.649  1.00  0.00     0.018 A 
ENDROOT
BRANCH   1   7
HETATM    7  C1  UNL     1      24.354  -0.801  54.492  1.00  0.00     0.192 C 
HETATM    8  O1  UNL     1      24.144  -1.297  55.663  1.00  0.00    -0.287 OA
BRANCH   7   9
HETATM    9  C2  UNL     1      25.728  -0.654  54.184  1.00  0.00     0.015 A 
HETATM   10  C3  UNL     1      26.487   0.130  55.062  1.00  0.00     0.017 A 
HETATM   11  C4  UNL     1      27.826   0.293  54.816  1.00  0.00     0.025 A 
HETATM   12  C5  UNL     1      28.407  -0.300  53.732  1.00  0.00     0.034 A 
HETATM   13 CL1  UNL     1      30.119  -0.132  53.352  1.00  0.00    -0.084 Cl
HETATM   14  C6  UNL     1      27.675  -1.069  52.866  1.00  0.00     0.025 A 
HETATM   15  C7  UNL     1      26.344  -1.232  53.110  1.00  0.00     0.017 A 
ENDBRANCH   7   9
ENDBRANCH   1   7
BRANCH   4  16
HETATM   16  N1  UNL     1      19.232   0.101  52.173  1.00  0.00    -0.379 N 
BRANCH  16  17
HETATM   17  C12 UNL     1      18.946   1.402  51.613  1.00  0.00     0.138 C 
BRANCH  17  18
HETATM   18  C13 UNL     1      18.579   1.355  50.162  1.00  0.00     0.134 C 
HETATM   19 CL2  UNL     1      20.041   1.778  49.214  1.00  0.00    -0.129 Cl
ENDBRANCH  17  18
ENDBRANCH  16  17
BRANCH  16  20
HETATM   20  C14 UNL     1      18.075  -0.671  51.958  1.00  0.00     0.138 C 
BRANCH  20  21
HETATM   21  C15 UNL     1      17.284  -1.107  53.150  1.00  0.00     0.134 C 
HETATM   22 CL3  UNL     1      17.688  -2.810  53.576  1.00  0.00    -0.129 Cl
ENDBRANCH  20  21
ENDBRANCH  16  20
ENDBRANCH   4  16
TORSDOF 7
ENDMDL
MODEL 2
REMARK VINA RESULT:      -7.0      2.385      3.034
REMARK  7 active torsions:
REMARK  status: ('A' for Active; 'I' for Inactive)
REMARK    1  A    between atoms: C1_2  and  C2_3 
REMARK    2  A    between atoms: C1_2  and  C8_10 
REMARK    3  A    between atoms: C11_13  and  N1_14 
REMARK    4  A    between atoms: N1_14  and  C12_15 
REMARK    5  A    between atoms: N1_14  and  C14_18 
REMARK    6  A    between atoms: C12_15  and  C13_16 
REMARK    7  A    between atoms: C14_18  and  C15_19 
ROOT
HETATM    1  C8  UNL     1      23.330  -0.053  53.276  1.00  0.00     0.015 A 
HETATM    2  C9  UNL     1      23.595   1.010  52.400  1.00  0.00     0.018 A 
HETATM    3  C10 UNL     1      22.610   1.539  51.561  1.00  0.00     0.030 A 
HETATM    4  C11 UNL     1      21.334   1.025  51.567  1.00  0.00     0.030 A 
HETATM    5  C16 UNL     1      21.130  -0.011  52.440  1.00  0.00     0.030 A 
HETATM    6  C17 UNL     1      22.059  -0.563  53.281  1.00  0.00     0.018 A 
ENDROOT
BRANCH   1   7
HETATM    7  C1  UNL     1      24.420  -0.540  54.083  1.00  0.00     0.192 C 
HETATM    8  O1  UNL     1      23.969  -1.146  55.126  1.00  0.00    -0.287 OA
BRANCH   7   9
HETATM    9  C2  UNL     1      25.834  -0.520  54.014  1.00  0.00     0.015 A 
HETATM   10  C3  UNL     1      26.421  -1.248  52.970  1.00  0.00     0.017 A 
HETATM   11  C4  UNL     1      27.786  -1.250  52.850  1.00  0.00     0.025 A 
HETATM   12  C5  UNL     1      28.559  -0.555  53.735  1.00  0.00     0.034 A 
HETATM   13 CL1  UNL     1      30.318  -0.516  53.646  1.00  0.00    -0.084 Cl
HETATM   14  C6  UNL     1      27.998   0.160  54.760  1.00  0.00     0.025 A 
HETATM   15  C7  UNL     1      26.640   0.164  54.880  1.00  0.00     0.017 A 
ENDBRANCH   7   9
ENDBRANCH   1   7
BRANCH   4  16
HETATM   16  N1  UNL     1      20.359   1.609  50.718  1.00  0.00    -0.379 N 
BRANCH  16  17
HETATM   17  C12 UNL     1      20.329   1.136  49.353  1.00  0.00     0.138 C 
BRANCH  17  18
HETATM   18  C13 UNL     1      20.641   2.204  48.350  1.00  0.00     0.134 C 
HETATM   19 CL2  UNL     1      22.343   1.985  47.829  1.00  0.00    -0.129 Cl
ENDBRANCH  17  18
ENDBRANCH  16  17
BRANCH  16  20
HETATM   20  C14 UNL     1      19.306   2.536  50.825  1.00  0.00     0.138 C 
BRANCH  20  21
HETATM   21  C15 UNL     1      19.548   3.797  51.592  1.00  0.00     0.134 C 
HETATM   22 CL3  UNL     1      20.949   4.690  50.894  1.00  0.00    -0.129 Cl
ENDBRANCH  20  21
ENDBRANCH  16  20
ENDBRANCH   4  16
TORSDOF 7
ENDMDL
MODEL 3
REMARK VINA RESULT:      -7.0      5.778      7.472
REMARK  7 active torsions:
REMARK  status: ('A' for Active; 'I' for Inactive)
REMARK    1  A    between atoms: C1_2  and  C2_3 
REMARK    2  A    between atoms: C1_2  and  C8_10 
REMARK    3  A    between atoms: C11_13  and  N1_14 
REMARK    4  A    between atoms: N1_14  and  C12_15 
REMARK    5  A    between atoms: N1_14  and  C14_18 
REMARK    6  A    between atoms: C12_15  and  C13_16 
REMARK    7  A    between atoms: C14_18  and  C15_19 
ROOT
HETATM    1  C8  UNL     1      25.347   3.138  50.393  1.00  0.00     0.015 A 
HETATM    2  C9  UNL     1      24.084   2.799  50.898  1.00  0.00     0.018 A 
HETATM    3  C10 UNL     1      23.909   1.759  51.815  1.00  0.00     0.030 A 
HETATM    4  C11 UNL     1      24.986   1.027  52.257  1.00  0.00     0.030 A 
HETATM    5  C16 UNL     1      26.195   1.399  51.733  1.00  0.00     0.030 A 
HETATM    6  C17 UNL     1      26.418   2.408  50.834  1.00  0.00     0.018 A 
ENDROOT
BRANCH   1   7
HETATM    7  C1  UNL     1      25.417   4.211  49.434  1.00  0.00     0.192 C 
HETATM    8  O1  UNL     1      24.254   4.432  48.925  1.00  0.00    -0.287 OA
BRANCH   7   9
HETATM    9  C2  UNL     1      26.424   5.065  48.923  1.00  0.00     0.015 A 
HETATM   10  C3  UNL     1      26.041   6.381  48.633  1.00  0.00     0.017 A 
HETATM   11  C4  UNL     1      26.981   7.253  48.148  1.00  0.00     0.025 A 
HETATM   12  C5  UNL     1      28.269   6.843  47.952  1.00  0.00     0.034 A 
HETATM   13 CL1  UNL     1      29.529   7.906  47.330  1.00  0.00    -0.084 Cl
HETATM   14  C6  UNL     1      28.655   5.559  48.232  1.00  0.00     0.025 A 
HETATM   15  C7  UNL     1      27.722   4.691  48.715  1.00  0.00     0.017 A 
ENDBRANCH   7   9
ENDBRANCH   1   7
BRANCH   4  16
HETATM   16  N1  UNL     1      24.767  -0.003  53.208  1.00  0.00    -0.379 N 
BRANCH  16  17
HETATM   17  C12 UNL     1      23.463  -0.625  53.194  1.00  0.00     0.138 C 
BRANCH  17  18
HETATM   18  C13 UNL     1      22.823  -0.688  54.547  1.00  0.00     0.134 C 
HETATM   19 CL2  UNL     1      21.455  -1.843  54.451  1.00  0.00    -0.129 Cl
ENDBRANCH  17  18
ENDBRANCH  16  17
BRANCH  16  20
HETATM   20  C14 UNL     1      25.505  -0.682  54.196  1.00  0.00     0.138 C 
BRANCH  20  21
HETATM   21  C15 UNL     1      26.393   0.120  55.093  1.00  0.00     0.134 C 
HETATM   22 CL3  UNL     1      28.103   0.011  54.535  1.00  0.00    -0.129 Cl
ENDBRANCH  20  21
ENDBRANCH  16  20
ENDBRANCH   4  16
TORSDOF 7
ENDMDL
MODEL 4
REMARK VINA RESULT:      -6.9      1.541      2.837
REMARK  7 active torsions:
REMARK  status: ('A' for Active; 'I' for Inactive)
REMARK    1  A    between atoms: C1_2  and  C2_3 
REMARK    2  A    between atoms: C1_2  and  C8_10 
REMARK    3  A    between atoms: C11_13  and  N1_14 
REMARK    4  A    between atoms: N1_14  and  C12_15 
REMARK    5  A    between atoms: N1_14  and  C14_18 
REMARK    6  A    between atoms: C12_15  and  C13_16 
REMARK    7  A    between atoms: C14_18  and  C15_19 
ROOT
HETATM    1  C8  UNL     1      23.239   0.215  53.340  1.00  0.00     0.015 A 
HETATM    2  C9  UNL     1      21.956   0.075  53.887  1.00  0.00     0.018 A 
HETATM    3  C10 UNL     1      20.836   0.680  53.308  1.00  0.00     0.030 A 
HETATM    4  C11 UNL     1      20.961   1.442  52.171  1.00  0.00     0.030 A 
HETATM    5  C16 UNL     1      22.236   1.546  51.680  1.00  0.00     0.030 A 
HETATM    6  C17 UNL     1      23.362   0.975  52.208  1.00  0.00     0.018 A 
ENDROOT
BRANCH   1   7
HETATM    7  C1  UNL     1      24.331  -0.429  54.026  1.00  0.00     0.192 C 
HETATM    8  O1  UNL     1      23.890  -1.120  55.020  1.00  0.00    -0.287 OA
BRANCH   7   9
HETATM    9  C2  UNL     1      25.738  -0.491  53.882  1.00  0.00     0.015 A 
HETATM   10  C3  UNL     1      26.497   0.212  54.827  1.00  0.00     0.017 A 
HETATM   11  C4  UNL     1      27.864   0.174  54.740  1.00  0.00     0.025 A 
HETATM   12  C5  UNL     1      28.474  -0.539  53.748  1.00  0.00     0.034 A 
HETATM   13 CL1  UNL     1      30.225  -0.631  53.572  1.00  0.00    -0.084 Cl
HETATM   14  C6  UNL     1      27.743  -1.231  52.818  1.00  0.00     0.025 A 
HETATM   15  C7  UNL     1      26.383  -1.194  52.904  1.00  0.00     0.017 A 
ENDBRANCH   7   9
ENDBRANCH   1   7
BRANCH   4  16
HETATM   16  N1  UNL     1      19.795   2.016  51.602  1.00  0.00    -0.379 N 
BRANCH  16  17
HETATM   17  C12 UNL     1      18.962   1.135  50.818  1.00  0.00     0.138 C 
BRANCH  17  18
HETATM   18  C13 UNL     1      17.630   0.865  51.447  1.00  0.00     0.134 C 
HETATM   19 CL2  UNL     1      17.671  -0.796  52.122  1.00  0.00    -0.129 Cl
ENDBRANCH  17  18
ENDBRANCH  16  17
BRANCH  16  20
HETATM   20  C14 UNL     1      19.134   3.259  51.614  1.00  0.00     0.138 C 
BRANCH  20  21
HETATM   21  C15 UNL     1      19.626   4.331  50.695  1.00  0.00     0.134 C 
HETATM   22 CL3  UNL     1      21.155   5.042  51.329  1.00  0.00    -0.129 Cl
ENDBRANCH  20  21
ENDBRANCH  16  20
ENDBRANCH   4  16
TORSDOF 7
ENDMDL
MODEL 5
REMARK VINA RESULT:      -6.9      2.327      3.195
REMARK  7 active torsions:
REMARK  status: ('A' for Active; 'I' for Inactive)
REMARK    1  A    between atoms: C1_2  and  C2_3 
REMARK    2  A    between atoms: C1_2  and  C8_10 
REMARK    3  A    between atoms: C11_13  and  N1_14 
REMARK    4  A    between atoms: N1_14  and  C12_15 
REMARK    5  A    between atoms: N1_14  and  C14_18 
REMARK    6  A    between atoms: C12_15  and  C13_16 
REMARK    7  A    between atoms: C14_18  and  C15_19 
ROOT
HETATM    1  C8  UNL     1      23.254   0.363  53.052  1.00  0.00     0.015 A 
HETATM    2  C9  UNL     1      23.518   1.686  52.669  1.00  0.00     0.018 A 
HETATM    3  C10 UNL     1      22.600   2.438  51.931  1.00  0.00     0.030 A 
HETATM    4  C11 UNL     1      21.394   1.897  51.552  1.00  0.00     0.030 A 
HETATM    5  C16 UNL     1      21.188   0.603  51.951  1.00  0.00     0.030 A 
HETATM    6  C17 UNL     1      22.053  -0.175  52.674  1.00  0.00     0.018 A 
ENDROOT
BRANCH   1   7
HETATM    7  C1  UNL     1      24.276  -0.334  53.792  1.00  0.00     0.192 C 
HETATM    8  O1  UNL     1      23.748  -1.026  54.742  1.00  0.00    -0.287 OA
BRANCH   7   9
HETATM    9  C2  UNL     1      25.686  -0.447  53.734  1.00  0.00     0.015 A 
HETATM   10  C3  UNL     1      26.412   0.277  54.690  1.00  0.00     0.017 A 
HETATM   11  C4  UNL     1      27.780   0.192  54.686  1.00  0.00     0.025 A 
HETATM   12  C5  UNL     1      28.422  -0.585  53.765  1.00  0.00     0.034 A 
HETATM   13 CL1  UNL     1      30.176  -0.738  53.698  1.00  0.00    -0.084 Cl
HETATM   14  C6  UNL     1      27.724  -1.296  52.825  1.00  0.00     0.025 A 
HETATM   15  C7  UNL     1      26.363  -1.213  52.828  1.00  0.00     0.017 A 
ENDBRANCH   7   9
ENDBRANCH   1   7
BRANCH   4  16
HETATM   16  N1  UNL     1      20.481   2.704  50.826  1.00  0.00    -0.379 N 
BRANCH  16  17
HETATM   17  C12 UNL     1      19.449   3.359  51.596  1.00  0.00     0.138 C 
BRANCH  17  18
HETATM   18  C13 UNL     1      18.080   2.806  51.342  1.00  0.00     0.134 C 
HETATM   19 CL2  UNL     1      16.890   4.084  51.749  1.00  0.00    -0.129 Cl
ENDBRANCH  17  18
ENDBRANCH  16  17
BRANCH  16  20
HETATM   20  C14 UNL     1      20.295   3.129  49.497  1.00  0.00     0.138 C 
BRANCH  20  21
HETATM   21  C15 UNL     1      20.500   2.132  48.401  1.00  0.00     0.134 C 
HETATM   22 CL3  UNL     1      22.258   1.927  48.067  1.00  0.00    -0.129 Cl
ENDBRANCH  20  21
ENDBRANCH  16  20
ENDBRANCH   4  16
TORSDOF 7
ENDMDL
MODEL 6
REMARK VINA RESULT:      -6.9      1.710      2.451
REMARK  7 active torsions:
REMARK  status: ('A' for Active; 'I' for Inactive)
REMARK    1  A    between atoms: C1_2  and  C2_3 
REMARK    2  A    between atoms: C1_2  and  C8_10 
REMARK    3  A    between atoms: C11_13  and  N1_14 
REMARK    4  A    between atoms: N1_14  and  C12_15 
REMARK    5  A    between atoms: N1_14  and  C14_18 
REMARK    6  A    between atoms: C12_15  and  C13_16 
REMARK    7  A    between atoms: C14_18  and  C15_19 
ROOT
HETATM    1  C8  UNL     1      23.204   0.095  53.542  1.00  0.00     0.015 A 
HETATM    2  C9  UNL     1      23.469   1.154  52.662  1.00  0.00     0.018 A 
HETATM    3  C10 UNL     1      22.452   1.787  51.941  1.00  0.00     0.030 A 
HETATM    4  C11 UNL     1      21.144   1.386  52.074  1.00  0.00     0.030 A 
HETATM    5  C16 UNL     1      20.942   0.349  52.946  1.00  0.00     0.030 A 
HETATM    6  C17 UNL     1      21.901  -0.304  53.673  1.00  0.00     0.018 A 
ENDROOT
BRANCH   1   7
HETATM    7  C1  UNL     1      24.325  -0.506  54.219  1.00  0.00     0.192 C 
HETATM    8  O1  UNL     1      23.916  -1.252  55.187  1.00  0.00    -0.287 OA
BRANCH   7   9
HETATM    9  C2  UNL     1      25.734  -0.483  54.087  1.00  0.00     0.015 A 
HETATM   10  C3  UNL     1      26.275  -1.201  53.012  1.00  0.00     0.017 A 
HETATM   11  C4  UNL     1      27.634  -1.200  52.831  1.00  0.00     0.025 A 
HETATM   12  C5  UNL     1      28.444  -0.510  53.686  1.00  0.00     0.034 A 
HETATM   13 CL1  UNL     1      30.198  -0.467  53.517  1.00  0.00    -0.084 Cl
HETATM   14  C6  UNL     1      27.928   0.195  54.740  1.00  0.00     0.025 A 
HETATM   15  C7  UNL     1      26.577   0.196  54.921  1.00  0.00     0.017 A 
ENDBRANCH   7   9
ENDBRANCH   1   7
BRANCH   4  16
HETATM   16  N1  UNL     1      20.141   2.074  51.344  1.00  0.00    -0.379 N 
BRANCH  16  17
HETATM   17  C12 UNL     1      20.598   3.090  50.424  1.00  0.00     0.138 C 
BRANCH  17  18
HETATM   18  C13 UNL     1      20.171   4.473  50.810  1.00  0.00     0.134 C 
HETATM   19 CL2  UNL     1      21.593   5.310  51.508  1.00  0.00    -0.129 Cl
ENDBRANCH  17  18
ENDBRANCH  16  17
BRANCH  16  20
HETATM   20  C14 UNL     1      18.742   2.027  51.199  1.00  0.00     0.138 C 
BRANCH  20  21
HETATM   21  C15 UNL     1      18.159   0.986  50.297  1.00  0.00     0.134 C 
HETATM   22 CL3  UNL     1      17.561  -0.411  51.264  1.00  0.00    -0.129 Cl
ENDBRANCH  20  21
ENDBRANCH  16  20
ENDBRANCH   4  16
TORSDOF 7
ENDMDL
MODEL 7
REMARK VINA RESULT:      -6.7      6.000      7.810
REMARK  7 active torsions:
REMARK  status: ('A' for Active; 'I' for Inactive)
REMARK    1  A    between atoms: C1_2  and  C2_3 
REMARK    2  A    between atoms: C1_2  and  C8_10 
REMARK    3  A    between atoms: C11_13  and  N1_14 
REMARK    4  A    between atoms: N1_14  and  C12_15 
REMARK    5  A    between atoms: N1_14  and  C14_18 
REMARK    6  A    between atoms: C12_15  and  C13_16 
REMARK    7  A    between atoms: C14_18  and  C15_19 
ROOT
HETATM    1  C8  UNL     1      25.454   3.495  50.606  1.00  0.00     0.015 A 
HETATM    2  C9  UNL     1      26.490   2.551  50.655  1.00  0.00     0.018 A 
HETATM    3  C10 UNL     1      26.581   1.607  51.682  1.00  0.00     0.030 A 
HETATM    4  C11 UNL     1      25.645   1.574  52.689  1.00  0.00     0.030 A 
HETATM    5  C16 UNL     1      24.656   2.517  52.592  1.00  0.00     0.030 A 
HETATM    6  C17 UNL     1      24.524   3.462  51.609  1.00  0.00     0.018 A 
ENDROOT
BRANCH   1   7
HETATM    7  C1  UNL     1      25.464   4.440  49.518  1.00  0.00     0.192 C 
HETATM    8  O1  UNL     1      24.303   4.496  48.962  1.00  0.00    -0.287 OA
BRANCH   7   9
HETATM    9  C2  UNL     1      26.412   5.306  48.922  1.00  0.00     0.015 A 
HETATM   10  C3  UNL     1      27.705   4.794  48.747  1.00  0.00     0.017 A 
HETATM   11  C4  UNL     1      28.659   5.587  48.163  1.00  0.00     0.025 A 
HETATM   12  C5  UNL     1      28.350   6.855  47.758  1.00  0.00     0.034 A 
HETATM   13 CL1  UNL     1      29.523   7.931  47.003  1.00  0.00    -0.084 Cl
HETATM   14  C6  UNL     1      27.090   7.366  47.923  1.00  0.00     0.025 A 
HETATM   15  C7  UNL     1      26.141   6.579  48.504  1.00  0.00     0.017 A 
ENDBRANCH   7   9
ENDBRANCH   1   7
BRANCH   4  16
HETATM   16  N1  UNL     1      25.761   0.583  53.697  1.00  0.00    -0.379 N 
BRANCH  16  17
HETATM   17  C12 UNL     1      26.971   0.605  54.485  1.00  0.00     0.138 C 
BRANCH  17  18
HETATM   18  C13 UNL     1      27.955  -0.453  54.089  1.00  0.00     0.134 C 
HETATM   19 CL2  UNL     1      29.482   0.365  53.628  1.00  0.00    -0.129 Cl
ENDBRANCH  17  18
ENDBRANCH  16  17
BRANCH  16  20
HETATM   20  C14 UNL     1      24.975  -0.456  54.231  1.00  0.00     0.138 C 
BRANCH  20  21
HETATM   21  C15 UNL     1      23.629  -0.706  53.629  1.00  0.00     0.134 C 
HETATM   22 CL3  UNL     1      22.383  -0.838  54.923  1.00  0.00    -0.129 Cl
ENDBRANCH  20  21
ENDBRANCH  16  20
ENDBRANCH   4  16
TORSDOF 7
ENDMDL
MODEL 8
REMARK VINA RESULT:      -6.5      2.760      8.289
REMARK  7 active torsions:
REMARK  status: ('A' for Active; 'I' for Inactive)
REMARK    1  A    between atoms: C1_2  and  C2_3 
REMARK    2  A    between atoms: C1_2  and  C8_10 
REMARK    3  A    between atoms: C11_13  and  N1_14 
REMARK    4  A    between atoms: N1_14  and  C12_15 
REMARK    5  A    between atoms: N1_14  and  C14_18 
REMARK    6  A    between atoms: C12_15  and  C13_16 
REMARK    7  A    between atoms: C14_18  and  C15_19 
ROOT
HETATM    1  C8  UNL     1      21.612   0.513  52.699  1.00  0.00     0.015 A 
HETATM    2  C9  UNL     1      22.384   1.282  51.816  1.00  0.00     0.018 A 
HETATM    3  C10 UNL     1      23.781   1.219  51.809  1.00  0.00     0.030 A 
HETATM    4  C11 UNL     1      24.449   0.391  52.680  1.00  0.00     0.030 A 
HETATM    5  C16 UNL     1      23.648  -0.336  53.519  1.00  0.00     0.030 A 
HETATM    6  C17 UNL     1      22.279  -0.310  53.565  1.00  0.00     0.018 A 
ENDROOT
BRANCH   1   7
HETATM    7  C1  UNL     1      20.181   0.668  52.642  1.00  0.00     0.192 C 
HETATM    8  O1  UNL     1      19.868   1.916  52.574  1.00  0.00    -0.287 OA
BRANCH   7   9
HETATM    9  C2  UNL     1      19.056  -0.192  52.641  1.00  0.00     0.015 A 
HETATM   10  C3  UNL     1      18.075   0.061  51.673  1.00  0.00     0.017 A 
HETATM   11  C4  UNL     1      16.971  -0.751  51.620  1.00  0.00     0.025 A 
HETATM   12  C5  UNL     1      16.834  -1.788  52.498  1.00  0.00     0.034 A 
HETATM   13 CL1  UNL     1      15.443  -2.869  52.492  1.00  0.00    -0.084 Cl
HETATM   14  C6  UNL     1      17.786  -2.045  53.449  1.00  0.00     0.025 A 
HETATM   15  C7  UNL     1      18.884  -1.239  53.502  1.00  0.00     0.017 A 
ENDBRANCH   7   9
ENDBRANCH   1   7
BRANCH   4  16
HETATM   16  N1  UNL     1      25.866   0.339  52.621  1.00  0.00    -0.379 N 
BRANCH  16  17
HETATM   17  C12 UNL     1      26.511  -0.612  53.497  1.00  0.00     0.138 C 
BRANCH  17  18
HETATM   18  C13 UNL     1      27.177  -1.734  52.763  1.00  0.00     0.134 C 
HETATM   19 CL2  UNL     1      28.906  -1.747  53.236  1.00  0.00    -0.129 Cl
ENDBRANCH  17  18
ENDBRANCH  16  17
BRANCH  16  20
HETATM   20  C14 UNL     1      26.900   0.940  51.880  1.00  0.00     0.138 C 
BRANCH  20  21
HETATM   21  C15 UNL     1      26.919   2.431  51.772  1.00  0.00     0.134 C 
HETATM   22 CL3  UNL     1      26.522   2.939  50.090  1.00  0.00    -0.129 Cl
ENDBRANCH  20  21
ENDBRANCH  16  20
ENDBRANCH   4  16
TORSDOF 7
ENDMDL
MODEL 9
REMARK VINA RESULT:      -6.5      5.435      6.706
REMARK  7 active torsions:
REMARK  status: ('A' for Active; 'I' for Inactive)
REMARK    1  A    between atoms: C1_2  and  C2_3 
REMARK    2  A    between atoms: C1_2  and  C8_10 
REMARK    3  A    between atoms: C11_13  and  N1_14 
REMARK    4  A    between atoms: N1_14  and  C12_15 
REMARK    5  A    between atoms: N1_14  and  C14_18 
REMARK    6  A    between atoms: C12_15  and  C13_16 
REMARK    7  A    between atoms: C14_18  and  C15_19 
ROOT
HETATM    1  C8  UNL     1      24.037   3.443  50.604  1.00  0.00     0.015 A 
HETATM    2  C9  UNL     1      24.477   3.520  51.934  1.00  0.00     0.018 A 
HETATM    3  C10 UNL     1      24.190   2.518  52.866  1.00  0.00     0.030 A 
HETATM    4  C11 UNL     1      23.458   1.413  52.503  1.00  0.00     0.030 A 
HETATM    5  C16 UNL     1      23.054   1.388  51.194  1.00  0.00     0.030 A 
HETATM    6  C17 UNL     1      23.308   2.341  50.245  1.00  0.00     0.018 A 
ENDROOT
BRANCH   1   7
HETATM    7  C1  UNL     1      24.365   4.539  49.729  1.00  0.00     0.192 C 
HETATM    8  O1  UNL     1      23.292   5.124  49.321  1.00  0.00    -0.287 OA
BRANCH   7   9
HETATM    9  C2  UNL     1      25.549   5.122  49.216  1.00  0.00     0.015 A 
HETATM   10  C3  UNL     1      26.679   4.296  49.156  1.00  0.00     0.017 A 
HETATM   11  C4  UNL     1      27.848   4.808  48.655  1.00  0.00     0.025 A 
HETATM   12  C5  UNL     1      27.907   6.102  48.223  1.00  0.00     0.034 A 
HETATM   13 CL1  UNL     1      29.375   6.827  47.572  1.00  0.00    -0.084 Cl
HETATM   14  C6  UNL     1      26.810   6.920  48.278  1.00  0.00     0.025 A 
HETATM   15  C7  UNL     1      25.647   6.412  48.775  1.00  0.00     0.017 A 
ENDBRANCH   7   9
ENDBRANCH   1   7
BRANCH   4  16
HETATM   16  N1  UNL     1      23.213   0.408  53.474  1.00  0.00    -0.379 N 
BRANCH  16  17
HETATM   17  C12 UNL     1      21.887   0.377  54.046  1.00  0.00     0.138 C 
BRANCH  17  18
HETATM   18  C13 UNL     1      21.063  -0.780  53.570  1.00  0.00     0.134 C 
HETATM   19 CL2  UNL     1      19.738  -0.127  52.555  1.00  0.00    -0.129 Cl
ENDBRANCH  17  18
ENDBRANCH  16  17
BRANCH  16  20
HETATM   20  C14 UNL     1      23.904  -0.675  54.050  1.00  0.00     0.138 C 
BRANCH  20  21
HETATM   21  C15 UNL     1      25.377  -0.778  53.818  1.00  0.00     0.134 C 
HETATM   22 CL3  UNL     1      26.263   0.306  54.952  1.00  0.00    -0.129 Cl
ENDBRANCH  20  21
ENDBRANCH  16  20
ENDBRANCH   4  16
TORSDOF 7
ENDMDL
