MODEL 1
REMARK VINA RESULT:      -8.2      0.000      0.000
REMARK  6 active torsions:
REMARK  status: ('A' for Active; 'I' for Inactive)
REMARK    1  A    between atoms: O1_2  and  C2_3 
REMARK    2  A    between atoms: C5_6  and  N1_7 
REMARK    3  A    between atoms: N1_7  and  C6_8 
REMARK       I    between atoms: N1_7  and  C13_17 
REMARK    4  A    between atoms: C6_8  and  C7_9 
REMARK    5  A    between atoms: C12_15  and  O2_16 
REMARK       I    between atoms: C13_17  and  N2_19 
REMARK    6  A    between atoms: N2_19  and  C14_20 
ROOT
HETATM    1  N1  UNL     1      25.148   2.375  52.349  1.00  0.00    -0.295 N 
HETATM    2  C13 UNL     1      25.808   3.200  51.410  1.00  0.00     0.327 C 
HETATM    3  O3  UNL     1      26.971   2.726  51.261  1.00  0.00    -0.246 OA
HETATM    4  N2  UNL     1      25.307   4.345  50.738  1.00  0.00    -0.312 N 
HETATM    5  H12 UNL     1      24.327   4.603  50.976  1.00  0.00     0.170 HD
ENDROOT
BRANCH   1   6
HETATM    6  C5  UNL     1      26.103   1.361  52.733  1.00  0.00     0.039 A 
HETATM    7  C4  UNL     1      26.078   0.170  52.036  1.00  0.00     0.032 A 
HETATM    8  C3  UNL     1      26.979  -0.816  52.376  1.00  0.00     0.039 A 
HETATM    9  C2  UNL     1      27.861  -0.526  53.416  1.00  0.00     0.068 A 
HETATM   10  C20 UNL     1      27.887   0.657  54.110  1.00  0.00     0.039 A 
HETATM   11  C19 UNL     1      26.983   1.642  53.766  1.00  0.00     0.032 A 
BRANCH   9  12
HETATM   12  O1  UNL     1      28.815  -1.471  53.833  1.00  0.00    -0.356 OA
HETATM   13  C1  UNL     1      30.167  -1.075  53.832  1.00  0.00     0.210 C 
ENDBRANCH   9  12
ENDBRANCH   1   6
BRANCH   1  14
HETATM   14  C6  UNL     1      23.913   2.163  53.047  1.00  0.00     0.175 C 
BRANCH  14  15
HETATM   15  C7  UNL     1      22.736   1.953  52.175  1.00  0.00    -0.005 A 
HETATM   16  C8  UNL     1      22.328   0.623  51.987  1.00  0.00     0.012 A 
HETATM   17  C9  UNL     1      21.251   0.233  51.201  1.00  0.00     0.002 A 
HETATM   18  C10 UNL     1      20.532   1.221  50.562  1.00  0.00     0.022 A 
HETATM   19  C11 UNL     1      20.912   2.516  50.733  1.00  0.00     0.044 A 
HETATM   20 BR1  UNL     1      19.904   3.869  49.839  1.00  0.00    -0.048 Br
HETATM   21  C12 UNL     1      21.968   2.885  51.504  1.00  0.00     0.090 A 
BRANCH  21  22
HETATM   22  O2  UNL     1      22.378   4.201  51.697  1.00  0.00    -0.359 OA
HETATM   23  H11 UNL     1      21.803   4.787  52.287  1.00  0.00     0.217 HD
ENDBRANCH  21  22
ENDBRANCH  14  15
ENDBRANCH   1  14
BRANCH   4  24
HETATM   24  C14 UNL     1      26.051   5.109  49.808  1.00  0.00     0.017 A 
HETATM   25  C15 UNL     1      25.819   6.405  49.590  1.00  0.00     0.025 A 
HETATM   26  C16 UNL     1      26.772   6.848  48.576  1.00  0.00    -0.002 A 
HETATM   27  C17 UNL     1      27.548   5.824  48.207  1.00  0.00    -0.021 A 
HETATM   28  C18 UNL     1      27.164   4.616  48.958  1.00  0.00     0.084 A 
ENDBRANCH   4  24
TORSDOF 6
ENDMDL
MODEL 2
REMARK VINA RESULT:      -8.2      2.630      6.064
REMARK  6 active torsions:
REMARK  status: ('A' for Active; 'I' for Inactive)
REMARK    1  A    between atoms: O1_2  and  C2_3 
REMARK    2  A    between atoms: C5_6  and  N1_7 
REMARK    3  A    between atoms: N1_7  and  C6_8 
REMARK       I    between atoms: N1_7  and  C13_17 
REMARK    4  A    between atoms: C6_8  and  C7_9 
REMARK    5  A    between atoms: C12_15  and  O2_16 
REMARK       I    between atoms: C13_17  and  N2_19 
REMARK    6  A    between atoms: N2_19  and  C14_20 
ROOT
HETATM    1  N1  UNL     1      23.633   1.967  52.158  1.00  0.00    -0.295 N 
HETATM    2  C13 UNL     1      24.169   2.906  51.248  1.00  0.00     0.327 C 
HETATM    3  O3  UNL     1      23.225   3.254  50.483  1.00  0.00    -0.246 OA
HETATM    4  N2  UNL     1      25.499   3.395  51.168  1.00  0.00    -0.312 N 
HETATM    5  H12 UNL     1      26.156   3.004  51.874  1.00  0.00     0.170 HD
ENDROOT
BRANCH   1   6
HETATM    6  C5  UNL     1      22.242   1.811  51.800  1.00  0.00     0.039 A 
HETATM    7  C4  UNL     1      21.337   2.676  52.381  1.00  0.00     0.032 A 
HETATM    8  C3  UNL     1      20.003   2.556  52.058  1.00  0.00     0.039 A 
HETATM    9  C2  UNL     1      19.667   1.551  51.151  1.00  0.00     0.068 A 
HETATM   10  C20 UNL     1      20.565   0.690  50.573  1.00  0.00     0.039 A 
HETATM   11  C19 UNL     1      21.900   0.815  50.900  1.00  0.00     0.032 A 
BRANCH   9  12
HETATM   12  O1  UNL     1      18.331   1.353  50.761  1.00  0.00    -0.356 OA
HETATM   13  C1  UNL     1      17.837   0.033  50.771  1.00  0.00     0.210 C 
ENDBRANCH   9  12
ENDBRANCH   1   6
BRANCH   1  14
HETATM   14  C6  UNL     1      23.938   1.131  53.282  1.00  0.00     0.175 C 
BRANCH  14  15
HETATM   15  C7  UNL     1      25.317   0.594  53.300  1.00  0.00    -0.005 A 
HETATM   16  C8  UNL     1      25.473  -0.737  52.884  1.00  0.00     0.012 A 
HETATM   17  C9  UNL     1      26.687  -1.412  52.839  1.00  0.00     0.002 A 
HETATM   18  C10 UNL     1      27.817  -0.725  53.231  1.00  0.00     0.022 A 
HETATM   19  C11 UNL     1      27.685   0.567  53.637  1.00  0.00     0.044 A 
HETATM   20 BR1  UNL     1      29.261   1.501  54.176  1.00  0.00    -0.048 Br
HETATM   21  C12 UNL     1      26.491   1.215  53.677  1.00  0.00     0.090 A 
BRANCH  21  22
HETATM   22  O2  UNL     1      26.328   2.536  54.087  1.00  0.00    -0.359 OA
HETATM   23  H11 UNL     1      25.719   3.123  53.534  1.00  0.00     0.217 HD
ENDBRANCH  21  22
ENDBRANCH  14  15
ENDBRANCH   1  14
BRANCH   4  24
HETATM   24  C14 UNL     1      25.941   4.342  50.214  1.00  0.00     0.017 A 
HETATM   25  C15 UNL     1      26.929   4.092  49.352  1.00  0.00     0.025 A 
HETATM   26  C16 UNL     1      27.102   5.290  48.535  1.00  0.00    -0.002 A 
HETATM   27  C17 UNL     1      26.228   6.226  48.917  1.00  0.00    -0.021 A 
HETATM   28  C18 UNL     1      25.402   5.713  50.024  1.00  0.00     0.084 A 
ENDBRANCH   4  24
TORSDOF 6
ENDMDL
MODEL 3
REMARK VINA RESULT:      -8.0      2.413      5.185
REMARK  6 active torsions:
REMARK  status: ('A' for Active; 'I' for Inactive)
REMARK    1  A    between atoms: O1_2  and  C2_3 
REMARK    2  A    between atoms: C5_6  and  N1_7 
REMARK    3  A    between atoms: N1_7  and  C6_8 
REMARK       I    between atoms: N1_7  and  C13_17 
REMARK    4  A    between atoms: C6_8  and  C7_9 
REMARK    5  A    between atoms: C12_15  and  O2_16 
REMARK       I    between atoms: C13_17  and  N2_19 
REMARK    6  A    between atoms: N2_19  and  C14_20 
ROOT
HETATM    1  N1  UNL     1      24.381   1.972  52.772  1.00  0.00    -0.295 N 
HETATM    2  C13 UNL     1      23.208   1.186  52.829  1.00  0.00     0.327 C 
HETATM    3  O3  UNL     1      23.570   0.008  53.110  1.00  0.00    -0.246 OA
HETATM    4  N2  UNL     1      21.864   1.593  52.621  1.00  0.00    -0.312 N 
HETATM    5  H12 UNL     1      21.738   2.602  52.396  1.00  0.00     0.170 HD
ENDROOT
BRANCH   1   6
HETATM    6  C5  UNL     1      25.479   1.074  53.048  1.00  0.00     0.039 A 
HETATM    7  C4  UNL     1      25.948   1.025  54.345  1.00  0.00     0.032 A 
HETATM    8  C3  UNL     1      26.992   0.176  54.642  1.00  0.00     0.039 A 
HETATM    9  C2  UNL     1      27.500  -0.582  53.588  1.00  0.00     0.068 A 
HETATM   10  C20 UNL     1      27.035  -0.535  52.298  1.00  0.00     0.039 A 
HETATM   11  C19 UNL     1      25.989   0.317  52.006  1.00  0.00     0.032 A 
BRANCH   9  12
HETATM   12  O1  UNL     1      28.565  -1.477  53.795  1.00  0.00    -0.356 OA
HETATM   13  C1  UNL     1      29.874  -0.968  53.689  1.00  0.00     0.210 C 
ENDBRANCH   9  12
ENDBRANCH   1   6
BRANCH   1  14
HETATM   14  C6  UNL     1      24.886   3.296  52.554  1.00  0.00     0.175 C 
BRANCH  14  15
HETATM   15  C7  UNL     1      24.279   4.011  51.409  1.00  0.00    -0.005 A 
HETATM   16  C8  UNL     1      24.144   3.280  50.218  1.00  0.00     0.012 A 
HETATM   17  C9  UNL     1      23.603   3.783  49.042  1.00  0.00     0.002 A 
HETATM   18  C10 UNL     1      23.170   5.093  49.043  1.00  0.00     0.022 A 
HETATM   19  C11 UNL     1      23.293   5.817  50.189  1.00  0.00     0.044 A 
HETATM   20 BR1  UNL     1      22.686   7.628  50.172  1.00  0.00    -0.048 Br
HETATM   21  C12 UNL     1      23.823   5.312  51.334  1.00  0.00     0.090 A 
BRANCH  21  22
HETATM   22  O2  UNL     1      23.960   6.030  52.519  1.00  0.00    -0.359 OA
HETATM   23  H11 UNL     1      23.866   5.519  53.386  1.00  0.00     0.217 HD
ENDBRANCH  21  22
ENDBRANCH  14  15
ENDBRANCH   1  14
BRANCH   4  24
HETATM   24  C14 UNL     1      20.750   0.726  52.701  1.00  0.00     0.017 A 
HETATM   25  C15 UNL     1      19.885   0.566  51.698  1.00  0.00     0.025 A 
HETATM   26  C16 UNL     1      18.880  -0.395  52.143  1.00  0.00    -0.002 A 
HETATM   27  C17 UNL     1      19.155  -0.790  53.391  1.00  0.00    -0.021 A 
HETATM   28  C18 UNL     1      20.374  -0.114  53.868  1.00  0.00     0.084 A 
ENDBRANCH   4  24
TORSDOF 6
ENDMDL
MODEL 4
REMARK VINA RESULT:      -8.0      2.718      6.319
REMARK  6 active torsions:
REMARK  status: ('A' for Active; 'I' for Inactive)
REMARK    1  A    between atoms: O1_2  and  C2_3 
REMARK    2  A    between atoms: C5_6  and  N1_7 
REMARK    3  A    between atoms: N1_7  and  C6_8 
REMARK       I    between atoms: N1_7  and  C13_17 
REMARK    4  A    between atoms: C6_8  and  C7_9 
REMARK    5  A    between atoms: C12_15  and  O2_16 
REMARK       I    between atoms: C13_17  and  N2_19 
REMARK    6  A    between atoms: N2_19  and  C14_20 
ROOT
HETATM    1  N1  UNL     1      23.954   1.409  52.940  1.00  0.00    -0.295 N 
HETATM    2  C13 UNL     1      24.929   0.386  52.979  1.00  0.00     0.327 C 
HETATM    3  O3  UNL     1      24.305  -0.709  53.086  1.00  0.00    -0.246 OA
HETATM    4  N2  UNL     1      26.340   0.512  52.912  1.00  0.00    -0.312 N 
HETATM    5  H12 UNL     1      26.693   1.487  52.826  1.00  0.00     0.170 HD
ENDROOT
BRANCH   1   6
HETATM    6  C5  UNL     1      22.674   0.748  53.055  1.00  0.00     0.039 A 
HETATM    7  C4  UNL     1      21.926   0.612  51.903  1.00  0.00     0.032 A 
HETATM    8  C3  UNL     1      20.702  -0.017  51.978  1.00  0.00     0.039 A 
HETATM    9  C2  UNL     1      20.310  -0.475  53.235  1.00  0.00     0.068 A 
HETATM   10  C20 UNL     1      21.053  -0.341  54.380  1.00  0.00     0.039 A 
HETATM   11  C19 UNL     1      22.278   0.290  54.300  1.00  0.00     0.032 A 
BRANCH   9  12
HETATM   12  O1  UNL     1      19.078  -1.129  53.408  1.00  0.00    -0.356 OA
HETATM   13  C1  UNL     1      18.063  -0.871  52.465  1.00  0.00     0.210 C 
ENDBRANCH   9  12
ENDBRANCH   1   6
BRANCH   1  14
HETATM   14  C6  UNL     1      23.757   2.825  52.828  1.00  0.00     0.175 C 
BRANCH  14  15
HETATM   15  C7  UNL     1      24.074   3.392  51.498  1.00  0.00    -0.005 A 
HETATM   16  C8  UNL     1      22.981   3.721  50.683  1.00  0.00     0.012 A 
HETATM   17  C9  UNL     1      23.083   4.257  49.405  1.00  0.00     0.002 A 
HETATM   18  C10 UNL     1      24.348   4.482  48.903  1.00  0.00     0.022 A 
HETATM   19  C11 UNL     1      25.420   4.170  49.680  1.00  0.00     0.044 A 
HETATM   20 BR1  UNL     1      27.163   4.489  48.968  1.00  0.00    -0.048 Br
HETATM   21  C12 UNL     1      25.306   3.645  50.929  1.00  0.00     0.090 A 
BRANCH  21  22
HETATM   22  O2  UNL     1      26.386   3.317  51.744  1.00  0.00    -0.359 OA
HETATM   23  H11 UNL     1      26.425   3.745  52.660  1.00  0.00     0.217 HD
ENDBRANCH  21  22
ENDBRANCH  14  15
ENDBRANCH   1  14
BRANCH   4  24
HETATM   24  C14 UNL     1      27.238  -0.581  52.958  1.00  0.00     0.017 A 
HETATM   25  C15 UNL     1      28.491  -0.468  53.403  1.00  0.00     0.025 A 
HETATM   26  C16 UNL     1      29.106  -1.788  53.301  1.00  0.00    -0.002 A 
HETATM   27  C17 UNL     1      28.223  -2.660  52.802  1.00  0.00    -0.021 A 
HETATM   28  C18 UNL     1      26.946  -1.975  52.536  1.00  0.00     0.084 A 
ENDBRANCH   4  24
TORSDOF 6
ENDMDL
MODEL 5
REMARK VINA RESULT:      -7.9      2.365      6.582
REMARK  6 active torsions:
REMARK  status: ('A' for Active; 'I' for Inactive)
REMARK    1  A    between atoms: O1_2  and  C2_3 
REMARK    2  A    between atoms: C5_6  and  N1_7 
REMARK    3  A    between atoms: N1_7  and  C6_8 
REMARK       I    between atoms: N1_7  and  C13_17 
REMARK    4  A    between atoms: C6_8  and  C7_9 
REMARK    5  A    between atoms: C12_15  and  O2_16 
REMARK       I    between atoms: C13_17  and  N2_19 
REMARK    6  A    between atoms: N2_19  and  C14_20 
ROOT
HETATM    1  N1  UNL     1      24.952   2.935  50.698  1.00  0.00    -0.295 N 
HETATM    2  C13 UNL     1      25.745   2.449  51.762  1.00  0.00     0.327 C 
HETATM    3  O3  UNL     1      24.967   2.254  52.739  1.00  0.00    -0.246 OA
HETATM    4  N2  UNL     1      27.144   2.210  51.779  1.00  0.00    -0.312 N 
HETATM    5  H12 UNL     1      27.640   2.425  50.890  1.00  0.00     0.170 HD
ENDROOT
BRANCH   1   6
HETATM    6  C5  UNL     1      23.600   3.006  51.206  1.00  0.00     0.039 A 
HETATM    7  C4  UNL     1      22.792   1.905  51.011  1.00  0.00     0.032 A 
HETATM    8  C3  UNL     1      21.499   1.940  51.487  1.00  0.00     0.039 A 
HETATM    9  C2  UNL     1      21.103   3.107  52.140  1.00  0.00     0.068 A 
HETATM   10  C20 UNL     1      21.906   4.202  52.334  1.00  0.00     0.039 A 
HETATM   11  C19 UNL     1      23.201   4.162  51.856  1.00  0.00     0.032 A 
BRANCH   9  12
HETATM   12  O1  UNL     1      19.803   3.234  52.659  1.00  0.00    -0.356 OA
HETATM   13  C1  UNL     1      18.732   3.229  51.744  1.00  0.00     0.210 C 
ENDBRANCH   9  12
ENDBRANCH   1   6
BRANCH   1  14
HETATM   14  C6  UNL     1      24.976   3.371  49.332  1.00  0.00     0.175 C 
BRANCH  14  15
HETATM   15  C7  UNL     1      25.801   4.573  49.079  1.00  0.00    -0.005 A 
HETATM   16  C8  UNL     1      27.166   4.355  48.842  1.00  0.00     0.012 A 
HETATM   17  C9  UNL     1      28.093   5.359  48.591  1.00  0.00     0.002 A 
HETATM   18  C10 UNL     1      27.640   6.662  48.575  1.00  0.00     0.022 A 
HETATM   19  C11 UNL     1      26.318   6.893  48.803  1.00  0.00     0.044 A 
HETATM   20 BR1  UNL     1      25.709   8.703  48.776  1.00  0.00    -0.048 Br
HETATM   21  C12 UNL     1      25.422   5.901  49.047  1.00  0.00     0.090 A 
BRANCH  21  22
HETATM   22  O2  UNL     1      24.065   6.109  49.283  1.00  0.00    -0.359 OA
HETATM   23  H11 UNL     1      23.761   6.148  50.247  1.00  0.00     0.217 HD
ENDBRANCH  21  22
ENDBRANCH  14  15
ENDBRANCH   1  14
BRANCH   4  24
HETATM   24  C14 UNL     1      27.852   1.718  52.902  1.00  0.00     0.017 A 
HETATM   25  C15 UNL     1      28.667   2.482  53.632  1.00  0.00     0.025 A 
HETATM   26  C16 UNL     1      29.212   1.638  54.692  1.00  0.00    -0.002 A 
HETATM   27  C17 UNL     1      28.722   0.399  54.580  1.00  0.00    -0.021 A 
HETATM   28  C18 UNL     1      27.807   0.330  53.428  1.00  0.00     0.084 A 
ENDBRANCH   4  24
TORSDOF 6
ENDMDL
MODEL 6
REMARK VINA RESULT:      -7.7      2.758      6.641
REMARK  6 active torsions:
REMARK  status: ('A' for Active; 'I' for Inactive)
REMARK    1  A    between atoms: O1_2  and  C2_3 
REMARK    2  A    between atoms: C5_6  and  N1_7 
REMARK    3  A    between atoms: N1_7  and  C6_8 
REMARK       I    between atoms: N1_7  and  C13_17 
REMARK    4  A    between atoms: C6_8  and  C7_9 
REMARK    5  A    between atoms: C12_15  and  O2_16 
REMARK       I    between atoms: C13_17  and  N2_19 
REMARK    6  A    between atoms: N2_19  and  C14_20 
ROOT
HETATM    1  N1  UNL     1      23.872   2.968  52.225  1.00  0.00    -0.295 N 
HETATM    2  C13 UNL     1      22.611   2.700  51.646  1.00  0.00     0.327 C 
HETATM    3  O3  UNL     1      22.630   3.194  50.482  1.00  0.00    -0.246 OA
HETATM    4  N2  UNL     1      21.508   2.015  52.218  1.00  0.00    -0.312 N 
HETATM    5  H12 UNL     1      21.656   1.671  53.189  1.00  0.00     0.170 HD
ENDROOT
BRANCH   1   6
HETATM    6  C5  UNL     1      24.622   3.702  51.231  1.00  0.00     0.039 A 
HETATM    7  C4  UNL     1      24.386   5.058  51.133  1.00  0.00     0.032 A 
HETATM    8  C3  UNL     1      25.087   5.788  50.198  1.00  0.00     0.039 A 
HETATM    9  C2  UNL     1      25.997   5.084  49.410  1.00  0.00     0.068 A 
HETATM   10  C20 UNL     1      26.233   3.736  49.506  1.00  0.00     0.039 A 
HETATM   11  C19 UNL     1      25.528   3.010  50.444  1.00  0.00     0.032 A 
BRANCH   9  12
HETATM   12  O1  UNL     1      26.758   5.744  48.429  1.00  0.00    -0.356 OA
HETATM   13  C1  UNL     1      28.141   5.475  48.386  1.00  0.00     0.210 C 
ENDBRANCH   9  12
ENDBRANCH   1   6
BRANCH   1  14
HETATM   14  C6  UNL     1      24.677   2.788  53.398  1.00  0.00     0.175 C 
BRANCH  14  15
HETATM   15  C7  UNL     1      25.564   1.603  53.366  1.00  0.00    -0.005 A 
HETATM   16  C8  UNL     1      24.954   0.376  53.065  1.00  0.00     0.012 A 
HETATM   17  C9  UNL     1      25.623  -0.840  52.995  1.00  0.00     0.002 A 
HETATM   18  C10 UNL     1      26.980  -0.841  53.239  1.00  0.00     0.022 A 
HETATM   19  C11 UNL     1      27.589   0.340  53.533  1.00  0.00     0.044 A 
HETATM   20 BR1  UNL     1      29.469   0.319  53.867  1.00  0.00    -0.048 Br
HETATM   21  C12 UNL     1      26.923   1.523  53.598  1.00  0.00     0.090 A 
BRANCH  21  22
HETATM   22  O2  UNL     1      27.520   2.745  53.895  1.00  0.00    -0.359 OA
HETATM   23  H11 UNL     1      28.422   2.936  53.479  1.00  0.00     0.217 HD
ENDBRANCH  21  22
ENDBRANCH  14  15
ENDBRANCH   1  14
BRANCH   4  24
HETATM   24  C14 UNL     1      20.278   1.795  51.553  1.00  0.00     0.017 A 
HETATM   25  C15 UNL     1      20.013   0.675  50.878  1.00  0.00     0.025 A 
HETATM   26  C16 UNL     1      18.664   0.808  50.334  1.00  0.00    -0.002 A 
HETATM   27  C17 UNL     1      18.151   1.992  50.687  1.00  0.00    -0.021 A 
HETATM   28  C18 UNL     1      19.130   2.735  51.498  1.00  0.00     0.084 A 
ENDBRANCH   4  24
TORSDOF 6
ENDMDL
MODEL 7
REMARK VINA RESULT:      -7.7      2.562      6.473
REMARK  6 active torsions:
REMARK  status: ('A' for Active; 'I' for Inactive)
REMARK    1  A    between atoms: O1_2  and  C2_3 
REMARK    2  A    between atoms: C5_6  and  N1_7 
REMARK    3  A    between atoms: N1_7  and  C6_8 
REMARK       I    between atoms: N1_7  and  C13_17 
REMARK    4  A    between atoms: C6_8  and  C7_9 
REMARK    5  A    between atoms: C12_15  and  O2_16 
REMARK       I    between atoms: C13_17  and  N2_19 
REMARK    6  A    between atoms: N2_19  and  C14_20 
ROOT
HETATM    1  N1  UNL     1      23.671   3.322  52.016  1.00  0.00    -0.295 N 
HETATM    2  C13 UNL     1      24.658   2.492  52.593  1.00  0.00     0.327 C 
HETATM    3  O3  UNL     1      24.177   1.323  52.630  1.00  0.00    -0.246 OA
HETATM    4  N2  UNL     1      25.951   2.851  53.056  1.00  0.00    -0.312 N 
HETATM    5  H12 UNL     1      26.192   3.859  52.954  1.00  0.00     0.170 HD
ENDROOT
BRANCH   1   6
HETATM    6  C5  UNL     1      22.541   2.467  51.735  1.00  0.00     0.039 A 
HETATM    7  C4  UNL     1      21.514   2.450  52.657  1.00  0.00     0.032 A 
HETATM    8  C3  UNL     1      20.420   1.647  52.417  1.00  0.00     0.039 A 
HETATM    9  C2  UNL     1      20.438   0.902  51.239  1.00  0.00     0.068 A 
HETATM   10  C20 UNL     1      21.457   0.918  50.322  1.00  0.00     0.039 A 
HETATM   11  C19 UNL     1      22.551   1.723  50.567  1.00  0.00     0.032 A 
BRANCH   9  12
HETATM   12  O1  UNL     1      19.365   0.055  50.909  1.00  0.00    -0.356 OA
HETATM   13  C1  UNL     1      18.260   0.628  50.251  1.00  0.00     0.210 C 
ENDBRANCH   9  12
ENDBRANCH   1   6
BRANCH   1  14
HETATM   14  C6  UNL     1      23.372   4.664  51.607  1.00  0.00     0.175 C 
BRANCH  14  15
HETATM   15  C7  UNL     1      24.415   5.305  50.774  1.00  0.00    -0.005 A 
HETATM   16  C8  UNL     1      25.086   4.474  49.865  1.00  0.00     0.012 A 
HETATM   17  C9  UNL     1      26.095   4.895  49.008  1.00  0.00     0.002 A 
HETATM   18  C10 UNL     1      26.462   6.224  49.053  1.00  0.00     0.022 A 
HETATM   19  C11 UNL     1      25.821   7.046  49.928  1.00  0.00     0.044 A 
HETATM   20 BR1  UNL     1      26.343   8.882  49.976  1.00  0.00    -0.048 Br
HETATM   21  C12 UNL     1      24.836   6.620  50.762  1.00  0.00     0.090 A 
BRANCH  21  22
HETATM   22  O2  UNL     1      24.164   7.439  51.666  1.00  0.00    -0.359 OA
HETATM   23  H11 UNL     1      24.002   8.399  51.393  1.00  0.00     0.217 HD
ENDBRANCH  21  22
ENDBRANCH  14  15
ENDBRANCH   1  14
BRANCH   4  24
HETATM   24  C14 UNL     1      26.873   1.940  53.622  1.00  0.00     0.017 A 
HETATM   25  C15 UNL     1      28.191   2.040  53.438  1.00  0.00     0.025 A 
HETATM   26  C16 UNL     1      28.813   0.936  54.166  1.00  0.00    -0.002 A 
HETATM   27  C17 UNL     1      27.869   0.203  54.765  1.00  0.00    -0.021 A 
HETATM   28  C18 UNL     1      26.541   0.772  54.477  1.00  0.00     0.084 A 
ENDBRANCH   4  24
TORSDOF 6
ENDMDL
MODEL 8
REMARK VINA RESULT:      -7.5      2.396      5.847
REMARK  6 active torsions:
REMARK  status: ('A' for Active; 'I' for Inactive)
REMARK    1  A    between atoms: O1_2  and  C2_3 
REMARK    2  A    between atoms: C5_6  and  N1_7 
REMARK    3  A    between atoms: N1_7  and  C6_8 
REMARK       I    between atoms: N1_7  and  C13_17 
REMARK    4  A    between atoms: C6_8  and  C7_9 
REMARK    5  A    between atoms: C12_15  and  O2_16 
REMARK       I    between atoms: C13_17  and  N2_19 
REMARK    6  A    between atoms: N2_19  and  C14_20 
ROOT
HETATM    1  N1  UNL     1      24.053   1.680  51.608  1.00  0.00    -0.295 N 
HETATM    2  C13 UNL     1      25.266   1.388  52.273  1.00  0.00     0.327 C 
HETATM    3  O3  UNL     1      25.864   2.489  52.443  1.00  0.00    -0.246 OA
HETATM    4  N2  UNL     1      25.759   0.125  52.690  1.00  0.00    -0.312 N 
HETATM    5  H12 UNL     1      25.142  -0.684  52.472  1.00  0.00     0.170 HD
ENDROOT
BRANCH   1   6
HETATM    6  C5  UNL     1      24.042   3.111  51.404  1.00  0.00     0.039 A 
HETATM    7  C4  UNL     1      23.493   3.888  52.403  1.00  0.00     0.032 A 
HETATM    8  C3  UNL     1      23.470   5.257  52.241  1.00  0.00     0.039 A 
HETATM    9  C2  UNL     1      24.015   5.756  51.059  1.00  0.00     0.068 A 
HETATM   10  C20 UNL     1      24.561   4.984  50.065  1.00  0.00     0.039 A 
HETATM   11  C19 UNL     1      24.581   3.614  50.232  1.00  0.00     0.032 A 
BRANCH   9  12
HETATM   12  O1  UNL     1      24.036   7.139  50.806  1.00  0.00    -0.356 OA
HETATM   13  C1  UNL     1      25.236   7.695  50.320  1.00  0.00     0.210 C 
ENDBRANCH   9  12
ENDBRANCH   1   6
BRANCH   1  14
HETATM   14  C6  UNL     1      22.852   1.108  51.073  1.00  0.00     0.175 C 
BRANCH  14  15
HETATM   15  C7  UNL     1      21.925   0.554  52.085  1.00  0.00    -0.005 A 
HETATM   16  C8  UNL     1      22.456   0.337  53.366  1.00  0.00     0.012 A 
HETATM   17  C9  UNL     1      21.741  -0.180  54.439  1.00  0.00     0.002 A 
HETATM   18  C10 UNL     1      20.416  -0.503  54.230  1.00  0.00     0.022 A 
HETATM   19  C11 UNL     1      19.884  -0.299  52.995  1.00  0.00     0.044 A 
HETATM   20 BR1  UNL     1      18.048  -0.753  52.726  1.00  0.00    -0.048 Br
HETATM   21  C12 UNL     1      20.595   0.207  51.953  1.00  0.00     0.090 A 
BRANCH  21  22
HETATM   22  O2  UNL     1      20.075   0.426  50.680  1.00  0.00    -0.359 OA
HETATM   23  H11 UNL     1      19.732   1.354  50.470  1.00  0.00     0.217 HD
ENDBRANCH  21  22
ENDBRANCH  14  15
ENDBRANCH   1  14
BRANCH   4  24
HETATM   24  C14 UNL     1      26.994  -0.065  53.355  1.00  0.00     0.017 A 
HETATM   25  C15 UNL     1      27.270   0.489  54.537  1.00  0.00     0.025 A 
HETATM   26  C16 UNL     1      28.621   0.073  54.904  1.00  0.00    -0.002 A 
HETATM   27  C17 UNL     1      29.125  -0.714  53.947  1.00  0.00    -0.021 A 
HETATM   28  C18 UNL     1      28.137  -0.878  52.867  1.00  0.00     0.084 A 
ENDBRANCH   4  24
TORSDOF 6
ENDMDL
MODEL 9
REMARK VINA RESULT:      -7.4      1.907      5.688
REMARK  6 active torsions:
REMARK  status: ('A' for Active; 'I' for Inactive)
REMARK    1  A    between atoms: O1_2  and  C2_3 
REMARK    2  A    between atoms: C5_6  and  N1_7 
REMARK    3  A    between atoms: N1_7  and  C6_8 
REMARK       I    between atoms: N1_7  and  C13_17 
REMARK    4  A    between atoms: C6_8  and  C7_9 
REMARK    5  A    between atoms: C12_15  and  O2_16 
REMARK       I    between atoms: C13_17  and  N2_19 
REMARK    6  A    between atoms: N2_19  and  C14_20 
ROOT
HETATM    1  N1  UNL     1      25.087   3.563  50.578  1.00  0.00    -0.295 N 
HETATM    2  C13 UNL     1      26.009   2.690  51.199  1.00  0.00     0.327 C 
HETATM    3  O3  UNL     1      27.165   3.129  50.932  1.00  0.00    -0.246 OA
HETATM    4  N2  UNL     1      25.741   1.536  51.980  1.00  0.00    -0.312 N 
HETATM    5  H12 UNL     1      24.733   1.311  52.103  1.00  0.00     0.170 HD
ENDROOT
BRANCH   1   6
HETATM    6  C5  UNL     1      25.877   4.565  49.900  1.00  0.00     0.039 A 
HETATM    7  C4  UNL     1      25.527   5.885  50.094  1.00  0.00     0.032 A 
HETATM    8  C3  UNL     1      26.263   6.866  49.464  1.00  0.00     0.039 A 
HETATM    9  C2  UNL     1      27.323   6.437  48.667  1.00  0.00     0.068 A 
HETATM   10  C20 UNL     1      27.673   5.125  48.474  1.00  0.00     0.039 A 
HETATM   11  C19 UNL     1      26.932   4.147  49.107  1.00  0.00     0.032 A 
BRANCH   9  12
HETATM   12  O1  UNL     1      28.130   7.365  47.986  1.00  0.00    -0.356 OA
HETATM   13  C1  UNL     1      29.366   6.911  47.484  1.00  0.00     0.210 C 
ENDBRANCH   9  12
ENDBRANCH   1   6
BRANCH   1  14
HETATM   14  C6  UNL     1      23.693   3.829  50.374  1.00  0.00     0.175 C 
BRANCH  14  15
HETATM   15  C7  UNL     1      22.817   2.638  50.442  1.00  0.00    -0.005 A 
HETATM   16  C8  UNL     1      22.349   2.138  49.218  1.00  0.00     0.012 A 
HETATM   17  C9  UNL     1      21.515   1.035  49.084  1.00  0.00     0.002 A 
HETATM   18  C10 UNL     1      21.121   0.385  50.235  1.00  0.00     0.022 A 
HETATM   19  C11 UNL     1      21.566   0.856  51.432  1.00  0.00     0.044 A 
HETATM   20 BR1  UNL     1      21.009  -0.057  53.014  1.00  0.00    -0.048 Br
HETATM   21  C12 UNL     1      22.381   1.937  51.549  1.00  0.00     0.090 A 
BRANCH  21  22
HETATM   22  O2  UNL     1      22.851   2.439  52.759  1.00  0.00    -0.359 OA
HETATM   23  H11 UNL     1      23.465   1.846  53.302  1.00  0.00     0.217 HD
ENDBRANCH  21  22
ENDBRANCH  14  15
ENDBRANCH   1  14
BRANCH   4  24
HETATM   24  C14 UNL     1      26.741   0.722  52.563  1.00  0.00     0.017 A 
HETATM   25  C15 UNL     1      26.848  -0.584  52.309  1.00  0.00     0.025 A 
HETATM   26  C16 UNL     1      27.982  -1.082  53.083  1.00  0.00    -0.002 A 
HETATM   27  C17 UNL     1      28.528  -0.079  53.779  1.00  0.00    -0.021 A 
HETATM   28  C18 UNL     1      27.790   1.168  53.516  1.00  0.00     0.084 A 
ENDBRANCH   4  24
TORSDOF 6
ENDMDL
