MODEL 1
REMARK VINA RESULT:      -6.7      0.000      0.000
REMARK  8 active torsions:
REMARK  status: ('A' for Active; 'I' for Inactive)
REMARK    1  A    between atoms: C2_2  and  C3_3 
REMARK    2  A    between atoms: C8_9  and  S1_10 
REMARK    3  A    between atoms: S1_10  and  C9_11 
REMARK    4  A    between atoms: C9_11  and  C10_12 
REMARK    5  A    between atoms: C10_12  and  C12_14 
REMARK    6  A    between atoms: C12_14  and  C13_15 
REMARK    7  A    between atoms: C14_16  and  C15_17 
REMARK    8  A    between atoms: C16_18  and  N1_19 
ROOT
HETATM    1  S1  UNL     1      23.564   3.580  51.664  1.00  0.00    -0.138 SA
ENDROOT
BRANCH   1   2
HETATM    2  C8  UNL     1      23.451   1.951  52.368  1.00  0.00     0.076 C 
HETATM    3  C7  UNL     1      24.530   1.398  52.898  1.00  0.00     0.060 A 
HETATM    4  C6  UNL     1      24.523   0.061  53.497  1.00  0.00     0.061 A 
HETATM    5  N2  UNL     1      25.774   2.089  52.911  1.00  0.00    -0.354 N 
HETATM    6  C5  UNL     1      25.647  -0.419  54.006  1.00  0.00     0.028 A 
HETATM    7 CL1  UNL     1      23.049  -0.866  53.531  1.00  0.00    -0.082 Cl
HETATM    8  C4  UNL     1      26.921   0.287  54.020  1.00  0.00     0.031 A 
HETATM    9  C3  UNL     1      26.930   1.488  53.482  1.00  0.00     0.031 A 
HETATM   10  H19 UNL     1      25.764   3.039  52.480  1.00  0.00     0.166 HD
BRANCH   9  11
HETATM   11  C2  UNL     1      28.133   2.280  53.439  1.00  0.00     0.019 C 
HETATM   12  C1  UNL     1      29.221   2.128  54.172  1.00  0.00     0.013 C 
ENDBRANCH   9  11
ENDBRANCH   1   2
BRANCH   1  13
HETATM   13  C9  UNL     1      23.866   3.426  49.877  1.00  0.00     0.089 C 
BRANCH  13  14
HETATM   14  C10 UNL     1      25.323   3.654  49.629  1.00  0.00    -0.020 C 
HETATM   15  C11 UNL     1      26.516   3.076  49.663  1.00  0.00     0.012 C 
BRANCH  14  16
HETATM   16  C12 UNL     1      25.798   4.997  49.157  1.00  0.00     0.038 C 
BRANCH  16  17
HETATM   17  C13 UNL     1      27.224   4.882  48.833  1.00  0.00    -0.026 C 
HETATM   18  C14 UNL     1      28.017   5.823  48.353  1.00  0.00    -0.003 C 
BRANCH  18  19
HETATM   19  C15 UNL     1      29.411   5.503  48.098  1.00  0.00     0.016 C 
HETATM   20  C16 UNL     1      30.363   6.301  48.517  1.00  0.00     0.080 C 
BRANCH  20  21
HETATM   21  N1  UNL     1      30.487   7.524  49.224  1.00  0.00    -0.408 N 
HETATM   22  H17 UNL     1      30.751   7.613  50.228  1.00  0.00     0.155 HD
HETATM   23  H18 UNL     1      30.342   8.515  48.882  1.00  0.00     0.155 HD
ENDBRANCH  20  21
ENDBRANCH  18  19
ENDBRANCH  16  17
ENDBRANCH  14  16
ENDBRANCH  13  14
ENDBRANCH   1  13
TORSDOF 8
ENDMDL
MODEL 2
REMARK VINA RESULT:      -6.7      4.646      6.478
REMARK  8 active torsions:
REMARK  status: ('A' for Active; 'I' for Inactive)
REMARK    1  A    between atoms: C2_2  and  C3_3 
REMARK    2  A    between atoms: C8_9  and  S1_10 
REMARK    3  A    between atoms: S1_10  and  C9_11 
REMARK    4  A    between atoms: C9_11  and  C10_12 
REMARK    5  A    between atoms: C10_12  and  C12_14 
REMARK    6  A    between atoms: C12_14  and  C13_15 
REMARK    7  A    between atoms: C14_16  and  C15_17 
REMARK    8  A    between atoms: C16_18  and  N1_19 
ROOT
HETATM    1  S1  UNL     1      22.351   3.448  51.737  1.00  0.00    -0.138 SA
ENDROOT
BRANCH   1   2
HETATM    2  C8  UNL     1      20.881   2.620  51.173  1.00  0.00     0.076 C 
HETATM    3  C7  UNL     1      20.436   1.566  51.837  1.00  0.00     0.060 A 
HETATM    4  C6  UNL     1      19.235   0.827  51.439  1.00  0.00     0.061 A 
HETATM    5  N2  UNL     1      21.118   1.088  52.991  1.00  0.00    -0.354 N 
HETATM    6  C5  UNL     1      18.858  -0.218  52.159  1.00  0.00     0.028 A 
HETATM    7 CL1  UNL     1      18.330   1.333  50.040  1.00  0.00    -0.082 Cl
HETATM    8  C4  UNL     1      19.554  -0.708  53.341  1.00  0.00     0.031 A 
HETATM    9  C3  UNL     1      20.634  -0.047  53.700  1.00  0.00     0.031 A 
HETATM   10  H19 UNL     1      21.972   1.623  53.262  1.00  0.00     0.166 HD
BRANCH   9  11
HETATM   11  C2  UNL     1      21.404  -0.440  54.852  1.00  0.00     0.019 C 
HETATM   12  C1  UNL     1      22.283  -1.422  54.934  1.00  0.00     0.013 C 
ENDBRANCH   9  11
ENDBRANCH   1   2
BRANCH   1  13
HETATM   13  C9  UNL     1      23.803   2.511  51.171  1.00  0.00     0.089 C 
BRANCH  13  14
HETATM   14  C10 UNL     1      24.528   2.000  52.376  1.00  0.00    -0.020 C 
HETATM   15  C11 UNL     1      25.169   2.374  53.475  1.00  0.00     0.012 C 
BRANCH  14  16
HETATM   16  C12 UNL     1      24.687   0.522  52.581  1.00  0.00     0.038 C 
BRANCH  16  17
HETATM   17  C13 UNL     1      26.064   0.273  53.016  1.00  0.00    -0.026 C 
HETATM   18  C14 UNL     1      26.929  -0.580  52.496  1.00  0.00    -0.003 C 
BRANCH  18  19
HETATM   19  C15 UNL     1      28.256  -0.676  53.078  1.00  0.00     0.016 C 
HETATM   20  C16 UNL     1      28.803  -1.848  53.295  1.00  0.00     0.080 C 
BRANCH  20  21
HETATM   21  N1  UNL     1      28.479  -3.217  53.123  1.00  0.00    -0.408 N 
HETATM   22  H17 UNL     1      27.801  -3.752  53.708  1.00  0.00     0.155 HD
HETATM   23  H18 UNL     1      28.843  -3.910  52.411  1.00  0.00     0.155 HD
ENDBRANCH  20  21
ENDBRANCH  18  19
ENDBRANCH  16  17
ENDBRANCH  14  16
ENDBRANCH  13  14
ENDBRANCH   1  13
TORSDOF 8
ENDMDL
MODEL 3
REMARK VINA RESULT:      -6.6      1.530      2.053
REMARK  8 active torsions:
REMARK  status: ('A' for Active; 'I' for Inactive)
REMARK    1  A    between atoms: C2_2  and  C3_3 
REMARK    2  A    between atoms: C8_9  and  S1_10 
REMARK    3  A    between atoms: S1_10  and  C9_11 
REMARK    4  A    between atoms: C9_11  and  C10_12 
REMARK    5  A    between atoms: C10_12  and  C12_14 
REMARK    6  A    between atoms: C12_14  and  C13_15 
REMARK    7  A    between atoms: C14_16  and  C15_17 
REMARK    8  A    between atoms: C16_18  and  N1_19 
ROOT
HETATM    1  S1  UNL     1      26.389   3.121  50.294  1.00  0.00    -0.138 SA
ENDROOT
BRANCH   1   2
HETATM    2  C8  UNL     1      25.287   2.216  51.357  1.00  0.00     0.076 C 
HETATM    3  C7  UNL     1      25.790   1.432  52.294  1.00  0.00     0.060 A 
HETATM    4  C6  UNL     1      24.953   0.652  53.210  1.00  0.00     0.061 A 
HETATM    5  N2  UNL     1      27.198   1.303  52.463  1.00  0.00    -0.354 N 
HETATM    6  C5  UNL     1      25.538  -0.109  54.122  1.00  0.00     0.028 A 
HETATM    7 CL1  UNL     1      23.219   0.741  53.086  1.00  0.00    -0.082 Cl
HETATM    8  C4  UNL     1      26.978  -0.242  54.296  1.00  0.00     0.031 A 
HETATM    9  C3  UNL     1      27.733   0.457  53.473  1.00  0.00     0.031 A 
HETATM   10  H19 UNL     1      27.781   1.863  51.803  1.00  0.00     0.166 HD
BRANCH   9  11
HETATM   11  C2  UNL     1      29.170   0.405  53.551  1.00  0.00     0.019 C 
HETATM   12  C1  UNL     1      29.934  -0.671  53.593  1.00  0.00     0.013 C 
ENDBRANCH   9  11
ENDBRANCH   1   2
BRANCH   1  13
HETATM   13  C9  UNL     1      25.590   4.684  49.816  1.00  0.00     0.089 C 
BRANCH  13  14
HETATM   14  C10 UNL     1      26.551   5.462  48.975  1.00  0.00    -0.020 C 
HETATM   15  C11 UNL     1      26.740   6.625  48.367  1.00  0.00     0.012 C 
BRANCH  14  16
HETATM   16  C12 UNL     1      27.855   4.842  48.564  1.00  0.00     0.038 C 
BRANCH  16  17
HETATM   17  C13 UNL     1      28.779   5.926  48.217  1.00  0.00    -0.026 C 
HETATM   18  C14 UNL     1      30.057   5.821  47.899  1.00  0.00    -0.003 C 
BRANCH  18  19
HETATM   19  C15 UNL     1      30.803   7.027  47.586  1.00  0.00     0.016 C 
HETATM   20  C16 UNL     1      31.350   7.737  48.544  1.00  0.00     0.080 C 
BRANCH  20  21
HETATM   21  N1  UNL     1      31.462   7.703  49.956  1.00  0.00    -0.408 N 
HETATM   22  H17 UNL     1      31.622   6.844  50.526  1.00  0.00     0.155 HD
HETATM   23  H18 UNL     1      31.409   8.497  50.654  1.00  0.00     0.155 HD
ENDBRANCH  20  21
ENDBRANCH  18  19
ENDBRANCH  16  17
ENDBRANCH  14  16
ENDBRANCH  13  14
ENDBRANCH   1  13
TORSDOF 8
ENDMDL
MODEL 4
REMARK VINA RESULT:      -6.5      3.747      5.704
REMARK  8 active torsions:
REMARK  status: ('A' for Active; 'I' for Inactive)
REMARK    1  A    between atoms: C2_2  and  C3_3 
REMARK    2  A    between atoms: C8_9  and  S1_10 
REMARK    3  A    between atoms: S1_10  and  C9_11 
REMARK    4  A    between atoms: C9_11  and  C10_12 
REMARK    5  A    between atoms: C10_12  and  C12_14 
REMARK    6  A    between atoms: C12_14  and  C13_15 
REMARK    7  A    between atoms: C14_16  and  C15_17 
REMARK    8  A    between atoms: C16_18  and  N1_19 
ROOT
HETATM    1  S1  UNL     1      24.537   3.394  52.140  1.00  0.00    -0.138 SA
ENDROOT
BRANCH   1   2
HETATM    2  C8  UNL     1      23.010   2.683  51.571  1.00  0.00     0.076 C 
HETATM    3  C7  UNL     1      22.582   1.553  52.108  1.00  0.00     0.060 A 
HETATM    4  C6  UNL     1      21.336   0.900  51.696  1.00  0.00     0.061 A 
HETATM    5  N2  UNL     1      23.326   0.903  53.133  1.00  0.00    -0.354 N 
HETATM    6  C5  UNL     1      20.979  -0.230  52.286  1.00  0.00     0.028 A 
HETATM    7 CL1  UNL     1      20.354   1.617  50.450  1.00  0.00    -0.082 Cl
HETATM    8  C4  UNL     1      21.739  -0.897  53.335  1.00  0.00     0.031 A 
HETATM    9  C3  UNL     1      22.859  -0.313  53.706  1.00  0.00     0.031 A 
HETATM   10  H19 UNL     1      24.211   1.377  53.415  1.00  0.00     0.166 HD
BRANCH   9  11
HETATM   11  C2  UNL     1      23.694  -0.881  54.734  1.00  0.00     0.019 C 
HETATM   12  C1  UNL     1      25.010  -0.825  54.823  1.00  0.00     0.013 C 
ENDBRANCH   9  11
ENDBRANCH   1   2
BRANCH   1  13
HETATM   13  C9  UNL     1      25.899   2.747  51.124  1.00  0.00     0.089 C 
BRANCH  13  14
HETATM   14  C10 UNL     1      26.438   1.522  51.791  1.00  0.00    -0.020 C 
HETATM   15  C11 UNL     1      26.522   0.202  51.692  1.00  0.00     0.012 C 
BRANCH  14  16
HETATM   16  C12 UNL     1      27.202   1.646  53.076  1.00  0.00     0.038 C 
BRANCH  16  17
HETATM   17  C13 UNL     1      28.294   0.668  53.047  1.00  0.00    -0.026 C 
HETATM   18  C14 UNL     1      28.686  -0.128  54.026  1.00  0.00    -0.003 C 
BRANCH  18  19
HETATM   19  C15 UNL     1      29.799  -1.032  53.792  1.00  0.00     0.016 C 
HETATM   20  C16 UNL     1      29.581  -2.267  53.410  1.00  0.00     0.080 C 
BRANCH  20  21
HETATM   21  N1  UNL     1      28.478  -3.107  53.115  1.00  0.00    -0.408 N 
HETATM   22  H17 UNL     1      27.767  -2.928  52.374  1.00  0.00     0.155 HD
HETATM   23  H18 UNL     1      28.188  -4.019  53.567  1.00  0.00     0.155 HD
ENDBRANCH  20  21
ENDBRANCH  18  19
ENDBRANCH  16  17
ENDBRANCH  14  16
ENDBRANCH  13  14
ENDBRANCH   1  13
TORSDOF 8
ENDMDL
MODEL 5
REMARK VINA RESULT:      -6.4      2.571      4.141
REMARK  8 active torsions:
REMARK  status: ('A' for Active; 'I' for Inactive)
REMARK    1  A    between atoms: C2_2  and  C3_3 
REMARK    2  A    between atoms: C8_9  and  S1_10 
REMARK    3  A    between atoms: S1_10  and  C9_11 
REMARK    4  A    between atoms: C9_11  and  C10_12 
REMARK    5  A    between atoms: C10_12  and  C12_14 
REMARK    6  A    between atoms: C12_14  and  C13_15 
REMARK    7  A    between atoms: C14_16  and  C15_17 
REMARK    8  A    between atoms: C16_18  and  N1_19 
ROOT
HETATM    1  S1  UNL     1      23.611   2.102  51.172  1.00  0.00    -0.138 SA
ENDROOT
BRANCH   1   2
HETATM    2  C8  UNL     1      24.071   1.001  52.490  1.00  0.00     0.076 C 
HETATM    3  C7  UNL     1      23.141   0.265  53.075  1.00  0.00     0.060 A 
HETATM    4  C6  UNL     1      23.435  -0.665  54.167  1.00  0.00     0.061 A 
HETATM    5  N2  UNL     1      21.781   0.345  52.663  1.00  0.00    -0.354 N 
HETATM    6  C5  UNL     1      22.444  -1.365  54.697  1.00  0.00     0.028 A 
HETATM    7 CL1  UNL     1      25.069  -0.835  54.744  1.00  0.00    -0.082 Cl
HETATM    8  C4  UNL     1      21.052  -1.286  54.277  1.00  0.00     0.031 A 
HETATM    9  C3  UNL     1      20.784  -0.449  53.296  1.00  0.00     0.031 A 
HETATM   10  H19 UNL     1      21.585   1.012  51.885  1.00  0.00     0.166 HD
BRANCH   9  11
HETATM   11  C2  UNL     1      19.443  -0.286  52.797  1.00  0.00     0.019 C 
HETATM   12  C1  UNL     1      18.363  -0.950  53.165  1.00  0.00     0.013 C 
ENDBRANCH   9  11
ENDBRANCH   1   2
BRANCH   1  13
HETATM   13  C9  UNL     1      24.569   3.640  51.332  1.00  0.00     0.089 C 
BRANCH  13  14
HETATM   14  C10 UNL     1      25.527   3.715  50.186  1.00  0.00    -0.020 C 
HETATM   15  C11 UNL     1      26.507   3.069  49.568  1.00  0.00     0.012 C 
BRANCH  14  16
HETATM   16  C12 UNL     1      25.516   4.912  49.281  1.00  0.00     0.038 C 
BRANCH  16  17
HETATM   17  C13 UNL     1      26.896   5.166  48.855  1.00  0.00    -0.026 C 
HETATM   18  C14 UNL     1      27.375   6.267  48.302  1.00  0.00    -0.003 C 
BRANCH  18  19
HETATM   19  C15 UNL     1      28.784   6.317  47.950  1.00  0.00     0.016 C 
HETATM   20  C16 UNL     1      29.566   7.233  48.468  1.00  0.00     0.080 C 
BRANCH  20  21
HETATM   21  N1  UNL     1      29.469   8.322  49.371  1.00  0.00    -0.408 N 
HETATM   22  H17 UNL     1      29.634   8.266  50.399  1.00  0.00     0.155 HD
HETATM   23  H18 UNL     1      29.227   9.334  49.180  1.00  0.00     0.155 HD
ENDBRANCH  20  21
ENDBRANCH  18  19
ENDBRANCH  16  17
ENDBRANCH  14  16
ENDBRANCH  13  14
ENDBRANCH   1  13
TORSDOF 8
ENDMDL
MODEL 6
REMARK VINA RESULT:      -6.4      2.123      3.448
REMARK  8 active torsions:
REMARK  status: ('A' for Active; 'I' for Inactive)
REMARK    1  A    between atoms: C2_2  and  C3_3 
REMARK    2  A    between atoms: C8_9  and  S1_10 
REMARK    3  A    between atoms: S1_10  and  C9_11 
REMARK    4  A    between atoms: C9_11  and  C10_12 
REMARK    5  A    between atoms: C10_12  and  C12_14 
REMARK    6  A    between atoms: C12_14  and  C13_15 
REMARK    7  A    between atoms: C14_16  and  C15_17 
REMARK    8  A    between atoms: C16_18  and  N1_19 
ROOT
HETATM    1  S1  UNL     1      25.635   3.190  50.259  1.00  0.00    -0.138 SA
ENDROOT
BRANCH   1   2
HETATM    2  C8  UNL     1      26.417   1.992  51.315  1.00  0.00     0.076 C 
HETATM    3  C7  UNL     1      25.667   1.184  52.045  1.00  0.00     0.060 A 
HETATM    4  C6  UNL     1      26.231   0.171  52.941  1.00  0.00     0.061 A 
HETATM    5  N2  UNL     1      24.247   1.263  51.997  1.00  0.00    -0.354 N 
HETATM    6  C5  UNL     1      25.408  -0.598  53.638  1.00  0.00     0.028 A 
HETATM    7 CL1  UNL     1      27.958  -0.006  53.071  1.00  0.00    -0.082 Cl
HETATM    8  C4  UNL     1      23.954  -0.519  53.589  1.00  0.00     0.031 A 
HETATM    9  C3  UNL     1      23.445   0.392  52.786  1.00  0.00     0.031 A 
HETATM   10  H19 UNL     1      23.859   1.990  51.357  1.00  0.00     0.166 HD
BRANCH   9  11
HETATM   11  C2  UNL     1      22.020   0.563  52.657  1.00  0.00     0.019 C 
HETATM   12  C1  UNL     1      21.272   0.295  51.602  1.00  0.00     0.013 C 
ENDBRANCH   9  11
ENDBRANCH   1   2
BRANCH   1  13
HETATM   13  C9  UNL     1      26.919   4.049  49.298  1.00  0.00     0.089 C 
BRANCH  13  14
HETATM   14  C10 UNL     1      26.379   5.381  48.884  1.00  0.00    -0.020 C 
HETATM   15  C11 UNL     1      25.272   6.106  48.802  1.00  0.00     0.012 C 
BRANCH  14  16
HETATM   16  C12 UNL     1      27.305   6.420  48.322  1.00  0.00     0.038 C 
BRANCH  16  17
HETATM   17  C13 UNL     1      28.634   5.815  48.192  1.00  0.00    -0.026 C 
HETATM   18  C14 UNL     1      29.791   6.440  48.061  1.00  0.00    -0.003 C 
BRANCH  18  19
HETATM   19  C15 UNL     1      31.005   5.651  47.946  1.00  0.00     0.016 C 
HETATM   20  C16 UNL     1      31.773   5.459  48.992  1.00  0.00     0.080 C 
BRANCH  20  21
HETATM   21  N1  UNL     1      31.805   5.814  50.364  1.00  0.00    -0.408 N 
HETATM   22  H17 UNL     1      32.670   5.937  50.933  1.00  0.00     0.155 HD
HETATM   23  H18 UNL     1      31.003   6.011  51.026  1.00  0.00     0.155 HD
ENDBRANCH  20  21
ENDBRANCH  18  19
ENDBRANCH  16  17
ENDBRANCH  14  16
ENDBRANCH  13  14
ENDBRANCH   1  13
TORSDOF 8
ENDMDL
MODEL 7
REMARK VINA RESULT:      -6.4      3.261      6.871
REMARK  8 active torsions:
REMARK  status: ('A' for Active; 'I' for Inactive)
REMARK    1  A    between atoms: C2_2  and  C3_3 
REMARK    2  A    between atoms: C8_9  and  S1_10 
REMARK    3  A    between atoms: S1_10  and  C9_11 
REMARK    4  A    between atoms: C9_11  and  C10_12 
REMARK    5  A    between atoms: C10_12  and  C12_14 
REMARK    6  A    between atoms: C12_14  and  C13_15 
REMARK    7  A    between atoms: C14_16  and  C15_17 
REMARK    8  A    between atoms: C16_18  and  N1_19 
ROOT
HETATM    1  S1  UNL     1      26.372   3.131  50.320  1.00  0.00    -0.138 SA
ENDROOT
BRANCH   1   2
HETATM    2  C8  UNL     1      24.805   3.879  50.702  1.00  0.00     0.076 C 
HETATM    3  C7  UNL     1      24.677   5.193  50.620  1.00  0.00     0.060 A 
HETATM    4  C6  UNL     1      23.422   5.888  50.918  1.00  0.00     0.061 A 
HETATM    5  N2  UNL     1      25.775   6.011  50.232  1.00  0.00    -0.354 N 
HETATM    6  C5  UNL     1      23.379   7.207  50.812  1.00  0.00     0.028 A 
HETATM    7 CL1  UNL     1      22.020   4.975  51.401  1.00  0.00    -0.082 Cl
HETATM    8  C4  UNL     1      24.501   8.046  50.415  1.00  0.00     0.031 A 
HETATM    9  C3  UNL     1      25.631   7.424  50.147  1.00  0.00     0.031 A 
HETATM   10  H19 UNL     1      26.662   5.503  50.025  1.00  0.00     0.166 HD
BRANCH   9  11
HETATM   11  C2  UNL     1      26.808   8.151  49.745  1.00  0.00     0.019 C 
HETATM   12  C1  UNL     1      27.244   9.301  50.223  1.00  0.00     0.013 C 
ENDBRANCH   9  11
ENDBRANCH   1   2
BRANCH   1  13
HETATM   13  C9  UNL     1      26.525   1.580  51.259  1.00  0.00     0.089 C 
BRANCH  13  14
HETATM   14  C10 UNL     1      26.138   1.854  52.677  1.00  0.00    -0.020 C 
HETATM   15  C11 UNL     1      25.106   2.088  53.477  1.00  0.00     0.012 C 
BRANCH  14  16
HETATM   16  C12 UNL     1      27.195   1.928  53.739  1.00  0.00     0.038 C 
BRANCH  16  17
HETATM   17  C13 UNL     1      28.260   0.986  53.381  1.00  0.00    -0.026 C 
HETATM   18  C14 UNL     1      28.572  -0.143  53.992  1.00  0.00    -0.003 C 
BRANCH  18  19
HETATM   19  C15 UNL     1      29.671  -0.940  53.474  1.00  0.00     0.016 C 
HETATM   20  C16 UNL     1      29.502  -2.213  53.213  1.00  0.00     0.080 C 
BRANCH  20  21
HETATM   21  N1  UNL     1      28.469  -3.182  53.280  1.00  0.00    -0.408 N 
HETATM   22  H17 UNL     1      27.448  -2.972  53.271  1.00  0.00     0.155 HD
HETATM   23  H18 UNL     1      28.539  -4.236  53.347  1.00  0.00     0.155 HD
ENDBRANCH  20  21
ENDBRANCH  18  19
ENDBRANCH  16  17
ENDBRANCH  14  16
ENDBRANCH  13  14
ENDBRANCH   1  13
TORSDOF 8
ENDMDL
MODEL 8
REMARK VINA RESULT:      -6.4      3.678      5.268
REMARK  8 active torsions:
REMARK  status: ('A' for Active; 'I' for Inactive)
REMARK    1  A    between atoms: C2_2  and  C3_3 
REMARK    2  A    between atoms: C8_9  and  S1_10 
REMARK    3  A    between atoms: S1_10  and  C9_11 
REMARK    4  A    between atoms: C9_11  and  C10_12 
REMARK    5  A    between atoms: C10_12  and  C12_14 
REMARK    6  A    between atoms: C12_14  and  C13_15 
REMARK    7  A    between atoms: C14_16  and  C15_17 
REMARK    8  A    between atoms: C16_18  and  N1_19 
ROOT
HETATM    1  S1  UNL     1      21.613   2.753  51.566  1.00  0.00    -0.138 SA
ENDROOT
BRANCH   1   2
HETATM    2  C8  UNL     1      20.445   1.500  52.044  1.00  0.00     0.076 C 
HETATM    3  C7  UNL     1      20.841   0.508  52.824  1.00  0.00     0.060 A 
HETATM    4  C6  UNL     1      19.944  -0.564  53.263  1.00  0.00     0.061 A 
HETATM    5  N2  UNL     1      22.186   0.433  53.284  1.00  0.00    -0.354 N 
HETATM    6  C5  UNL     1      20.422  -1.519  54.044  1.00  0.00     0.028 A 
HETATM    7 CL1  UNL     1      18.278  -0.562  52.754  1.00  0.00    -0.082 Cl
HETATM    8  C4  UNL     1      21.797  -1.598  54.516  1.00  0.00     0.031 A 
HETATM    9  C3  UNL     1      22.606  -0.636  54.123  1.00  0.00     0.031 A 
HETATM   10  H19 UNL     1      22.814   1.202  52.963  1.00  0.00     0.166 HD
BRANCH   9  11
HETATM   11  C2  UNL     1      23.989  -0.610  54.526  1.00  0.00     0.019 C 
HETATM   12  C1  UNL     1      24.542  -1.250  55.540  1.00  0.00     0.013 C 
ENDBRANCH   9  11
ENDBRANCH   1   2
BRANCH   1  13
HETATM   13  C9  UNL     1      22.665   2.095  50.236  1.00  0.00     0.089 C 
BRANCH  13  14
HETATM   14  C10 UNL     1      23.994   2.779  50.311  1.00  0.00    -0.020 C 
HETATM   15  C11 UNL     1      24.859   3.509  49.621  1.00  0.00     0.012 C 
BRANCH  14  16
HETATM   16  C12 UNL     1      24.795   2.717  51.578  1.00  0.00     0.038 C 
BRANCH  16  17
HETATM   17  C13 UNL     1      25.297   1.348  51.727  1.00  0.00    -0.026 C 
HETATM   18  C14 UNL     1      26.528   0.972  52.027  1.00  0.00    -0.003 C 
BRANCH  18  19
HETATM   19  C15 UNL     1      26.822  -0.447  52.127  1.00  0.00     0.016 C 
HETATM   20  C16 UNL     1      27.451  -0.922  53.175  1.00  0.00     0.080 C 
BRANCH  20  21
HETATM   21  N1  UNL     1      28.003  -0.440  54.389  1.00  0.00    -0.408 N 
HETATM   22  H17 UNL     1      27.952  -0.929  55.308  1.00  0.00     0.155 HD
HETATM   23  H18 UNL     1      28.539   0.453  54.575  1.00  0.00     0.155 HD
ENDBRANCH  20  21
ENDBRANCH  18  19
ENDBRANCH  16  17
ENDBRANCH  14  16
ENDBRANCH  13  14
ENDBRANCH   1  13
TORSDOF 8
ENDMDL
MODEL 9
REMARK VINA RESULT:      -6.4      3.065      5.756
REMARK  8 active torsions:
REMARK  status: ('A' for Active; 'I' for Inactive)
REMARK    1  A    between atoms: C2_2  and  C3_3 
REMARK    2  A    between atoms: C8_9  and  S1_10 
REMARK    3  A    between atoms: S1_10  and  C9_11 
REMARK    4  A    between atoms: C9_11  and  C10_12 
REMARK    5  A    between atoms: C10_12  and  C12_14 
REMARK    6  A    between atoms: C12_14  and  C13_15 
REMARK    7  A    between atoms: C14_16  and  C15_17 
REMARK    8  A    between atoms: C16_18  and  N1_19 
ROOT
HETATM    1  S1  UNL     1      23.303   2.316  51.823  1.00  0.00    -0.138 SA
ENDROOT
BRANCH   1   2
HETATM    2  C8  UNL     1      23.569   1.041  53.034  1.00  0.00     0.076 C 
HETATM    3  C7  UNL     1      22.567   0.245  53.368  1.00  0.00     0.060 A 
HETATM    4  C6  UNL     1      22.702  -0.828  54.357  1.00  0.00     0.061 A 
HETATM    5  N2  UNL     1      21.284   0.397  52.772  1.00  0.00    -0.354 N 
HETATM    6  C5  UNL     1      21.648  -1.580  54.633  1.00  0.00     0.028 A 
HETATM    7 CL1  UNL     1      24.233  -1.094  55.143  1.00  0.00    -0.082 Cl
HETATM    8  C4  UNL     1      20.334  -1.427  54.024  1.00  0.00     0.031 A 
HETATM    9  C3  UNL     1      20.210  -0.463  53.136  1.00  0.00     0.031 A 
HETATM   10  H19 UNL     1      21.202   1.165  52.071  1.00  0.00     0.166 HD
BRANCH   9  11
HETATM   11  C2  UNL     1      18.957  -0.217  52.469  1.00  0.00     0.019 C 
HETATM   12  C1  UNL     1      17.835  -0.902  52.589  1.00  0.00     0.013 C 
ENDBRANCH   9  11
ENDBRANCH   1   2
BRANCH   1  13
HETATM   13  C9  UNL     1      24.657   3.524  51.937  1.00  0.00     0.089 C 
BRANCH  13  14
HETATM   14  C10 UNL     1      25.537   3.354  50.739  1.00  0.00    -0.020 C 
HETATM   15  C11 UNL     1      25.843   3.871  49.557  1.00  0.00     0.012 C 
BRANCH  14  16
HETATM   16  C12 UNL     1      26.508   2.212  50.681  1.00  0.00     0.038 C 
BRANCH  16  17
HETATM   17  C13 UNL     1      26.967   1.942  52.047  1.00  0.00    -0.026 C 
HETATM   18  C14 UNL     1      27.124   0.763  52.623  1.00  0.00    -0.003 C 
BRANCH  18  19
HETATM   19  C15 UNL     1      27.594   0.711  53.997  1.00  0.00     0.016 C 
HETATM   20  C16 UNL     1      28.877   0.645  54.257  1.00  0.00     0.080 C 
BRANCH  20  21
HETATM   21  N1  UNL     1      30.103   0.603  53.546  1.00  0.00    -0.408 N 
HETATM   22  H17 UNL     1      30.249   0.963  52.578  1.00  0.00     0.155 HD
HETATM   23  H18 UNL     1      31.042   0.221  53.848  1.00  0.00     0.155 HD
ENDBRANCH  20  21
ENDBRANCH  18  19
ENDBRANCH  16  17
ENDBRANCH  14  16
ENDBRANCH  13  14
ENDBRANCH   1  13
TORSDOF 8
ENDMDL
