MODEL 1
REMARK VINA RESULT:      -8.1      0.000      0.000
REMARK  6 active torsions:
REMARK  status: ('A' for Active; 'I' for Inactive)
REMARK    1  A    between atoms: N1_6  and  C6_7 
REMARK    2  A    between atoms: C6_7  and  C7_8 
REMARK    3  A    between atoms: C7_8  and  O1_9 
REMARK    4  A    between atoms: O1_9  and  C8_10 
REMARK    5  A    between atoms: C12_15  and  N3_16 
REMARK    6  A    between atoms: N3_16  and  C13_17 
ROOT
HETATM    1  C8  UNL     1      23.462   3.284  50.701  1.00  0.00     0.163 C 
HETATM    2  C9  UNL     1      23.551   3.296  49.208  1.00  0.00     0.078 C 
HETATM    3  C10 UNL     1      24.946   3.752  49.347  1.00  0.00    -0.011 C 
HETATM    4  C11 UNL     1      26.175   4.189  49.375  1.00  0.00     0.095 C 
HETATM    5  N2  UNL     1      26.946   3.414  50.071  1.00  0.00    -0.228 NA
HETATM    6  C12 UNL     1      26.169   2.998  51.216  1.00  0.00     0.138 C 
HETATM    7  C19 UNL     1      24.945   3.232  50.710  1.00  0.00     0.026 C 
ENDROOT
BRANCH   6   8
HETATM    8  N3  UNL     1      26.434   2.488  52.516  1.00  0.00    -0.340 N 
HETATM    9  H18 UNL     1      25.822   3.029  53.165  1.00  0.00     0.167 HD
BRANCH   8  10
HETATM   10  C13 UNL     1      27.338   1.462  52.884  1.00  0.00     0.035 A 
HETATM   11  C14 UNL     1      28.513   1.829  53.484  1.00  0.00     0.032 A 
HETATM   12  C15 UNL     1      29.354   0.770  53.817  1.00  0.00     0.046 A 
HETATM   13  C16 UNL     1      28.994  -0.551  53.545  1.00  0.00     0.138 A 
HETATM   14  F1  UNL     1      29.806  -1.602  53.864  1.00  0.00    -0.204 F 
HETATM   15  C17 UNL     1      27.788  -0.862  52.933  1.00  0.00     0.074 A 
HETATM   16 CL1  UNL     1      27.316  -2.497  52.584  1.00  0.00    -0.081 Cl
HETATM   17  C18 UNL     1      26.930   0.186  52.592  1.00  0.00     0.056 A 
ENDBRANCH   8  10
ENDBRANCH   6   8
BRANCH   1  18
HETATM   18  O1  UNL     1      22.874   4.329  51.322  1.00  0.00    -0.379 OA
BRANCH  18  19
HETATM   19  C7  UNL     1      21.825   4.100  52.160  1.00  0.00     0.199 C 
BRANCH  19  20
HETATM   20  C6  UNL     1      20.897   3.001  51.690  1.00  0.00     0.299 C 
BRANCH  20  21
HETATM   21  N1  UNL     1      20.429   2.133  52.733  1.00  0.00     0.094 N 
HETATM   22  C2  UNL     1      21.442   1.158  53.094  1.00  0.00     0.219 C 
HETATM   23  C1  UNL     1      20.931   0.209  54.154  1.00  0.00     0.043 C 
HETATM   24  C3  UNL     1      21.625   0.315  51.830  1.00  0.00     0.037 C 
HETATM   25  C4  UNL     1      20.234   0.311  51.290  1.00  0.00     0.032 C 
HETATM   26  C5  UNL     1      19.409   1.218  52.187  1.00  0.00     0.273 C 
ENDBRANCH  20  21
ENDBRANCH  19  20
ENDBRANCH  18  19
ENDBRANCH   1  18
TORSDOF 6
ENDMDL
MODEL 2
REMARK VINA RESULT:      -8.0      1.351      2.086
REMARK  6 active torsions:
REMARK  status: ('A' for Active; 'I' for Inactive)
REMARK    1  A    between atoms: N1_6  and  C6_7 
REMARK    2  A    between atoms: C6_7  and  C7_8 
REMARK    3  A    between atoms: C7_8  and  O1_9 
REMARK    4  A    between atoms: O1_9  and  C8_10 
REMARK    5  A    between atoms: C12_15  and  N3_16 
REMARK    6  A    between atoms: N3_16  and  C13_17 
ROOT
HETATM    1  C8  UNL     1      23.585   2.612  50.605  1.00  0.00     0.163 C 
HETATM    2  C9  UNL     1      23.620   2.902  49.138  1.00  0.00     0.078 C 
HETATM    3  C10 UNL     1      24.858   3.668  49.373  1.00  0.00    -0.011 C 
HETATM    4  C11 UNL     1      25.935   4.393  49.492  1.00  0.00     0.095 C 
HETATM    5  N2  UNL     1      26.900   3.734  50.053  1.00  0.00    -0.228 NA
HETATM    6  C12 UNL     1      26.290   2.943  51.099  1.00  0.00     0.138 C 
HETATM    7  C19 UNL     1      25.032   2.940  50.625  1.00  0.00     0.026 C 
ENDROOT
BRANCH   6   8
HETATM    8  N3  UNL     1      26.718   2.304  52.294  1.00  0.00    -0.340 N 
HETATM    9  H18 UNL     1      26.760   3.054  53.019  1.00  0.00     0.167 HD
BRANCH   8  10
HETATM   10  C13 UNL     1      27.030   0.937  52.490  1.00  0.00     0.035 A 
HETATM   11  C14 UNL     1      26.076   0.010  52.167  1.00  0.00     0.032 A 
HETATM   12  C15 UNL     1      26.449  -1.314  52.387  1.00  0.00     0.046 A 
HETATM   13  C16 UNL     1      27.709  -1.633  52.898  1.00  0.00     0.138 A 
HETATM   14  F1  UNL     1      28.093  -2.925  53.119  1.00  0.00    -0.204 F 
HETATM   15  C17 UNL     1      28.636  -0.648  53.208  1.00  0.00     0.074 A 
HETATM   16 CL1  UNL     1      30.209  -1.018  53.844  1.00  0.00    -0.081 Cl
HETATM   17  C18 UNL     1      28.281   0.686  52.994  1.00  0.00     0.056 A 
ENDBRANCH   8  10
ENDBRANCH   6   8
BRANCH   1  18
HETATM   18  O1  UNL     1      22.770   3.350  51.390  1.00  0.00    -0.379 OA
BRANCH  18  19
HETATM   19  C7  UNL     1      21.904   2.717  52.230  1.00  0.00     0.199 C 
BRANCH  19  20
HETATM   20  C6  UNL     1      22.422   1.399  52.762  1.00  0.00     0.299 C 
BRANCH  20  21
HETATM   21  N1  UNL     1      21.532   0.290  52.568  1.00  0.00     0.094 N 
HETATM   22  C2  UNL     1      20.419   0.344  53.497  1.00  0.00     0.219 C 
HETATM   23  C1  UNL     1      19.511  -0.853  53.329  1.00  0.00     0.043 C 
HETATM   24  C3  UNL     1      21.067   0.187  54.874  1.00  0.00     0.037 C 
HETATM   25  C4  UNL     1      22.191  -0.740  54.554  1.00  0.00     0.032 C 
HETATM   26  C5  UNL     1      22.178  -0.946  53.048  1.00  0.00     0.273 C 
ENDBRANCH  20  21
ENDBRANCH  19  20
ENDBRANCH  18  19
ENDBRANCH   1  18
TORSDOF 6
ENDMDL
MODEL 3
REMARK VINA RESULT:      -7.9      2.068      4.448
REMARK  6 active torsions:
REMARK  status: ('A' for Active; 'I' for Inactive)
REMARK    1  A    between atoms: N1_6  and  C6_7 
REMARK    2  A    between atoms: C6_7  and  C7_8 
REMARK    3  A    between atoms: C7_8  and  O1_9 
REMARK    4  A    between atoms: O1_9  and  C8_10 
REMARK    5  A    between atoms: C12_15  and  N3_16 
REMARK    6  A    between atoms: N3_16  and  C13_17 
ROOT
HETATM    1  C8  UNL     1      21.317   0.638  52.994  1.00  0.00     0.163 C 
HETATM    2  C9  UNL     1      20.672   0.433  54.328  1.00  0.00     0.078 C 
HETATM    3  C10 UNL     1      21.709  -0.576  54.615  1.00  0.00    -0.011 C 
HETATM    4  C11 UNL     1      22.564  -1.506  54.939  1.00  0.00     0.095 C 
HETATM    5  N2  UNL     1      23.787  -1.084  54.860  1.00  0.00    -0.228 NA
HETATM    6  C12 UNL     1      23.849  -0.250  53.681  1.00  0.00     0.138 C 
HETATM    7  C19 UNL     1      22.537   0.029  53.578  1.00  0.00     0.026 C 
ENDROOT
BRANCH   6   8
HETATM    8  N3  UNL     1      24.859   0.221  52.799  1.00  0.00    -0.340 N 
HETATM    9  H18 UNL     1      24.364   0.517  51.930  1.00  0.00     0.167 HD
BRANCH   8  10
HETATM   10  C13 UNL     1      26.256   0.284  53.026  1.00  0.00     0.035 A 
HETATM   11  C14 UNL     1      26.814   1.516  53.240  1.00  0.00     0.032 A 
HETATM   12  C15 UNL     1      28.190   1.504  53.455  1.00  0.00     0.046 A 
HETATM   13  C16 UNL     1      28.912   0.309  53.445  1.00  0.00     0.138 A 
HETATM   14  F1  UNL     1      30.262   0.279  53.653  1.00  0.00    -0.204 F 
HETATM   15  C17 UNL     1      28.290  -0.911  53.221  1.00  0.00     0.074 A 
HETATM   16 CL1  UNL     1      29.165  -2.412  53.204  1.00  0.00    -0.081 Cl
HETATM   17  C18 UNL     1      26.910  -0.921  53.005  1.00  0.00     0.056 A 
ENDBRANCH   8  10
ENDBRANCH   6   8
BRANCH   1  18
HETATM   18  O1  UNL     1      20.776   0.032  51.915  1.00  0.00    -0.379 OA
BRANCH  18  19
HETATM   19  C7  UNL     1      20.620   0.741  50.762  1.00  0.00     0.199 C 
BRANCH  19  20
HETATM   20  C6  UNL     1      21.924   1.193  50.143  1.00  0.00     0.299 C 
BRANCH  20  21
HETATM   21  N1  UNL     1      21.912   2.542  49.651  1.00  0.00     0.094 N 
HETATM   22  C2  UNL     1      23.214   2.920  49.133  1.00  0.00     0.219 C 
HETATM   23  C1  UNL     1      23.216   4.358  48.664  1.00  0.00     0.043 C 
HETATM   24  C3  UNL     1      24.134   2.878  50.355  1.00  0.00     0.037 C 
HETATM   25  C4  UNL     1      23.201   3.328  51.428  1.00  0.00     0.032 C 
HETATM   26  C5  UNL     1      21.831   3.477  50.788  1.00  0.00     0.273 C 
ENDBRANCH  20  21
ENDBRANCH  19  20
ENDBRANCH  18  19
ENDBRANCH   1  18
TORSDOF 6
ENDMDL
MODEL 4
REMARK VINA RESULT:      -7.9      2.271      4.594
REMARK  6 active torsions:
REMARK  status: ('A' for Active; 'I' for Inactive)
REMARK    1  A    between atoms: N1_6  and  C6_7 
REMARK    2  A    between atoms: C6_7  and  C7_8 
REMARK    3  A    between atoms: C7_8  and  O1_9 
REMARK    4  A    between atoms: O1_9  and  C8_10 
REMARK    5  A    between atoms: C12_15  and  N3_16 
REMARK    6  A    between atoms: N3_16  and  C13_17 
ROOT
HETATM    1  C8  UNL     1      21.388   0.693  52.992  1.00  0.00     0.163 C 
HETATM    2  C9  UNL     1      20.621   0.401  54.243  1.00  0.00     0.078 C 
HETATM    3  C10 UNL     1      21.604  -0.657  54.537  1.00  0.00    -0.011 C 
HETATM    4  C11 UNL     1      22.406  -1.634  54.858  1.00  0.00     0.095 C 
HETATM    5  N2  UNL     1      23.640  -1.244  54.923  1.00  0.00    -0.228 NA
HETATM    6  C12 UNL     1      23.827  -0.321  53.826  1.00  0.00     0.138 C 
HETATM    7  C19 UNL     1      22.537   0.005  53.630  1.00  0.00     0.026 C 
ENDROOT
BRANCH   6   8
HETATM    8  N3  UNL     1      24.923   0.189  53.079  1.00  0.00    -0.340 N 
HETATM    9  H18 UNL     1      24.510   0.829  52.366  1.00  0.00     0.167 HD
BRANCH   8  10
HETATM   10  C13 UNL     1      26.301  -0.096  53.245  1.00  0.00     0.035 A 
HETATM   11  C14 UNL     1      26.744  -1.342  52.891  1.00  0.00     0.032 A 
HETATM   12  C15 UNL     1      28.107  -1.553  53.082  1.00  0.00     0.046 A 
HETATM   13  C16 UNL     1      28.928  -0.548  53.597  1.00  0.00     0.138 A 
HETATM   14  F1  UNL     1      30.267  -0.737  53.791  1.00  0.00    -0.204 F 
HETATM   15  C17 UNL     1      28.420   0.698  53.940  1.00  0.00     0.074 A 
HETATM   16 CL1  UNL     1      29.420   1.965  54.583  1.00  0.00    -0.081 Cl
HETATM   17  C18 UNL     1      27.056   0.930  53.755  1.00  0.00     0.056 A 
ENDBRANCH   8  10
ENDBRANCH   6   8
BRANCH   1  18
HETATM   18  O1  UNL     1      20.934   0.191  51.824  1.00  0.00    -0.379 OA
BRANCH  18  19
HETATM   19  C7  UNL     1      20.946   0.978  50.712  1.00  0.00     0.199 C 
BRANCH  19  20
HETATM   20  C6  UNL     1      21.285   2.425  50.993  1.00  0.00     0.299 C 
BRANCH  20  21
HETATM   21  N1  UNL     1      22.346   2.955  50.185  1.00  0.00     0.094 N 
HETATM   22  C2  UNL     1      23.643   2.634  50.751  1.00  0.00     0.219 C 
HETATM   23  C1  UNL     1      24.760   3.237  49.929  1.00  0.00     0.043 C 
HETATM   24  C3  UNL     1      23.665   3.372  52.092  1.00  0.00     0.037 C 
HETATM   25  C4  UNL     1      22.882   4.596  51.753  1.00  0.00     0.032 C 
HETATM   26  C5  UNL     1      22.385   4.422  50.327  1.00  0.00     0.273 C 
ENDBRANCH  20  21
ENDBRANCH  19  20
ENDBRANCH  18  19
ENDBRANCH   1  18
TORSDOF 6
ENDMDL
MODEL 5
REMARK VINA RESULT:      -7.9      3.310      7.295
REMARK  6 active torsions:
REMARK  status: ('A' for Active; 'I' for Inactive)
REMARK    1  A    between atoms: N1_6  and  C6_7 
REMARK    2  A    between atoms: C6_7  and  C7_8 
REMARK    3  A    between atoms: C7_8  and  O1_9 
REMARK    4  A    between atoms: O1_9  and  C8_10 
REMARK    5  A    between atoms: C12_15  and  N3_16 
REMARK    6  A    between atoms: N3_16  and  C13_17 
ROOT
HETATM    1  C8  UNL     1      23.059  -1.073  53.553  1.00  0.00     0.163 C 
HETATM    2  C9  UNL     1      22.254  -1.487  54.745  1.00  0.00     0.078 C 
HETATM    3  C10 UNL     1      21.311  -0.402  54.419  1.00  0.00    -0.011 C 
HETATM    4  C11 UNL     1      20.444   0.553  54.227  1.00  0.00     0.095 C 
HETATM    5  N2  UNL     1      19.928   0.503  53.039  1.00  0.00    -0.228 NA
HETATM    6  C12 UNL     1      21.008   0.147  52.146  1.00  0.00     0.138 C 
HETATM    7  C19 UNL     1      21.831  -0.404  53.056  1.00  0.00     0.026 C 
ENDROOT
BRANCH   6   8
HETATM    8  N3  UNL     1      21.281   0.262  50.757  1.00  0.00    -0.340 N 
HETATM    9  H18 UNL     1      20.890  -0.599  50.316  1.00  0.00     0.167 HD
BRANCH   8  10
HETATM   10  C13 UNL     1      21.947   1.315  50.082  1.00  0.00     0.035 A 
HETATM   11  C14 UNL     1      21.774   1.417  48.728  1.00  0.00     0.032 A 
HETATM   12  C15 UNL     1      22.458   2.472  48.130  1.00  0.00     0.046 A 
HETATM   13  C16 UNL     1      23.250   3.340  48.886  1.00  0.00     0.138 A 
HETATM   14  F1  UNL     1      23.928   4.380  48.316  1.00  0.00    -0.204 F 
HETATM   15  C17 UNL     1      23.388   3.185  50.258  1.00  0.00     0.074 A 
HETATM   16 CL1  UNL     1      24.366   4.250  51.220  1.00  0.00    -0.081 Cl
HETATM   17  C18 UNL     1      22.709   2.133  50.877  1.00  0.00     0.056 A 
ENDBRANCH   8  10
ENDBRANCH   6   8
BRANCH   1  18
HETATM   18  O1  UNL     1      24.151  -0.303  53.746  1.00  0.00    -0.379 OA
BRANCH  18  19
HETATM   19  C7  UNL     1      25.116  -0.722  54.611  1.00  0.00     0.199 C 
BRANCH  19  20
HETATM   20  C6  UNL     1      26.296   0.218  54.712  1.00  0.00     0.299 C 
BRANCH  20  21
HETATM   21  N1  UNL     1      27.490  -0.257  54.073  1.00  0.00     0.094 N 
HETATM   22  C2  UNL     1      28.606   0.638  54.320  1.00  0.00     0.219 C 
HETATM   23  C1  UNL     1      29.851   0.166  53.603  1.00  0.00     0.043 C 
HETATM   24  C3  UNL     1      28.200   1.946  53.638  1.00  0.00     0.037 C 
HETATM   25  C4  UNL     1      27.442   1.429  52.463  1.00  0.00     0.032 C 
HETATM   26  C5  UNL     1      27.368  -0.081  52.614  1.00  0.00     0.273 C 
ENDBRANCH  20  21
ENDBRANCH  19  20
ENDBRANCH  18  19
ENDBRANCH   1  18
TORSDOF 6
ENDMDL
MODEL 6
REMARK VINA RESULT:      -7.5      3.013      6.946
REMARK  6 active torsions:
REMARK  status: ('A' for Active; 'I' for Inactive)
REMARK    1  A    between atoms: N1_6  and  C6_7 
REMARK    2  A    between atoms: C6_7  and  C7_8 
REMARK    3  A    between atoms: C7_8  and  O1_9 
REMARK    4  A    between atoms: O1_9  and  C8_10 
REMARK    5  A    between atoms: C12_15  and  N3_16 
REMARK    6  A    between atoms: N3_16  and  C13_17 
ROOT
HETATM    1  C8  UNL     1      23.516  -0.222  52.970  1.00  0.00     0.163 C 
HETATM    2  C9  UNL     1      22.613  -1.157  53.711  1.00  0.00     0.078 C 
HETATM    3  C10 UNL     1      21.591  -0.095  53.701  1.00  0.00    -0.011 C 
HETATM    4  C11 UNL     1      20.642   0.798  53.770  1.00  0.00     0.095 C 
HETATM    5  N2  UNL     1      20.309   1.238  52.597  1.00  0.00    -0.228 NA
HETATM    6  C12 UNL     1      21.541   1.367  51.852  1.00  0.00     0.138 C 
HETATM    7  C19 UNL     1      22.293   0.524  52.582  1.00  0.00     0.026 C 
ENDROOT
BRANCH   6   8
HETATM    8  N3  UNL     1      21.989   2.089  50.713  1.00  0.00    -0.340 N 
HETATM    9  H18 UNL     1      21.502   1.661  49.895  1.00  0.00     0.167 HD
BRANCH   8  10
HETATM   10  C13 UNL     1      22.907   3.167  50.668  1.00  0.00     0.035 A 
HETATM   11  C14 UNL     1      22.492   4.380  51.146  1.00  0.00     0.032 A 
HETATM   12  C15 UNL     1      23.443   5.394  51.069  1.00  0.00     0.046 A 
HETATM   13  C16 UNL     1      24.713   5.154  50.539  1.00  0.00     0.138 A 
HETATM   14  F1  UNL     1      25.658   6.137  50.455  1.00  0.00    -0.204 F 
HETATM   15  C17 UNL     1      25.076   3.901  50.067  1.00  0.00     0.074 A 
HETATM   16 CL1  UNL     1      26.648   3.577  49.403  1.00  0.00    -0.081 Cl
HETATM   17  C18 UNL     1      24.136   2.870  50.136  1.00  0.00     0.056 A 
ENDBRANCH   8  10
ENDBRANCH   6   8
BRANCH   1  18
HETATM   18  O1  UNL     1      24.460   0.450  53.663  1.00  0.00    -0.379 OA
BRANCH  18  19
HETATM   19  C7  UNL     1      25.277  -0.236  54.510  1.00  0.00     0.199 C 
BRANCH  19  20
HETATM   20  C6  UNL     1      26.633   0.406  54.703  1.00  0.00     0.299 C 
BRANCH  20  21
HETATM   21  N1  UNL     1      27.646  -0.060  53.799  1.00  0.00     0.094 N 
HETATM   22  C2  UNL     1      28.955  -0.035  54.424  1.00  0.00     0.219 C 
HETATM   23  C1  UNL     1      30.029  -0.476  53.454  1.00  0.00     0.043 C 
HETATM   24  C3  UNL     1      29.218   1.447  54.695  1.00  0.00     0.037 C 
HETATM   25  C4  UNL     1      28.546   2.073  53.519  1.00  0.00     0.032 C 
HETATM   26  C5  UNL     1      27.868   0.952  52.749  1.00  0.00     0.273 C 
ENDBRANCH  20  21
ENDBRANCH  19  20
ENDBRANCH  18  19
ENDBRANCH   1  18
TORSDOF 6
ENDMDL
MODEL 7
REMARK VINA RESULT:      -7.5      3.389      6.294
REMARK  6 active torsions:
REMARK  status: ('A' for Active; 'I' for Inactive)
REMARK    1  A    between atoms: N1_6  and  C6_7 
REMARK    2  A    between atoms: C6_7  and  C7_8 
REMARK    3  A    between atoms: C7_8  and  O1_9 
REMARK    4  A    between atoms: O1_9  and  C8_10 
REMARK    5  A    between atoms: C12_15  and  N3_16 
REMARK    6  A    between atoms: N3_16  and  C13_17 
ROOT
HETATM    1  C8  UNL     1      23.375   1.281  52.097  1.00  0.00     0.163 C 
HETATM    2  C9  UNL     1      22.080   0.756  51.564  1.00  0.00     0.078 C 
HETATM    3  C10 UNL     1      21.473   2.055  51.906  1.00  0.00    -0.011 C 
HETATM    4  C11 UNL     1      20.846   3.159  52.208  1.00  0.00     0.095 C 
HETATM    5  N2  UNL     1      21.406   4.194  51.666  1.00  0.00    -0.228 NA
HETATM    6  C12 UNL     1      22.832   3.977  51.764  1.00  0.00     0.138 C 
HETATM    7  C19 UNL     1      22.809   2.640  51.914  1.00  0.00     0.026 C 
ENDROOT
BRANCH   6   8
HETATM    8  N3  UNL     1      24.005   4.779  51.733  1.00  0.00    -0.340 N 
HETATM    9  H18 UNL     1      23.959   5.383  52.583  1.00  0.00     0.167 HD
BRANCH   8  10
HETATM   10  C13 UNL     1      25.036   4.780  50.764  1.00  0.00     0.035 A 
HETATM   11  C14 UNL     1      25.704   3.607  50.538  1.00  0.00     0.032 A 
HETATM   12  C15 UNL     1      26.706   3.681  49.573  1.00  0.00     0.046 A 
HETATM   13  C16 UNL     1      26.981   4.879  48.909  1.00  0.00     0.138 A 
HETATM   14  F1  UNL     1      27.960   4.970  47.960  1.00  0.00    -0.204 F 
HETATM   15  C17 UNL     1      26.269   6.038  49.182  1.00  0.00     0.074 A 
HETATM   16 CL1  UNL     1      26.591   7.540  48.369  1.00  0.00    -0.081 Cl
HETATM   17  C18 UNL     1      25.260   5.984  50.145  1.00  0.00     0.056 A 
ENDBRANCH   8  10
ENDBRANCH   6   8
BRANCH   1  18
HETATM   18  O1  UNL     1      23.750   0.928  53.346  1.00  0.00    -0.379 OA
BRANCH  18  19
HETATM   19  C7  UNL     1      24.379  -0.265  53.539  1.00  0.00     0.199 C 
BRANCH  19  20
HETATM   20  C6  UNL     1      25.691  -0.150  54.282  1.00  0.00     0.299 C 
BRANCH  20  21
HETATM   21  N1  UNL     1      26.811  -0.738  53.603  1.00  0.00     0.094 N 
HETATM   22  C2  UNL     1      28.065  -0.291  54.181  1.00  0.00     0.219 C 
HETATM   23  C1  UNL     1      29.245  -0.868  53.432  1.00  0.00     0.043 C 
HETATM   24  C3  UNL     1      28.093   1.214  53.910  1.00  0.00     0.037 C 
HETATM   25  C4  UNL     1      27.405   1.276  52.588  1.00  0.00     0.032 C 
HETATM   26  C5  UNL     1      26.943  -0.135  52.264  1.00  0.00     0.273 C 
ENDBRANCH  20  21
ENDBRANCH  19  20
ENDBRANCH  18  19
ENDBRANCH   1  18
TORSDOF 6
ENDMDL
MODEL 8
REMARK VINA RESULT:      -7.4      2.277      3.826
REMARK  6 active torsions:
REMARK  status: ('A' for Active; 'I' for Inactive)
REMARK    1  A    between atoms: N1_6  and  C6_7 
REMARK    2  A    between atoms: C6_7  and  C7_8 
REMARK    3  A    between atoms: C7_8  and  O1_9 
REMARK    4  A    between atoms: O1_9  and  C8_10 
REMARK    5  A    between atoms: C12_15  and  N3_16 
REMARK    6  A    between atoms: N3_16  and  C13_17 
ROOT
HETATM    1  C8  UNL     1      23.462   3.034  50.983  1.00  0.00     0.163 C 
HETATM    2  C9  UNL     1      23.413   2.971  49.489  1.00  0.00     0.078 C 
HETATM    3  C10 UNL     1      24.784   3.514  49.473  1.00  0.00    -0.011 C 
HETATM    4  C11 UNL     1      25.980   4.023  49.364  1.00  0.00     0.095 C 
HETATM    5  N2  UNL     1      26.859   3.333  50.020  1.00  0.00    -0.228 NA
HETATM    6  C12 UNL     1      26.218   2.934  51.252  1.00  0.00     0.138 C 
HETATM    7  C19 UNL     1      24.940   3.069  50.854  1.00  0.00     0.026 C 
ENDROOT
BRANCH   6   8
HETATM    8  N3  UNL     1      26.633   2.511  52.544  1.00  0.00    -0.340 N 
HETATM    9  H18 UNL     1      26.195   3.178  53.217  1.00  0.00     0.167 HD
BRANCH   8  10
HETATM   10  C13 UNL     1      27.468   1.418  52.879  1.00  0.00     0.035 A 
HETATM   11  C14 UNL     1      28.679   1.690  53.455  1.00  0.00     0.032 A 
HETATM   12  C15 UNL     1      29.449   0.569  53.756  1.00  0.00     0.046 A 
HETATM   13  C16 UNL     1      28.988  -0.719  53.476  1.00  0.00     0.138 A 
HETATM   14  F1  UNL     1      29.729  -1.830  53.764  1.00  0.00    -0.204 F 
HETATM   15  C17 UNL     1      27.749  -0.933  52.888  1.00  0.00     0.074 A 
HETATM   16 CL1  UNL     1      27.153  -2.525  52.530  1.00  0.00    -0.081 Cl
HETATM   17  C18 UNL     1      26.962   0.178  52.580  1.00  0.00     0.056 A 
ENDBRANCH   8  10
ENDBRANCH   6   8
BRANCH   1  18
HETATM   18  O1  UNL     1      22.869   4.075  51.606  1.00  0.00    -0.379 OA
BRANCH  18  19
HETATM   19  C7  UNL     1      21.608   4.438  51.240  1.00  0.00     0.199 C 
BRANCH  19  20
HETATM   20  C6  UNL     1      21.492   5.880  50.798  1.00  0.00     0.299 C 
BRANCH  20  21
HETATM   21  N1  UNL     1      21.915   6.123  49.448  1.00  0.00     0.094 N 
HETATM   22  C2  UNL     1      23.238   6.719  49.416  1.00  0.00     0.219 C 
HETATM   23  C1  UNL     1      23.661   7.025  47.997  1.00  0.00     0.043 C 
HETATM   24  C3  UNL     1      23.061   8.075  50.101  1.00  0.00     0.037 C 
HETATM   25  C4  UNL     1      21.679   8.434  49.666  1.00  0.00     0.032 C 
HETATM   26  C5  UNL     1      21.139   7.245  48.888  1.00  0.00     0.273 C 
ENDBRANCH  20  21
ENDBRANCH  19  20
ENDBRANCH  18  19
ENDBRANCH   1  18
TORSDOF 6
ENDMDL
MODEL 9
REMARK VINA RESULT:      -7.3      4.792      6.826
REMARK  6 active torsions:
REMARK  status: ('A' for Active; 'I' for Inactive)
REMARK    1  A    between atoms: N1_6  and  C6_7 
REMARK    2  A    between atoms: C6_7  and  C7_8 
REMARK    3  A    between atoms: C7_8  and  O1_9 
REMARK    4  A    between atoms: O1_9  and  C8_10 
REMARK    5  A    between atoms: C12_15  and  N3_16 
REMARK    6  A    between atoms: N3_16  and  C13_17 
ROOT
HETATM    1  C8  UNL     1      26.674   3.451  49.413  1.00  0.00     0.163 C 
HETATM    2  C9  UNL     1      25.305   4.015  49.197  1.00  0.00     0.078 C 
HETATM    3  C10 UNL     1      25.911   5.358  49.226  1.00  0.00    -0.011 C 
HETATM    4  C11 UNL     1      26.356   6.584  49.272  1.00  0.00     0.095 C 
HETATM    5  N2  UNL     1      27.293   6.789  48.401  1.00  0.00    -0.228 NA
HETATM    6  C12 UNL     1      28.105   5.593  48.396  1.00  0.00     0.138 C 
HETATM    7  C19 UNL     1      27.200   4.747  48.918  1.00  0.00     0.026 C 
ENDROOT
BRANCH   6   8
HETATM    8  N3  UNL     1      29.427   5.243  48.009  1.00  0.00    -0.340 N 
HETATM    9  H18 UNL     1      29.335   4.381  47.428  1.00  0.00     0.167 HD
BRANCH   8  10
HETATM   10  C13 UNL     1      30.636   5.905  48.333  1.00  0.00     0.035 A 
HETATM   11  C14 UNL     1      30.555   7.178  48.830  1.00  0.00     0.032 A 
HETATM   12  C15 UNL     1      31.781   7.770  49.124  1.00  0.00     0.046 A 
HETATM   13  C16 UNL     1      32.981   7.086  48.915  1.00  0.00     0.138 A 
HETATM   14  F1  UNL     1      34.193   7.650  49.199  1.00  0.00    -0.204 F 
HETATM   15  C17 UNL     1      33.000   5.795  48.407  1.00  0.00     0.074 A 
HETATM   16 CL1  UNL     1      34.478   4.923  48.138  1.00  0.00    -0.081 Cl
HETATM   17  C18 UNL     1      31.781   5.184  48.106  1.00  0.00     0.056 A 
ENDBRANCH   8  10
ENDBRANCH   6   8
BRANCH   1  18
HETATM   18  O1  UNL     1      27.028   3.073  50.660  1.00  0.00    -0.379 OA
BRANCH  18  19
HETATM   19  C7  UNL     1      26.105   2.469  51.459  1.00  0.00     0.199 C 
BRANCH  19  20
HETATM   20  C6  UNL     1      26.444   1.038  51.812  1.00  0.00     0.299 C 
BRANCH  20  21
HETATM   21  N1  UNL     1      27.371   0.899  52.900  1.00  0.00     0.094 N 
HETATM   22  C2  UNL     1      28.061  -0.377  52.837  1.00  0.00     0.219 C 
HETATM   23  C1  UNL     1      28.997  -0.546  54.011  1.00  0.00     0.043 C 
HETATM   24  C3  UNL     1      26.955  -1.416  53.029  1.00  0.00     0.037 C 
HETATM   25  C4  UNL     1      26.052  -0.697  53.974  1.00  0.00     0.032 C 
HETATM   26  C5  UNL     1      26.625   0.699  54.156  1.00  0.00     0.273 C 
ENDBRANCH  20  21
ENDBRANCH  19  20
ENDBRANCH  18  19
ENDBRANCH   1  18
TORSDOF 6
ENDMDL
