MODEL 1
REMARK VINA RESULT:      -7.7      0.000      0.000
REMARK  3 active torsions:
REMARK  status: ('A' for Active; 'I' for Inactive)
REMARK    1  A    between atoms: C2_2  and  C3_3 
REMARK       I    between atoms: C3_3  and  N1_5 
REMARK    2  A    between atoms: N1_5  and  S1_6 
REMARK    3  A    between atoms: S1_6  and  C4_9 
ROOT
HETATM    1  C3  UNL     1      24.895   1.222  52.537  1.00  0.00     0.240 C 
HETATM    2  O1  UNL     1      23.630   1.267  52.398  1.00  0.00    -0.272 OA
HETATM    3  N1  UNL     1      25.542   2.250  51.792  1.00  0.00    -0.249 N 
HETATM    4  H4  UNL     1      26.585   2.394  51.765  1.00  0.00     0.182 HD
ENDROOT
BRANCH   3   5
HETATM    5  S1  UNL     1      24.660   3.382  50.839  1.00  0.00     0.265 S 
HETATM    6  O2  UNL     1      23.744   2.699  49.868  1.00  0.00    -0.200 OA
HETATM    7  O3  UNL     1      23.814   4.291  51.689  1.00  0.00    -0.200 OA
BRANCH   5   8
HETATM    8  C4  UNL     1      25.731   4.402  49.898  1.00  0.00     0.080 A 
HETATM    9  C5  UNL     1      25.406   5.730  49.702  1.00  0.00     0.028 A 
HETATM   10  C6  UNL     1      26.210   6.573  48.971  1.00  0.00     0.044 A 
HETATM   11  C7  UNL     1      27.390   6.070  48.411  1.00  0.00     0.116 A 
HETATM   12  F1  UNL     1      28.214   6.856  47.686  1.00  0.00    -0.206 F 
HETATM   13  C8  UNL     1      27.661   4.740  48.641  1.00  0.00     0.044 A 
HETATM   14  C9  UNL     1      26.889   3.855  49.363  1.00  0.00     0.028 A 
ENDBRANCH   5   8
ENDBRANCH   3   5
BRANCH   1  15
HETATM   15  C2  UNL     1      25.822   0.351  53.290  1.00  0.00     0.046 C 
HETATM   16  C1  UNL     1      25.127  -0.722  54.059  1.00  0.00     0.026 C 
HETATM   17  C10 UNL     1      26.676   1.121  54.278  1.00  0.00     0.047 C 
HETATM   18  C11 UNL     1      27.809   0.175  54.495  1.00  0.00    -0.006 C 
HETATM   19  C12 UNL     1      27.936  -0.589  53.411  1.00  0.00     0.009 C 
HETATM   20 CL1  UNL     1      29.127  -1.856  53.179  1.00  0.00    -0.089 Cl
HETATM   21  C13 UNL     1      26.911  -0.222  52.391  1.00  0.00     0.070 C 
ENDBRANCH   1  15
TORSDOF 3
ENDMDL
MODEL 2
REMARK VINA RESULT:      -7.6      5.175      6.775
REMARK  3 active torsions:
REMARK  status: ('A' for Active; 'I' for Inactive)
REMARK    1  A    between atoms: C2_2  and  C3_3 
REMARK       I    between atoms: C3_3  and  N1_5 
REMARK    2  A    between atoms: N1_5  and  S1_6 
REMARK    3  A    between atoms: S1_6  and  C4_9 
ROOT
HETATM    1  C3  UNL     1      24.295  -0.624  54.308  1.00  0.00     0.240 C 
HETATM    2  O1  UNL     1      24.022  -1.260  55.377  1.00  0.00    -0.272 OA
HETATM    3  N1  UNL     1      23.114  -0.236  53.612  1.00  0.00    -0.249 N 
HETATM    4  H4  UNL     1      23.111   0.298  52.704  1.00  0.00     0.182 HD
ENDROOT
BRANCH   3   5
HETATM    5  S1  UNL     1      21.540  -0.614  54.200  1.00  0.00     0.265 S 
HETATM    6  O2  UNL     1      21.430  -2.050  54.618  1.00  0.00    -0.200 OA
HETATM    7  O3  UNL     1      21.170   0.227  55.392  1.00  0.00    -0.200 OA
BRANCH   5   8
HETATM    8  C4  UNL     1      20.314  -0.344  52.976  1.00  0.00     0.080 A 
HETATM    9  C5  UNL     1      19.030  -0.808  53.186  1.00  0.00     0.028 A 
HETATM   10  C6  UNL     1      18.032  -0.624  52.259  1.00  0.00     0.044 A 
HETATM   11  C7  UNL     1      18.326   0.052  51.069  1.00  0.00     0.116 A 
HETATM   12  F1  UNL     1      17.382   0.260  50.127  1.00  0.00    -0.206 F 
HETATM   13  C8  UNL     1      19.622   0.492  50.917  1.00  0.00     0.044 A 
HETATM   14  C9  UNL     1      20.657   0.332  51.814  1.00  0.00     0.028 A 
ENDBRANCH   5   8
ENDBRANCH   3   5
BRANCH   1  15
HETATM   15  C2  UNL     1      25.548  -0.210  53.644  1.00  0.00     0.046 C 
HETATM   16  C1  UNL     1      25.342   0.822  52.587  1.00  0.00     0.026 C 
HETATM   17  C10 UNL     1      26.277  -1.369  52.993  1.00  0.00     0.047 C 
HETATM   18  C11 UNL     1      27.662  -0.827  52.879  1.00  0.00    -0.006 C 
HETATM   19  C12 UNL     1      27.838   0.086  53.833  1.00  0.00     0.009 C 
HETATM   20 CL1  UNL     1      29.303   1.010  54.113  1.00  0.00    -0.089 Cl
HETATM   21  C13 UNL     1      26.601   0.229  54.655  1.00  0.00     0.070 C 
ENDBRANCH   1  15
TORSDOF 3
ENDMDL
MODEL 3
REMARK VINA RESULT:      -7.5      4.628      6.223
REMARK  3 active torsions:
REMARK  status: ('A' for Active; 'I' for Inactive)
REMARK    1  A    between atoms: C2_2  and  C3_3 
REMARK       I    between atoms: C3_3  and  N1_5 
REMARK    2  A    between atoms: N1_5  and  S1_6 
REMARK    3  A    between atoms: S1_6  and  C4_9 
ROOT
HETATM    1  C3  UNL     1      25.816   1.339  52.928  1.00  0.00     0.240 C 
HETATM    2  O1  UNL     1      25.772   2.459  52.324  1.00  0.00    -0.272 OA
HETATM    3  N1  UNL     1      24.536   0.716  52.973  1.00  0.00    -0.249 N 
HETATM    4  H4  UNL     1      24.347  -0.216  53.427  1.00  0.00     0.182 HD
ENDROOT
BRANCH   3   5
HETATM    5  S1  UNL     1      23.139   1.445  52.277  1.00  0.00     0.265 S 
HETATM    6  O2  UNL     1      22.941   2.849  52.764  1.00  0.00    -0.200 OA
HETATM    7  O3  UNL     1      23.225   1.500  50.776  1.00  0.00    -0.200 OA
BRANCH   5   8
HETATM    8  C4  UNL     1      21.682   0.556  52.679  1.00  0.00     0.080 A 
HETATM    9  C5  UNL     1      21.720  -0.393  53.681  1.00  0.00     0.028 A 
HETATM   10  C6  UNL     1      20.607  -1.119  54.036  1.00  0.00     0.044 A 
HETATM   11  C7  UNL     1      19.402  -0.887  53.360  1.00  0.00     0.116 A 
HETATM   12  F1  UNL     1      18.281  -1.572  53.670  1.00  0.00    -0.206 F 
HETATM   13  C8  UNL     1      19.426   0.071  52.372  1.00  0.00     0.044 A 
HETATM   14  C9  UNL     1      20.513   0.823  51.979  1.00  0.00     0.028 A 
ENDBRANCH   5   8
ENDBRANCH   3   5
BRANCH   1  15
HETATM   15  C2  UNL     1      26.888   0.559  53.581  1.00  0.00     0.046 C 
HETATM   16  C1  UNL     1      26.582   0.209  54.998  1.00  0.00     0.026 C 
HETATM   17  C10 UNL     1      28.220   1.282  53.582  1.00  0.00     0.047 C 
HETATM   18  C11 UNL     1      29.174   0.154  53.787  1.00  0.00    -0.006 C 
HETATM   19  C12 UNL     1      28.616  -0.962  53.319  1.00  0.00     0.009 C 
HETATM   20 CL1  UNL     1      29.343  -2.558  53.332  1.00  0.00    -0.089 Cl
HETATM   21  C13 UNL     1      27.259  -0.676  52.768  1.00  0.00     0.070 C 
ENDBRANCH   1  15
TORSDOF 3
ENDMDL
MODEL 4
REMARK VINA RESULT:      -7.4      3.685      6.758
REMARK  3 active torsions:
REMARK  status: ('A' for Active; 'I' for Inactive)
REMARK    1  A    between atoms: C2_2  and  C3_3 
REMARK       I    between atoms: C3_3  and  N1_5 
REMARK    2  A    between atoms: N1_5  and  S1_6 
REMARK    3  A    between atoms: S1_6  and  C4_9 
ROOT
HETATM    1  C3  UNL     1      24.699   4.502  50.590  1.00  0.00     0.240 C 
HETATM    2  O1  UNL     1      23.558   4.302  51.120  1.00  0.00    -0.272 OA
HETATM    3  N1  UNL     1      25.672   3.583  51.075  1.00  0.00    -0.249 N 
HETATM    4  H4  UNL     1      26.680   3.572  50.769  1.00  0.00     0.182 HD
ENDROOT
BRANCH   3   5
HETATM    5  S1  UNL     1      25.287   2.373  52.240  1.00  0.00     0.265 S 
HETATM    6  O2  UNL     1      24.678   2.964  53.476  1.00  0.00    -0.200 OA
HETATM    7  O3  UNL     1      24.311   1.365  51.698  1.00  0.00    -0.200 OA
BRANCH   5   8
HETATM    8  C4  UNL     1      26.715   1.491  52.746  1.00  0.00     0.080 A 
HETATM    9  C5  UNL     1      26.730   0.112  52.658  1.00  0.00     0.028 A 
HETATM   10  C6  UNL     1      27.823  -0.627  53.042  1.00  0.00     0.044 A 
HETATM   11  C7  UNL     1      28.952   0.036  53.537  1.00  0.00     0.116 A 
HETATM   12  F1  UNL     1      30.051  -0.644  53.927  1.00  0.00    -0.206 F 
HETATM   13  C8  UNL     1      28.879   1.410  53.601  1.00  0.00     0.044 A 
HETATM   14  C9  UNL     1      27.809   2.196  53.230  1.00  0.00     0.028 A 
ENDBRANCH   5   8
ENDBRANCH   3   5
BRANCH   1  15
HETATM   15  C2  UNL     1      25.222   5.464  49.597  1.00  0.00     0.046 C 
HETATM   16  C1  UNL     1      24.292   5.693  48.452  1.00  0.00     0.026 C 
HETATM   17  C10 UNL     1      26.550   5.032  49.007  1.00  0.00     0.047 C 
HETATM   18  C11 UNL     1      27.083   6.325  48.489  1.00  0.00    -0.006 C 
HETATM   19  C12 UNL     1      26.555   7.317  49.206  1.00  0.00     0.009 C 
HETATM   20 CL1  UNL     1      26.872   9.028  48.983  1.00  0.00    -0.089 Cl
HETATM   21  C13 UNL     1      25.637   6.777  50.250  1.00  0.00     0.070 C 
ENDBRANCH   1  15
TORSDOF 3
ENDMDL
MODEL 5
REMARK VINA RESULT:      -7.1      3.811      6.881
REMARK  3 active torsions:
REMARK  status: ('A' for Active; 'I' for Inactive)
REMARK    1  A    between atoms: C2_2  and  C3_3 
REMARK       I    between atoms: C3_3  and  N1_5 
REMARK    2  A    between atoms: N1_5  and  S1_6 
REMARK    3  A    between atoms: S1_6  and  C4_9 
ROOT
HETATM    1  C3  UNL     1      24.519   5.310  50.647  1.00  0.00     0.240 C 
HETATM    2  O1  UNL     1      23.520   5.651  51.361  1.00  0.00    -0.272 OA
HETATM    3  N1  UNL     1      24.996   4.014  50.995  1.00  0.00    -0.249 N 
HETATM    4  H4  UNL     1      25.814   3.540  50.530  1.00  0.00     0.182 HD
ENDROOT
BRANCH   3   5
HETATM    5  S1  UNL     1      24.266   3.074  52.241  1.00  0.00     0.265 S 
HETATM    6  O2  UNL     1      24.334   3.764  53.571  1.00  0.00    -0.200 OA
HETATM    7  O3  UNL     1      22.815   2.796  51.956  1.00  0.00    -0.200 OA
BRANCH   5   8
HETATM    8  C4  UNL     1      25.063   1.525  52.429  1.00  0.00     0.080 A 
HETATM    9  C5  UNL     1      24.486   0.555  53.226  1.00  0.00     0.028 A 
HETATM   10  C6  UNL     1      25.070  -0.676  53.408  1.00  0.00     0.044 A 
HETATM   11  C7  UNL     1      26.283  -0.954  52.767  1.00  0.00     0.116 A 
HETATM   12  F1  UNL     1      26.896  -2.148  52.912  1.00  0.00    -0.206 F 
HETATM   13  C8  UNL     1      26.809   0.050  51.985  1.00  0.00     0.044 A 
HETATM   14  C9  UNL     1      26.265   1.299  51.772  1.00  0.00     0.028 A 
ENDBRANCH   5   8
ENDBRANCH   3   5
BRANCH   1  15
HETATM   15  C2  UNL     1      25.276   5.957  49.556  1.00  0.00     0.046 C 
HETATM   16  C1  UNL     1      24.444   6.246  48.351  1.00  0.00     0.026 C 
HETATM   17  C10 UNL     1      26.455   5.126  49.089  1.00  0.00     0.047 C 
HETATM   18  C11 UNL     1      27.303   6.156  48.422  1.00  0.00    -0.006 C 
HETATM   19  C12 UNL     1      27.040   7.341  48.973  1.00  0.00     0.009 C 
HETATM   20 CL1  UNL     1      27.783   8.868  48.530  1.00  0.00    -0.089 Cl
HETATM   21  C13 UNL     1      26.007   7.203  50.040  1.00  0.00     0.070 C 
ENDBRANCH   1  15
TORSDOF 3
ENDMDL
MODEL 6
REMARK VINA RESULT:      -6.9      3.979      4.951
REMARK  3 active torsions:
REMARK  status: ('A' for Active; 'I' for Inactive)
REMARK    1  A    between atoms: C2_2  and  C3_3 
REMARK       I    between atoms: C3_3  and  N1_5 
REMARK    2  A    between atoms: N1_5  and  S1_6 
REMARK    3  A    between atoms: S1_6  and  C4_9 
ROOT
HETATM    1  C3  UNL     1      26.119   1.965  52.478  1.00  0.00     0.240 C 
HETATM    2  O1  UNL     1      25.960   1.970  51.214  1.00  0.00    -0.272 OA
HETATM    3  N1  UNL     1      25.112   2.727  53.137  1.00  0.00    -0.249 N 
HETATM    4  H4  UNL     1      25.056   2.855  54.181  1.00  0.00     0.182 HD
ENDROOT
BRANCH   3   5
HETATM    5  S1  UNL     1      23.862   3.535  52.271  1.00  0.00     0.265 S 
HETATM    6  O2  UNL     1      23.369   4.747  53.004  1.00  0.00    -0.200 OA
HETATM    7  O3  UNL     1      24.324   3.990  50.914  1.00  0.00    -0.200 OA
BRANCH   5   8
HETATM    8  C4  UNL     1      22.475   2.492  52.022  1.00  0.00     0.080 A 
HETATM    9  C5  UNL     1      21.205   2.981  52.260  1.00  0.00     0.028 A 
HETATM   10  C6  UNL     1      20.084   2.205  52.082  1.00  0.00     0.044 A 
HETATM   11  C7  UNL     1      20.234   0.884  51.646  1.00  0.00     0.116 A 
HETATM   12  F1  UNL     1      19.166   0.081  51.455  1.00  0.00    -0.206 F 
HETATM   13  C8  UNL     1      21.523   0.453  51.424  1.00  0.00     0.044 A 
HETATM   14  C9  UNL     1      22.678   1.189  51.589  1.00  0.00     0.028 A 
ENDBRANCH   5   8
ENDBRANCH   3   5
BRANCH   1  15
HETATM   15  C2  UNL     1      27.103   1.349  53.392  1.00  0.00     0.046 C 
HETATM   16  C1  UNL     1      26.509   0.909  54.688  1.00  0.00     0.026 C 
HETATM   17  C10 UNL     1      28.253   2.280  53.726  1.00  0.00     0.047 C 
HETATM   18  C11 UNL     1      29.296   1.316  54.182  1.00  0.00    -0.006 C 
HETATM   19  C12 UNL     1      29.068   0.140  53.598  1.00  0.00     0.009 C 
HETATM   20 CL1  UNL     1      30.022  -1.317  53.815  1.00  0.00    -0.089 Cl
HETATM   21  C13 UNL     1      27.868   0.218  52.716  1.00  0.00     0.070 C 
ENDBRANCH   1  15
TORSDOF 3
ENDMDL
MODEL 7
REMARK VINA RESULT:      -6.6      3.679      6.841
REMARK  3 active torsions:
REMARK  status: ('A' for Active; 'I' for Inactive)
REMARK    1  A    between atoms: C2_2  and  C3_3 
REMARK       I    between atoms: C3_3  and  N1_5 
REMARK    2  A    between atoms: N1_5  and  S1_6 
REMARK    3  A    between atoms: S1_6  and  C4_9 
ROOT
HETATM    1  C3  UNL     1      25.024   5.453  49.549  1.00  0.00     0.240 C 
HETATM    2  O1  UNL     1      24.370   4.523  48.977  1.00  0.00    -0.272 OA
HETATM    3  N1  UNL     1      24.880   5.403  50.965  1.00  0.00    -0.249 N 
HETATM    4  H4  UNL     1      25.336   6.080  51.631  1.00  0.00     0.182 HD
ENDROOT
BRANCH   3   5
HETATM    5  S1  UNL     1      23.921   4.203  51.745  1.00  0.00     0.265 S 
HETATM    6  O2  UNL     1      23.514   4.625  53.125  1.00  0.00    -0.200 OA
HETATM    7  O3  UNL     1      22.661   3.908  50.978  1.00  0.00    -0.200 OA
BRANCH   5   8
HETATM    8  C4  UNL     1      24.792   2.691  51.910  1.00  0.00     0.080 A 
HETATM    9  C5  UNL     1      24.196   1.631  52.566  1.00  0.00     0.028 A 
HETATM   10  C6  UNL     1      24.836   0.424  52.724  1.00  0.00     0.044 A 
HETATM   11  C7  UNL     1      26.126   0.266  52.206  1.00  0.00     0.116 A 
HETATM   12  F1  UNL     1      26.797  -0.898  52.334  1.00  0.00    -0.206 F 
HETATM   13  C8  UNL     1      26.668   1.356  51.562  1.00  0.00     0.044 A 
HETATM   14  C9  UNL     1      26.070   2.585  51.379  1.00  0.00     0.028 A 
ENDBRANCH   5   8
ENDBRANCH   3   5
BRANCH   1  15
HETATM   15  C2  UNL     1      25.885   6.555  49.071  1.00  0.00     0.046 C 
HETATM   16  C1  UNL     1      26.104   7.619  50.094  1.00  0.00     0.026 C 
HETATM   17  C10 UNL     1      25.331   7.238  47.836  1.00  0.00     0.047 C 
HETATM   18  C11 UNL     1      26.551   7.892  47.281  1.00  0.00    -0.006 C 
HETATM   19  C12 UNL     1      27.618   7.198  47.674  1.00  0.00     0.009 C 
HETATM   20 CL1  UNL     1      29.288   7.567  47.280  1.00  0.00    -0.089 Cl
HETATM   21  C13 UNL     1      27.206   6.036  48.515  1.00  0.00     0.070 C 
ENDBRANCH   1  15
TORSDOF 3
ENDMDL
MODEL 8
REMARK VINA RESULT:      -6.6      3.066      3.622
REMARK  3 active torsions:
REMARK  status: ('A' for Active; 'I' for Inactive)
REMARK    1  A    between atoms: C2_2  and  C3_3 
REMARK       I    between atoms: C3_3  and  N1_5 
REMARK    2  A    between atoms: N1_5  and  S1_6 
REMARK    3  A    between atoms: S1_6  and  C4_9 
ROOT
HETATM    1  C3  UNL     1      26.305   2.810  51.189  1.00  0.00     0.240 C 
HETATM    2  O1  UNL     1      26.889   3.193  50.124  1.00  0.00    -0.272 OA
HETATM    3  N1  UNL     1      25.175   3.623  51.491  1.00  0.00    -0.249 N 
HETATM    4  H4  UNL     1      24.551   3.481  52.327  1.00  0.00     0.182 HD
ENDROOT
BRANCH   3   5
HETATM    5  S1  UNL     1      24.712   4.951  50.496  1.00  0.00     0.265 S 
HETATM    6  O2  UNL     1      23.937   5.980  51.265  1.00  0.00    -0.200 OA
HETATM    7  O3  UNL     1      25.904   5.645  49.897  1.00  0.00    -0.200 OA
BRANCH   5   8
HETATM    8  C4  UNL     1      23.693   4.434  49.167  1.00  0.00     0.080 A 
HETATM    9  C5  UNL     1      23.234   5.369  48.258  1.00  0.00     0.028 A 
HETATM   10  C6  UNL     1      22.432   5.017  47.199  1.00  0.00     0.044 A 
HETATM   11  C7  UNL     1      22.070   3.674  47.037  1.00  0.00     0.116 A 
HETATM   12  F1  UNL     1      21.286   3.277  46.013  1.00  0.00    -0.206 F 
HETATM   13  C8  UNL     1      22.558   2.789  47.972  1.00  0.00     0.044 A 
HETATM   14  C9  UNL     1      23.363   3.091  49.051  1.00  0.00     0.028 A 
ENDBRANCH   5   8
ENDBRANCH   3   5
BRANCH   1  15
HETATM   15  C2  UNL     1      26.540   1.722  52.161  1.00  0.00     0.046 C 
HETATM   16  C1  UNL     1      26.441   0.361  51.558  1.00  0.00     0.026 C 
HETATM   17  C10 UNL     1      25.572   1.760  53.327  1.00  0.00     0.047 C 
HETATM   18  C11 UNL     1      26.306   0.962  54.352  1.00  0.00    -0.006 C 
HETATM   19  C12 UNL     1      27.612   1.053  54.103  1.00  0.00     0.009 C 
HETATM   20 CL1  UNL     1      28.891   0.289  55.029  1.00  0.00    -0.089 Cl
HETATM   21  C13 UNL     1      27.857   1.908  52.905  1.00  0.00     0.070 C 
ENDBRANCH   1  15
TORSDOF 3
ENDMDL
MODEL 9
REMARK VINA RESULT:      -6.4      6.164      7.832
REMARK  3 active torsions:
REMARK  status: ('A' for Active; 'I' for Inactive)
REMARK    1  A    between atoms: C2_2  and  C3_3 
REMARK       I    between atoms: C3_3  and  N1_5 
REMARK    2  A    between atoms: N1_5  and  S1_6 
REMARK    3  A    between atoms: S1_6  and  C4_9 
ROOT
HETATM    1  C3  UNL     1      28.138   7.723  48.594  1.00  0.00     0.240 C 
HETATM    2  O1  UNL     1      28.523   8.936  48.549  1.00  0.00    -0.272 OA
HETATM    3  N1  UNL     1      29.235   6.819  48.506  1.00  0.00    -0.249 N 
HETATM    4  H4  UNL     1      29.140   5.770  48.523  1.00  0.00     0.182 HD
ENDROOT
BRANCH   3   5
HETATM    5  S1  UNL     1      30.862   7.366  48.358  1.00  0.00     0.265 S 
HETATM    6  O2  UNL     1      31.034   8.291  47.190  1.00  0.00    -0.200 OA
HETATM    7  O3  UNL     1      31.318   8.106  49.585  1.00  0.00    -0.200 OA
BRANCH   5   8
HETATM    8  C4  UNL     1      31.970   6.030  48.117  1.00  0.00     0.080 A 
HETATM    9  C5  UNL     1      33.305   6.187  48.437  1.00  0.00     0.028 A 
HETATM   10  C6  UNL     1      34.216   5.172  48.267  1.00  0.00     0.044 A 
HETATM   11  C7  UNL     1      33.778   3.945  47.755  1.00  0.00     0.116 A 
HETATM   12  F1  UNL     1      34.632   2.916  47.570  1.00  0.00    -0.206 F 
HETATM   13  C8  UNL     1      32.438   3.847  47.455  1.00  0.00     0.044 A 
HETATM   14  C9  UNL     1      31.486   4.833  47.606  1.00  0.00     0.028 A 
ENDBRANCH   5   8
ENDBRANCH   3   5
BRANCH   1  15
HETATM   15  C2  UNL     1      26.822   7.062  48.715  1.00  0.00     0.046 C 
HETATM   16  C1  UNL     1      25.874   7.431  47.624  1.00  0.00     0.026 C 
HETATM   17  C10 UNL     1      26.128   7.374  50.027  1.00  0.00     0.047 C 
HETATM   18  C11 UNL     1      25.156   6.248  50.128  1.00  0.00    -0.006 C 
HETATM   19  C12 UNL     1      25.641   5.209  49.449  1.00  0.00     0.009 C 
HETATM   20 CL1  UNL     1      24.864   3.646  49.269  1.00  0.00    -0.089 Cl
HETATM   21  C13 UNL     1      26.961   5.550  48.845  1.00  0.00     0.070 C 
ENDBRANCH   1  15
TORSDOF 3
ENDMDL
