MODEL 1
REMARK VINA RESULT:      -7.7      0.000      0.000
REMARK  2 active torsions:
REMARK  status: ('A' for Active; 'I' for Inactive)
REMARK    1  A    between atoms: C11_16  and  S1_17 
REMARK    2  A    between atoms: S1_17  and  N6_18 
ROOT
HETATM    1  C1  UNL     1      22.756   4.618  52.698  1.00  0.00     0.047 C 
HETATM    2  C2  UNL     1      22.690   3.215  52.247  1.00  0.00    -0.030 A 
HETATM    3  C3  UNL     1      21.824   2.869  51.270  1.00  0.00     0.072 A 
HETATM    4  C4  UNL     1      20.878   3.571  50.520  1.00  0.00     0.099 C 
HETATM    5  N1  UNL     1      20.101   4.155  49.923  1.00  0.00    -0.192 NA
HETATM    6  C5  UNL     1      22.118   1.535  51.216  1.00  0.00     0.159 A 
HETATM    7  N2  UNL     1      22.837   0.519  51.694  1.00  0.00    -0.226 NA
HETATM    8  C6  UNL     1      23.740   0.858  52.711  1.00  0.00     0.192 A 
HETATM    9  N3  UNL     1      24.641   0.063  53.239  1.00  0.00    -0.249 NA
HETATM   10  C7  UNL     1      25.734   0.604  53.863  1.00  0.00     0.226 A 
HETATM   11  N4  UNL     1      25.500   1.967  53.691  1.00  0.00    -0.244 NA
HETATM   12  C8  UNL     1      24.333   2.269  53.019  1.00  0.00     0.197 A 
HETATM   13  C9  UNL     1      23.100   1.946  52.338  1.00  0.00     0.151 A 
HETATM   14  N5  UNL     1      24.930   3.594  52.515  1.00  0.00    -0.388 N 
HETATM   15  C10 UNL     1      25.196   3.176  51.195  1.00  0.00     0.146 C 
HETATM   16  C11 UNL     1      25.052   3.990  50.000  1.00  0.00     0.126 C 
HETATM   17  C12 UNL     1      24.024   3.623  49.169  1.00  0.00     0.047 C 
HETATM   18  C13 UNL     1      22.837   2.856  48.659  1.00  0.00    -0.003 C 
HETATM   19  C14 UNL     1      21.915   1.858  48.866  1.00  0.00     0.081 C 
HETATM   20  N7  UNL     1      21.670   0.917  49.968  1.00  0.00    -0.371 N 
HETATM   21  H5  UNL     1      25.279   4.564  52.435  1.00  0.00     0.156 HD
HETATM   22  H13 UNL     1      21.249   0.044  49.646  1.00  0.00     0.161 HD
ENDROOT
BRANCH  16  23
HETATM   23  S1  UNL     1      25.823   5.361  49.262  1.00  0.00     0.220 S 
HETATM   24  O1  UNL     1      27.090   4.966  48.571  1.00  0.00    -0.211 OA
HETATM   25  O2  UNL     1      24.830   5.877  48.225  1.00  0.00    -0.211 OA
BRANCH  23  26
HETATM   26  N6  UNL     1      26.121   6.622  50.402  1.00  0.00    -0.228 NA
HETATM   27  H8  UNL     1      26.979   7.152  50.168  1.00  0.00     0.136 HD
HETATM   28  H9  UNL     1      26.166   6.244  51.387  1.00  0.00     0.136 HD
ENDBRANCH  23  26
ENDBRANCH  16  23
TORSDOF 2
ENDMDL
MODEL 2
REMARK VINA RESULT:      -7.6      3.559      5.006
REMARK  2 active torsions:
REMARK  status: ('A' for Active; 'I' for Inactive)
REMARK    1  A    between atoms: C11_16  and  S1_17 
REMARK    2  A    between atoms: S1_17  and  N6_18 
ROOT
HETATM    1  C1  UNL     1      21.510   0.951  49.502  1.00  0.00     0.047 C 
HETATM    2  C2  UNL     1      22.272   1.359  50.697  1.00  0.00    -0.030 A 
HETATM    3  C3  UNL     1      23.028   2.478  50.655  1.00  0.00     0.072 A 
HETATM    4  C4  UNL     1      23.305   3.425  49.667  1.00  0.00     0.099 C 
HETATM    5  N1  UNL     1      23.531   4.183  48.846  1.00  0.00    -0.192 NA
HETATM    6  C5  UNL     1      23.516   2.428  51.932  1.00  0.00     0.159 A 
HETATM    7  N2  UNL     1      23.558   1.783  53.098  1.00  0.00    -0.226 NA
HETATM    8  C6  UNL     1      22.782   0.618  53.160  1.00  0.00     0.192 A 
HETATM    9  N3  UNL     1      22.561  -0.106  54.231  1.00  0.00    -0.249 NA
HETATM   10  C7  UNL     1      21.458  -0.918  54.281  1.00  0.00     0.226 A 
HETATM   11  N4  UNL     1      20.872  -0.657  53.044  1.00  0.00    -0.244 NA
HETATM   12  C8  UNL     1      21.563   0.244  52.260  1.00  0.00     0.197 A 
HETATM   13  C9  UNL     1      22.651   1.146  51.961  1.00  0.00     0.151 A 
HETATM   14  N5  UNL     1      20.266   0.662  51.545  1.00  0.00    -0.388 N 
HETATM   15  C10 UNL     1      20.081   1.887  52.217  1.00  0.00     0.146 C 
HETATM   16  C11 UNL     1      19.572   3.113  51.626  1.00  0.00     0.126 C 
HETATM   17  C12 UNL     1      20.495   4.120  51.494  1.00  0.00     0.047 C 
HETATM   18  C13 UNL     1      21.815   4.831  51.567  1.00  0.00    -0.003 C 
HETATM   19  C14 UNL     1      23.153   4.781  51.876  1.00  0.00     0.081 C 
HETATM   20  N7  UNL     1      24.038   3.720  52.378  1.00  0.00    -0.371 N 
HETATM   21  H5  UNL     1      19.431   0.702  50.935  1.00  0.00     0.156 HD
HETATM   22  H13 UNL     1      24.818   4.091  52.923  1.00  0.00     0.161 HD
ENDROOT
BRANCH  16  23
HETATM   23  S1  UNL     1      18.073   3.727  50.998  1.00  0.00     0.220 S 
HETATM   24  O1  UNL     1      17.381   2.706  50.149  1.00  0.00    -0.211 OA
HETATM   25  O2  UNL     1      17.211   4.025  52.220  1.00  0.00    -0.211 OA
BRANCH  23  26
HETATM   26  N6  UNL     1      18.297   5.196  50.120  1.00  0.00    -0.228 NA
HETATM   27  H8  UNL     1      18.218   5.045  49.098  1.00  0.00     0.136 HD
HETATM   28  H9  UNL     1      19.217   5.651  50.366  1.00  0.00     0.136 HD
ENDBRANCH  23  26
ENDBRANCH  16  23
TORSDOF 2
ENDMDL
MODEL 3
REMARK VINA RESULT:      -7.3      8.538     10.623
REMARK  2 active torsions:
REMARK  status: ('A' for Active; 'I' for Inactive)
REMARK    1  A    between atoms: C11_16  and  S1_17 
REMARK    2  A    between atoms: S1_17  and  N6_18 
ROOT
HETATM    1  C1  UNL     1      34.165   8.206  48.189  1.00  0.00     0.047 C 
HETATM    2  C2  UNL     1      33.205   7.106  48.402  1.00  0.00    -0.030 A 
HETATM    3  C3  UNL     1      31.977   7.379  48.894  1.00  0.00     0.072 A 
HETATM    4  C4  UNL     1      31.335   8.550  49.302  1.00  0.00     0.099 C 
HETATM    5  N1  UNL     1      30.827   9.513  49.642  1.00  0.00    -0.192 NA
HETATM    6  C5  UNL     1      31.491   6.101  48.917  1.00  0.00     0.159 A 
HETATM    7  N2  UNL     1      31.711   4.807  48.683  1.00  0.00    -0.226 NA
HETATM    8  C6  UNL     1      32.981   4.503  48.175  1.00  0.00     0.192 A 
HETATM    9  N3  UNL     1      33.380   3.330  47.746  1.00  0.00    -0.249 NA
HETATM   10  C7  UNL     1      34.434   3.253  46.873  1.00  0.00     0.226 A 
HETATM   11  N4  UNL     1      34.748   4.600  46.706  1.00  0.00    -0.244 NA
HETATM   12  C8  UNL     1      33.960   5.468  47.433  1.00  0.00     0.197 A 
HETATM   13  C9  UNL     1      32.904   5.805  48.360  1.00  0.00     0.151 A 
HETATM   14  N5  UNL     1      34.189   6.587  46.403  1.00  0.00    -0.388 N 
HETATM   15  C10 UNL     1      32.935   6.501  45.766  1.00  0.00     0.146 C 
HETATM   16  C11 UNL     1      32.158   7.620  45.261  1.00  0.00     0.126 C 
HETATM   17  C12 UNL     1      31.007   7.889  45.958  1.00  0.00     0.047 C 
HETATM   18  C13 UNL     1      29.942   7.764  47.010  1.00  0.00    -0.003 C 
HETATM   19  C14 UNL     1      29.490   7.135  48.145  1.00  0.00     0.081 C 
HETATM   20  N7  UNL     1      30.031   6.064  48.994  1.00  0.00    -0.371 N 
HETATM   21  H5  UNL     1      34.589   7.355  45.836  1.00  0.00     0.156 HD
HETATM   22  H13 UNL     1      29.295   5.524  49.452  1.00  0.00     0.161 HD
ENDROOT
BRANCH  16  23
HETATM   23  S1  UNL     1      32.246   8.788  43.977  1.00  0.00     0.220 S 
HETATM   24  O1  UNL     1      31.479  10.027  44.317  1.00  0.00    -0.211 OA
HETATM   25  O2  UNL     1      33.725   9.136  43.844  1.00  0.00    -0.211 OA
BRANCH  23  26
HETATM   26  N6  UNL     1      31.705   8.133  42.474  1.00  0.00    -0.228 NA
HETATM   27  H8  UNL     1      30.952   7.436  42.612  1.00  0.00     0.136 HD
HETATM   28  H9  UNL     1      32.508   7.719  41.927  1.00  0.00     0.136 HD
ENDBRANCH  23  26
ENDBRANCH  16  23
TORSDOF 2
ENDMDL
MODEL 4
REMARK VINA RESULT:      -7.1      6.185      9.077
REMARK  2 active torsions:
REMARK  status: ('A' for Active; 'I' for Inactive)
REMARK    1  A    between atoms: C11_16  and  S1_17 
REMARK    2  A    between atoms: S1_17  and  N6_18 
ROOT
HETATM    1  C1  UNL     1      29.109   8.283  45.602  1.00  0.00     0.047 C 
HETATM    2  C2  UNL     1      29.217   7.361  46.749  1.00  0.00    -0.030 A 
HETATM    3  C3  UNL     1      30.437   7.035  47.228  1.00  0.00     0.072 A 
HETATM    4  C4  UNL     1      31.743   7.372  46.866  1.00  0.00     0.099 C 
HETATM    5  N1  UNL     1      32.804   7.648  46.552  1.00  0.00    -0.192 NA
HETATM    6  C5  UNL     1      30.032   6.195  48.229  1.00  0.00     0.159 A 
HETATM    7  N2  UNL     1      29.019   5.609  48.867  1.00  0.00    -0.226 NA
HETATM    8  C6  UNL     1      27.745   5.933  48.382  1.00  0.00     0.192 A 
HETATM    9  N3  UNL     1      26.602   5.589  48.926  1.00  0.00    -0.249 NA
HETATM   10  C7  UNL     1      25.477   6.320  48.651  1.00  0.00     0.226 A 
HETATM   11  N4  UNL     1      25.989   7.301  47.804  1.00  0.00    -0.244 NA
HETATM   12  C8  UNL     1      27.341   7.190  47.549  1.00  0.00     0.197 A 
HETATM   13  C9  UNL     1      28.643   6.574  47.664  1.00  0.00     0.151 A 
HETATM   14  N5  UNL     1      27.449   8.704  47.298  1.00  0.00    -0.388 N 
HETATM   15  C10 UNL     1      28.042   9.045  48.530  1.00  0.00     0.146 C 
HETATM   16  C11 UNL     1      29.064  10.059  48.730  1.00  0.00     0.126 C 
HETATM   17  C12 UNL     1      30.305   9.575  49.058  1.00  0.00     0.047 C 
HETATM   18  C13 UNL     1      31.387   8.578  49.362  1.00  0.00    -0.003 C 
HETATM   19  C14 UNL     1      31.768   7.262  49.461  1.00  0.00     0.081 C 
HETATM   20  N7  UNL     1      31.074   5.986  49.234  1.00  0.00    -0.371 N 
HETATM   21  H5  UNL     1      27.404   9.653  46.889  1.00  0.00     0.156 HD
HETATM   22  H13 UNL     1      31.450   5.232  49.812  1.00  0.00     0.161 HD
ENDROOT
BRANCH  16  23
HETATM   23  S1  UNL     1      29.204  11.790  48.676  1.00  0.00     0.220 S 
HETATM   24  O1  UNL     1      29.289  12.284  47.266  1.00  0.00    -0.211 OA
HETATM   25  O2  UNL     1      27.926  12.322  49.315  1.00  0.00    -0.211 OA
BRANCH  23  26
HETATM   26  N6  UNL     1      30.548  12.356  49.599  1.00  0.00    -0.228 NA
HETATM   27  H8  UNL     1      30.386  12.243  50.616  1.00  0.00     0.136 HD
HETATM   28  H9  UNL     1      30.780  13.358  49.362  1.00  0.00     0.136 HD
ENDBRANCH  23  26
ENDBRANCH  16  23
TORSDOF 2
ENDMDL
MODEL 5
REMARK VINA RESULT:      -7.1      3.230      4.758
REMARK  2 active torsions:
REMARK  status: ('A' for Active; 'I' for Inactive)
REMARK    1  A    between atoms: C11_16  and  S1_17 
REMARK    2  A    between atoms: S1_17  and  N6_18 
ROOT
HETATM    1  C1  UNL     1      22.276   2.018  48.693  1.00  0.00     0.047 C 
HETATM    2  C2  UNL     1      23.058   2.573  49.814  1.00  0.00    -0.030 A 
HETATM    3  C3  UNL     1      23.510   3.844  49.747  1.00  0.00     0.072 A 
HETATM    4  C4  UNL     1      23.426   4.853  48.786  1.00  0.00     0.099 C 
HETATM    5  N1  UNL     1      23.359   5.664  47.987  1.00  0.00    -0.192 NA
HETATM    6  C5  UNL     1      24.149   3.884  50.955  1.00  0.00     0.159 A 
HETATM    7  N2  UNL     1      24.489   3.241  52.072  1.00  0.00    -0.226 NA
HETATM    8  C6  UNL     1      24.032   1.919  52.159  1.00  0.00     0.192 A 
HETATM    9  N3  UNL     1      24.125   1.137  53.209  1.00  0.00    -0.249 NA
HETATM   10  C7  UNL     1      23.266   0.078  53.339  1.00  0.00     0.226 A 
HETATM   11  N4  UNL     1      22.486   0.216  52.192  1.00  0.00    -0.244 NA
HETATM   12  C8  UNL     1      22.837   1.278  51.385  1.00  0.00     0.197 A 
HETATM   13  C9  UNL     1      23.629   2.428  51.013  1.00  0.00     0.151 A 
HETATM   14  N5  UNL     1      21.400   1.381  50.846  1.00  0.00    -0.388 N 
HETATM   15  C10 UNL     1      21.009   2.507  51.599  1.00  0.00     0.146 C 
HETATM   16  C11 UNL     1      20.150   3.583  51.137  1.00  0.00     0.126 C 
HETATM   17  C12 UNL     1      20.778   4.790  50.956  1.00  0.00     0.047 C 
HETATM   18  C13 UNL     1      21.887   5.803  50.917  1.00  0.00    -0.003 C 
HETATM   19  C14 UNL     1      23.225   6.075  51.068  1.00  0.00     0.081 C 
HETATM   20  N7  UNL     1      24.394   5.253  51.408  1.00  0.00    -0.371 N 
HETATM   21  H5  UNL     1      20.511   1.230  50.337  1.00  0.00     0.156 HD
HETATM   22  H13 UNL     1      25.123   5.791  51.881  1.00  0.00     0.161 HD
ENDROOT
BRANCH  16  23
HETATM   23  S1  UNL     1      18.481   3.824  50.717  1.00  0.00     0.220 S 
HETATM   24  O1  UNL     1      17.973   2.713  49.852  1.00  0.00    -0.211 OA
HETATM   25  O2  UNL     1      17.723   3.814  52.040  1.00  0.00    -0.211 OA
BRANCH  23  26
HETATM   26  N6  UNL     1      18.223   5.352  49.956  1.00  0.00    -0.228 NA
HETATM   27  H8  UNL     1      17.660   5.257  49.092  1.00  0.00     0.136 HD
HETATM   28  H9  UNL     1      19.139   5.841  49.760  1.00  0.00     0.136 HD
ENDBRANCH  23  26
ENDBRANCH  16  23
TORSDOF 2
ENDMDL
MODEL 6
REMARK VINA RESULT:      -7.0      2.711      4.619
REMARK  2 active torsions:
REMARK  status: ('A' for Active; 'I' for Inactive)
REMARK    1  A    between atoms: C11_16  and  S1_17 
REMARK    2  A    between atoms: S1_17  and  N6_18 
ROOT
HETATM    1  C1  UNL     1      23.559   2.930  48.819  1.00  0.00     0.047 C 
HETATM    2  C2  UNL     1      22.505   3.508  49.676  1.00  0.00    -0.030 A 
HETATM    3  C3  UNL     1      21.570   2.699  50.218  1.00  0.00     0.072 A 
HETATM    4  C4  UNL     1      21.319   1.327  50.154  1.00  0.00     0.099 C 
HETATM    5  N1  UNL     1      21.120   0.206  50.082  1.00  0.00    -0.192 NA
HETATM    6  C5  UNL     1      20.853   3.654  50.884  1.00  0.00     0.159 A 
HETATM    7  N2  UNL     1      20.702   4.944  51.186  1.00  0.00    -0.226 NA
HETATM    8  C6  UNL     1      21.662   5.800  50.630  1.00  0.00     0.192 A 
HETATM    9  N3  UNL     1      21.799   7.079  50.889  1.00  0.00    -0.249 NA
HETATM   10  C7  UNL     1      23.006   7.687  50.664  1.00  0.00     0.226 A 
HETATM   11  N4  UNL     1      23.768   6.617  50.199  1.00  0.00    -0.244 NA
HETATM   12  C8  UNL     1      23.088   5.420  50.120  1.00  0.00     0.197 A 
HETATM   13  C9  UNL     1      21.928   4.568  50.250  1.00  0.00     0.151 A 
HETATM   14  N5  UNL     1      24.395   4.631  50.309  1.00  0.00    -0.388 N 
HETATM   15  C10 UNL     1      24.197   4.279  51.659  1.00  0.00     0.146 C 
HETATM   16  C11 UNL     1      24.565   3.015  52.272  1.00  0.00     0.126 C 
HETATM   17  C12 UNL     1      23.510   2.215  52.632  1.00  0.00     0.047 C 
HETATM   18  C13 UNL     1      22.088   1.762  52.806  1.00  0.00    -0.003 C 
HETATM   19  C14 UNL     1      20.752   2.003  52.596  1.00  0.00     0.081 C 
HETATM   20  N7  UNL     1      20.009   3.084  51.934  1.00  0.00    -0.371 N 
HETATM   21  H5  UNL     1      25.312   4.171  50.171  1.00  0.00     0.156 HD
HETATM   22  H13 UNL     1      19.077   3.215  52.333  1.00  0.00     0.161 HD
ENDROOT
BRANCH  16  23
HETATM   23  S1  UNL     1      26.011   2.157  52.711  1.00  0.00     0.220 S 
HETATM   24  O1  UNL     1      26.255   2.223  54.187  1.00  0.00    -0.211 OA
HETATM   25  O2  UNL     1      25.761   0.707  52.311  1.00  0.00    -0.211 OA
BRANCH  23  26
HETATM   26  N6  UNL     1      27.388   2.730  51.842  1.00  0.00    -0.228 NA
HETATM   27  H8  UNL     1      27.795   1.990  51.243  1.00  0.00     0.136 HD
HETATM   28  H9  UNL     1      28.113   3.130  52.497  1.00  0.00     0.136 HD
ENDBRANCH  23  26
ENDBRANCH  16  23
TORSDOF 2
ENDMDL
MODEL 7
REMARK VINA RESULT:      -7.0      2.622      3.996
REMARK  2 active torsions:
REMARK  status: ('A' for Active; 'I' for Inactive)
REMARK    1  A    between atoms: C11_16  and  S1_17 
REMARK    2  A    between atoms: S1_17  and  N6_18 
ROOT
HETATM    1  C1  UNL     1      23.722   4.124  53.481  1.00  0.00     0.047 C 
HETATM    2  C2  UNL     1      23.325   3.609  52.157  1.00  0.00    -0.030 A 
HETATM    3  C3  UNL     1      23.756   4.238  51.042  1.00  0.00     0.072 A 
HETATM    4  C4  UNL     1      24.544   5.367  50.808  1.00  0.00     0.099 C 
HETATM    5  N1  UNL     1      25.180   6.297  50.633  1.00  0.00    -0.192 NA
HETATM    6  C5  UNL     1      23.148   3.431  50.120  1.00  0.00     0.159 A 
HETATM    7  N2  UNL     1      22.366   2.377  49.886  1.00  0.00    -0.226 NA
HETATM    8  C6  UNL     1      21.906   1.713  51.031  1.00  0.00     0.192 A 
HETATM    9  N3  UNL     1      21.240   0.583  51.054  1.00  0.00    -0.249 NA
HETATM   10  C7  UNL     1      21.251  -0.184  52.189  1.00  0.00     0.226 A 
HETATM   11  N4  UNL     1      22.072   0.573  53.022  1.00  0.00    -0.244 NA
HETATM   12  C8  UNL     1      22.535   1.745  52.460  1.00  0.00     0.197 A 
HETATM   13  C9  UNL     1      22.659   2.727  51.407  1.00  0.00     0.151 A 
HETATM   14  N5  UNL     1      23.784   1.718  53.359  1.00  0.00    -0.388 N 
HETATM   15  C10 UNL     1      24.696   1.272  52.381  1.00  0.00     0.146 C 
HETATM   16  C11 UNL     1      26.078   1.700  52.249  1.00  0.00     0.126 C 
HETATM   17  C12 UNL     1      26.343   2.473  51.146  1.00  0.00     0.047 C 
HETATM   18  C13 UNL     1      26.098   3.238  49.877  1.00  0.00    -0.003 C 
HETATM   19  C14 UNL     1      25.200   3.686  48.939  1.00  0.00     0.081 C 
HETATM   20  N7  UNL     1      23.743   3.561  48.790  1.00  0.00    -0.371 N 
HETATM   21  H5  UNL     1      24.442   1.786  54.154  1.00  0.00     0.156 HD
HETATM   22  H13 UNL     1      23.450   3.587  47.812  1.00  0.00     0.161 HD
ENDROOT
BRANCH  16  23
HETATM   23  S1  UNL     1      27.579   1.527  53.107  1.00  0.00     0.220 S 
HETATM   24  O1  UNL     1      28.567   2.571  52.691  1.00  0.00    -0.211 OA
HETATM   25  O2  UNL     1      27.232   1.726  54.578  1.00  0.00    -0.211 OA
BRANCH  23  26
HETATM   26  N6  UNL     1      28.250  -0.052  52.917  1.00  0.00    -0.228 NA
HETATM   27  H8  UNL     1      27.939  -0.494  52.033  1.00  0.00     0.136 HD
HETATM   28  H9  UNL     1      28.024  -0.666  53.747  1.00  0.00     0.136 HD
ENDBRANCH  23  26
ENDBRANCH  16  23
TORSDOF 2
ENDMDL
MODEL 8
REMARK VINA RESULT:      -6.8      2.326      2.868
REMARK  2 active torsions:
REMARK  status: ('A' for Active; 'I' for Inactive)
REMARK    1  A    between atoms: C11_16  and  S1_17 
REMARK    2  A    between atoms: S1_17  and  N6_18 
ROOT
HETATM    1  C1  UNL     1      22.424   4.931  51.731  1.00  0.00     0.047 C 
HETATM    2  C2  UNL     1      22.632   3.480  51.900  1.00  0.00    -0.030 A 
HETATM    3  C3  UNL     1      21.565   2.670  52.072  1.00  0.00     0.072 A 
HETATM    4  C4  UNL     1      20.188   2.884  52.152  1.00  0.00     0.099 C 
HETATM    5  N1  UNL     1      19.066   3.076  52.227  1.00  0.00    -0.192 NA
HETATM    6  C5  UNL     1      22.240   1.486  52.185  1.00  0.00     0.159 A 
HETATM    7  N2  UNL     1      23.414   0.855  52.201  1.00  0.00    -0.226 NA
HETATM    8  C6  UNL     1      24.534   1.680  52.027  1.00  0.00     0.192 A 
HETATM    9  N3  UNL     1      25.773   1.277  51.876  1.00  0.00    -0.249 NA
HETATM   10  C7  UNL     1      26.682   2.104  51.268  1.00  0.00     0.226 A 
HETATM   11  N4  UNL     1      25.887   3.209  50.969  1.00  0.00    -0.244 NA
HETATM   12  C8  UNL     1      24.573   3.097  51.373  1.00  0.00     0.197 A 
HETATM   13  C9  UNL     1      23.451   2.429  51.992  1.00  0.00     0.151 A 
HETATM   14  N5  UNL     1      24.117   4.054  50.258  1.00  0.00    -0.388 N 
HETATM   15  C10 UNL     1      23.592   3.076  49.389  1.00  0.00     0.146 C 
HETATM   16  C11 UNL     1      22.402   3.219  48.567  1.00  0.00     0.126 C 
HETATM   17  C12 UNL     1      21.334   2.451  48.955  1.00  0.00     0.047 C 
HETATM   18  C13 UNL     1      20.527   1.475  49.763  1.00  0.00    -0.003 C 
HETATM   19  C14 UNL     1      20.449   0.648  50.858  1.00  0.00     0.081 C 
HETATM   20  N7  UNL     1      21.374   0.329  51.954  1.00  0.00    -0.371 N 
HETATM   21  H5  UNL     1      23.916   4.887  49.679  1.00  0.00     0.156 HD
HETATM   22  H13 UNL     1      21.229  -0.613  52.323  1.00  0.00     0.161 HD
ENDROOT
BRANCH  16  23
HETATM   23  S1  UNL     1      21.889   4.115  47.169  1.00  0.00     0.220 S 
HETATM   24  O1  UNL     1      22.124   3.339  45.911  1.00  0.00    -0.211 OA
HETATM   25  O2  UNL     1      20.391   4.329  47.351  1.00  0.00    -0.211 OA
BRANCH  23  26
HETATM   26  N6  UNL     1      22.652   5.660  47.081  1.00  0.00    -0.228 NA
HETATM   27  H8  UNL     1      23.649   5.610  47.359  1.00  0.00     0.136 HD
HETATM   28  H9  UNL     1      22.134   6.376  47.659  1.00  0.00     0.136 HD
ENDBRANCH  23  26
ENDBRANCH  16  23
TORSDOF 2
ENDMDL
MODEL 9
REMARK VINA RESULT:      -6.8      2.853      4.867
REMARK  2 active torsions:
REMARK  status: ('A' for Active; 'I' for Inactive)
REMARK    1  A    between atoms: C11_16  and  S1_17 
REMARK    2  A    between atoms: S1_17  and  N6_18 
ROOT
HETATM    1  C1  UNL     1      21.788   1.343  48.830  1.00  0.00     0.047 C 
HETATM    2  C2  UNL     1      22.079   1.349  50.277  1.00  0.00    -0.030 A 
HETATM    3  C3  UNL     1      23.146   2.036  50.738  1.00  0.00     0.072 A 
HETATM    4  C4  UNL     1      24.143   2.802  50.131  1.00  0.00     0.099 C 
HETATM    5  N1  UNL     1      24.958   3.415  49.619  1.00  0.00    -0.192 NA
HETATM    6  C5  UNL     1      23.003   1.743  52.066  1.00  0.00     0.159 A 
HETATM    7  N2  UNL     1      22.312   1.108  53.012  1.00  0.00    -0.226 NA
HETATM    8  C6  UNL     1      21.202   0.386  52.552  1.00  0.00     0.192 A 
HETATM    9  N3  UNL     1      20.301  -0.205  53.301  1.00  0.00    -0.249 NA
HETATM   10  C7  UNL     1      19.060  -0.467  52.783  1.00  0.00     0.226 A 
HETATM   11  N4  UNL     1      19.185   0.057  51.497  1.00  0.00    -0.244 NA
HETATM   12  C8  UNL     1      20.422   0.598  51.216  1.00  0.00     0.197 A 
HETATM   13  C9  UNL     1      21.789   0.956  51.520  1.00  0.00     0.151 A 
HETATM   14  N5  UNL     1      19.803   1.553  50.181  1.00  0.00    -0.388 N 
HETATM   15  C10 UNL     1      19.837   2.719  50.973  1.00  0.00     0.146 C 
HETATM   16  C11 UNL     1      20.125   4.061  50.500  1.00  0.00     0.126 C 
HETATM   17  C12 UNL     1      21.325   4.580  50.918  1.00  0.00     0.047 C 
HETATM   18  C13 UNL     1      22.658   4.653  51.606  1.00  0.00    -0.003 C 
HETATM   19  C14 UNL     1      23.618   4.025  52.361  1.00  0.00     0.081 C 
HETATM   20  N7  UNL     1      23.741   2.672  52.923  1.00  0.00    -0.371 N 
HETATM   21  H5  UNL     1      19.380   1.966  49.332  1.00  0.00     0.156 HD
HETATM   22  H13 UNL     1      24.302   2.656  53.777  1.00  0.00     0.161 HD
ENDROOT
BRANCH  16  23
HETATM   23  S1  UNL     1      19.376   5.278  49.510  1.00  0.00     0.220 S 
HETATM   24  O1  UNL     1      19.969   6.628  49.767  1.00  0.00    -0.211 OA
HETATM   25  O2  UNL     1      19.670   4.869  48.071  1.00  0.00    -0.211 OA
BRANCH  23  26
HETATM   26  N6  UNL     1      17.664   5.316  49.723  1.00  0.00    -0.228 NA
HETATM   27  H8  UNL     1      17.305   6.287  49.748  1.00  0.00     0.136 HD
HETATM   28  H9  UNL     1      17.374   4.783  50.588  1.00  0.00     0.136 HD
ENDBRANCH  23  26
ENDBRANCH  16  23
TORSDOF 2
ENDMDL
