MODEL 1
REMARK VINA RESULT:      -8.4      0.000      0.000
REMARK  1 active torsions:
REMARK  status: ('A' for Active; 'I' for Inactive)
REMARK    1  A    between atoms: C10_11  and  O1_12 
ROOT
HETATM    1  C1  UNL     1      22.454   2.101  49.018  1.00  0.00     0.051 C 
HETATM    2  C2  UNL     1      22.185   1.523  50.354  1.00  0.00    -0.023 C 
HETATM    3  C3  UNL     1      21.193   0.650  50.466  1.00  0.00     0.024 C 
HETATM    4  C4  UNL     1      20.458   0.887  51.536  1.00  0.00     0.128 C 
HETATM    5  F1  UNL     1      19.624   1.177  52.590  1.00  0.00    -0.205 F 
HETATM    6  C5  UNL     1      21.352   0.269  52.501  1.00  0.00     0.043 C 
HETATM    7  C6  UNL     1      21.389  -0.392  53.696  1.00  0.00     0.003 C 
HETATM    8  C7  UNL     1      21.955  -1.083  54.853  1.00  0.00    -0.004 C 
HETATM    9  C8  UNL     1      23.244  -1.291  54.999  1.00  0.00    -0.024 C 
HETATM   10  C9  UNL     1      24.560  -1.070  54.360  1.00  0.00     0.064 C 
HETATM   11  C10 UNL     1      25.472  -0.227  55.210  1.00  0.00     0.157 C 
HETATM   12  C11 UNL     1      26.743   0.019  54.496  1.00  0.00    -0.001 A 
HETATM   13  C12 UNL     1      28.032  -0.028  54.230  1.00  0.00     0.014 A 
HETATM   14  C13 UNL     1      27.812   0.779  53.038  1.00  0.00     0.033 A 
HETATM   15  C14 UNL     1      26.484   0.843  53.287  1.00  0.00     0.067 A 
HETATM   16  N1  UNL     1      25.329   1.397  52.700  1.00  0.00    -0.242 N 
HETATM   17  C15 UNL     1      24.775   2.499  53.032  1.00  0.00     0.233 A 
HETATM   18  N2  UNL     1      24.205   1.751  51.994  1.00  0.00    -0.246 N 
HETATM   19  C16 UNL     1      23.066   2.016  51.402  1.00  0.00     0.039 C 
HETATM   20  C17 UNL     1      22.405   3.257  51.871  1.00  0.00     0.071 C 
ENDROOT
BRANCH  11  21
HETATM   21  O1  UNL     1      25.718  -0.925  56.388  1.00  0.00    -0.391 OA
HETATM   22  H11 UNL     1      25.129  -1.699  56.526  1.00  0.00     0.210 HD
ENDBRANCH  11  21
TORSDOF 1
ENDMDL
MODEL 2
REMARK VINA RESULT:      -8.3      2.392      3.796
REMARK  1 active torsions:
REMARK  status: ('A' for Active; 'I' for Inactive)
REMARK    1  A    between atoms: C10_11  and  O1_12 
ROOT
HETATM    1  C1  UNL     1      19.811   0.229  51.241  1.00  0.00     0.051 C 
HETATM    2  C2  UNL     1      21.036   0.159  52.070  1.00  0.00    -0.023 C 
HETATM    3  C3  UNL     1      21.332  -0.998  52.646  1.00  0.00     0.024 C 
HETATM    4  C4  UNL     1      21.711  -0.833  53.899  1.00  0.00     0.128 C 
HETATM    5  F1  UNL     1      22.014  -0.690  55.232  1.00  0.00    -0.205 F 
HETATM    6  C5  UNL     1      23.075  -0.419  53.614  1.00  0.00     0.043 C 
HETATM    7  C6  UNL     1      24.351  -0.432  54.104  1.00  0.00     0.003 C 
HETATM    8  C7  UNL     1      25.789  -0.183  54.161  1.00  0.00    -0.004 C 
HETATM    9  C8  UNL     1      26.444   0.445  53.209  1.00  0.00    -0.024 C 
HETATM   10  C9  UNL     1      26.280   1.106  51.896  1.00  0.00     0.064 C 
HETATM   11  C10 UNL     1      26.663   2.560  51.938  1.00  0.00     0.157 C 
HETATM   12  C11 UNL     1      26.416   3.185  50.621  1.00  0.00    -0.001 A 
HETATM   13  C12 UNL     1      26.675   3.776  49.473  1.00  0.00     0.014 A 
HETATM   14  C13 UNL     1      25.251   3.794  49.164  1.00  0.00     0.033 A 
HETATM   15  C14 UNL     1      24.957   3.187  50.337  1.00  0.00     0.067 A 
HETATM   16  N1  UNL     1      23.818   2.723  51.024  1.00  0.00    -0.242 N 
HETATM   17  C15 UNL     1      23.193   3.347  51.947  1.00  0.00     0.233 A 
HETATM   18  N2  UNL     1      22.727   2.084  51.562  1.00  0.00    -0.246 N 
HETATM   19  C16 UNL     1      21.768   1.413  52.154  1.00  0.00     0.039 C 
HETATM   20  C17 UNL     1      21.122   2.131  53.277  1.00  0.00     0.071 C 
ENDROOT
BRANCH  11  21
HETATM   21  O1  UNL     1      28.017   2.631  52.248  1.00  0.00    -0.391 OA
HETATM   22  H11 UNL     1      28.206   2.687  53.211  1.00  0.00     0.210 HD
ENDBRANCH  11  21
TORSDOF 1
ENDMDL
MODEL 3
REMARK VINA RESULT:      -8.0      1.087      1.346
REMARK  1 active torsions:
REMARK  status: ('A' for Active; 'I' for Inactive)
REMARK    1  A    between atoms: C10_11  and  O1_12 
ROOT
HETATM    1  C1  UNL     1      23.895   3.907  49.012  1.00  0.00     0.051 C 
HETATM    2  C2  UNL     1      23.325   2.939  49.976  1.00  0.00    -0.023 C 
HETATM    3  C3  UNL     1      22.422   2.077  49.532  1.00  0.00     0.024 C 
HETATM    4  C4  UNL     1      21.406   1.966  50.366  1.00  0.00     0.128 C 
HETATM    5  F1  UNL     1      20.295   1.912  51.174  1.00  0.00    -0.205 F 
HETATM    6  C5  UNL     1      22.056   1.075  51.313  1.00  0.00     0.043 C 
HETATM    7  C6  UNL     1      21.825   0.071  52.211  1.00  0.00     0.003 C 
HETATM    8  C7  UNL     1      22.114  -0.949  53.216  1.00  0.00    -0.004 C 
HETATM    9  C8  UNL     1      23.329  -1.194  53.655  1.00  0.00    -0.024 C 
HETATM   10  C9  UNL     1      24.744  -0.786  53.516  1.00  0.00     0.064 C 
HETATM   11  C10 UNL     1      25.313  -0.254  54.804  1.00  0.00     0.157 C 
HETATM   12  C11 UNL     1      26.703   0.202  54.591  1.00  0.00    -0.001 A 
HETATM   13  C12 UNL     1      28.015   0.240  54.703  1.00  0.00     0.014 A 
HETATM   14  C13 UNL     1      28.056   1.381  53.799  1.00  0.00     0.033 A 
HETATM   15  C14 UNL     1      26.710   1.365  53.665  1.00  0.00     0.067 A 
HETATM   16  N1  UNL     1      25.713   2.078  52.970  1.00  0.00    -0.242 N 
HETATM   17  C15 UNL     1      24.995   3.020  53.446  1.00  0.00     0.233 A 
HETATM   18  N2  UNL     1      24.797   2.637  52.113  1.00  0.00    -0.246 N 
HETATM   19  C16 UNL     1      23.842   3.076  51.329  1.00  0.00     0.039 C 
HETATM   20  C17 UNL     1      22.972   4.108  51.942  1.00  0.00     0.071 C 
ENDROOT
BRANCH  11  21
HETATM   21  O1  UNL     1      25.290  -1.287  55.734  1.00  0.00    -0.391 OA
HETATM   22  H11 UNL     1      25.350  -2.185  55.339  1.00  0.00     0.210 HD
ENDBRANCH  11  21
TORSDOF 1
ENDMDL
MODEL 4
REMARK VINA RESULT:      -7.8      2.898      5.936
REMARK  1 active torsions:
REMARK  status: ('A' for Active; 'I' for Inactive)
REMARK    1  A    between atoms: C10_11  and  O1_12 
ROOT
HETATM    1  C1  UNL     1      26.994  -2.146  52.697  1.00  0.00     0.051 C 
HETATM    2  C2  UNL     1      26.398  -0.794  52.615  1.00  0.00    -0.023 C 
HETATM    3  C3  UNL     1      26.909   0.060  51.739  1.00  0.00     0.024 C 
HETATM    4  C4  UNL     1      27.061   1.261  52.263  1.00  0.00     0.128 C 
HETATM    5  F1  UNL     1      27.317   2.491  52.821  1.00  0.00    -0.205 F 
HETATM    6  C5  UNL     1      25.675   1.681  52.137  1.00  0.00     0.043 C 
HETATM    7  C6  UNL     1      24.872   2.772  51.960  1.00  0.00     0.003 C 
HETATM    8  C7  UNL     1      23.642   3.545  51.799  1.00  0.00    -0.004 C 
HETATM    9  C8  UNL     1      22.448   2.996  51.801  1.00  0.00    -0.024 C 
HETATM   10  C9  UNL     1      21.739   1.703  51.918  1.00  0.00     0.064 C 
HETATM   11  C10 UNL     1      20.815   1.666  53.106  1.00  0.00     0.157 C 
HETATM   12  C11 UNL     1      20.187   0.332  53.214  1.00  0.00    -0.001 A 
HETATM   13  C12 UNL     1      19.241  -0.585  53.216  1.00  0.00     0.014 A 
HETATM   14  C13 UNL     1      20.236  -1.607  53.510  1.00  0.00     0.033 A 
HETATM   15  C14 UNL     1      21.228  -0.686  53.513  1.00  0.00     0.067 A 
HETATM   16  N1  UNL     1      22.625  -0.646  53.688  1.00  0.00    -0.242 N 
HETATM   17  C15 UNL     1      23.236  -0.343  54.768  1.00  0.00     0.233 A 
HETATM   18  N2  UNL     1      23.998  -0.669  53.639  1.00  0.00    -0.246 N 
HETATM   19  C16 UNL     1      25.302  -0.571  53.546  1.00  0.00     0.039 C 
HETATM   20  C17 UNL     1      25.974  -0.133  54.792  1.00  0.00     0.071 C 
ENDROOT
BRANCH  11  21
HETATM   21  O1  UNL     1      19.837   2.635  52.911  1.00  0.00    -0.391 OA
HETATM   22  H11 UNL     1      20.062   3.513  53.290  1.00  0.00     0.210 HD
ENDBRANCH  11  21
TORSDOF 1
ENDMDL
MODEL 5
REMARK VINA RESULT:      -7.8      2.542      4.603
REMARK  1 active torsions:
REMARK  status: ('A' for Active; 'I' for Inactive)
REMARK    1  A    between atoms: C10_11  and  O1_12 
ROOT
HETATM    1  C1  UNL     1      21.842   5.432  50.302  1.00  0.00     0.051 C 
HETATM    2  C2  UNL     1      23.056   4.599  50.459  1.00  0.00    -0.023 C 
HETATM    3  C3  UNL     1      24.231   5.212  50.494  1.00  0.00     0.024 C 
HETATM    4  C4  UNL     1      25.126   4.587  49.753  1.00  0.00     0.128 C 
HETATM    5  F1  UNL     1      26.043   4.006  48.910  1.00  0.00    -0.205 F 
HETATM    6  C5  UNL     1      25.440   3.538  50.709  1.00  0.00     0.043 C 
HETATM    7  C6  UNL     1      26.436   2.705  51.136  1.00  0.00     0.003 C 
HETATM    8  C7  UNL     1      27.099   1.668  51.923  1.00  0.00    -0.004 C 
HETATM    9  C8  UNL     1      26.494   1.006  52.885  1.00  0.00    -0.024 C 
HETATM   10  C9  UNL     1      25.208   0.871  53.603  1.00  0.00     0.064 C 
HETATM   11  C10 UNL     1      24.615  -0.504  53.455  1.00  0.00     0.157 C 
HETATM   12  C11 UNL     1      23.302  -0.563  54.131  1.00  0.00    -0.001 A 
HETATM   13  C12 UNL     1      22.385  -0.924  55.005  1.00  0.00     0.014 A 
HETATM   14  C13 UNL     1      21.421  -0.050  54.350  1.00  0.00     0.033 A 
HETATM   15  C14 UNL     1      22.344   0.339  53.440  1.00  0.00     0.067 A 
HETATM   16  N1  UNL     1      22.431   1.209  52.335  1.00  0.00    -0.242 N 
HETATM   17  C15 UNL     1      22.323   0.874  51.107  1.00  0.00     0.233 A 
HETATM   18  N2  UNL     1      22.548   2.222  51.415  1.00  0.00    -0.246 N 
HETATM   19  C16 UNL     1      22.788   3.171  50.543  1.00  0.00     0.039 C 
HETATM   20  C17 UNL     1      22.741   2.731  49.129  1.00  0.00     0.071 C 
ENDROOT
BRANCH  11  21
HETATM   21  O1  UNL     1      25.492  -1.409  54.043  1.00  0.00    -0.391 OA
HETATM   22  H11 UNL     1      25.718  -2.178  53.475  1.00  0.00     0.210 HD
ENDBRANCH  11  21
TORSDOF 1
ENDMDL
MODEL 6
REMARK VINA RESULT:      -7.6      2.822      5.587
REMARK  1 active torsions:
REMARK  status: ('A' for Active; 'I' for Inactive)
REMARK    1  A    between atoms: C10_11  and  O1_12 
ROOT
HETATM    1  C1  UNL     1      28.123   2.476  53.784  1.00  0.00     0.051 C 
HETATM    2  C2  UNL     1      26.922   1.642  53.550  1.00  0.00    -0.023 C 
HETATM    3  C3  UNL     1      26.662   0.670  54.412  1.00  0.00     0.024 C 
HETATM    4  C4  UNL     1      26.314  -0.444  53.796  1.00  0.00     0.128 C 
HETATM    5  F1  UNL     1      26.045  -1.638  53.170  1.00  0.00    -0.205 F 
HETATM    6  C5  UNL     1      24.936  -0.069  53.525  1.00  0.00     0.043 C 
HETATM    7  C6  UNL     1      23.674  -0.568  53.364  1.00  0.00     0.003 C 
HETATM    8  C7  UNL     1      22.234  -0.575  53.121  1.00  0.00    -0.004 C 
HETATM    9  C8  UNL     1      21.543   0.521  52.895  1.00  0.00    -0.024 C 
HETATM   10  C9  UNL     1      21.660   1.990  52.768  1.00  0.00     0.064 C 
HETATM   11  C10 UNL     1      21.252   2.479  51.404  1.00  0.00     0.157 C 
HETATM   12  C11 UNL     1      21.454   3.940  51.310  1.00  0.00    -0.001 A 
HETATM   13  C12 UNL     1      21.154   5.217  51.190  1.00  0.00     0.014 A 
HETATM   14  C13 UNL     1      22.568   5.555  51.278  1.00  0.00     0.033 A 
HETATM   15  C14 UNL     1      22.904   4.250  51.405  1.00  0.00     0.067 A 
HETATM   16  N1  UNL     1      24.069   3.476  51.574  1.00  0.00    -0.242 N 
HETATM   17  C15 UNL     1      24.707   2.870  50.648  1.00  0.00     0.233 A 
HETATM   18  N2  UNL     1      25.185   2.775  51.961  1.00  0.00    -0.246 N 
HETATM   19  C16 UNL     1      26.171   2.007  52.358  1.00  0.00     0.039 C 
HETATM   20  C17 UNL     1      26.835   1.250  51.270  1.00  0.00     0.071 C 
ENDROOT
BRANCH  11  21
HETATM   21  O1  UNL     1      19.906   2.174  51.231  1.00  0.00    -0.391 OA
HETATM   22  H11 UNL     1      19.320   2.532  51.934  1.00  0.00     0.210 HD
ENDBRANCH  11  21
TORSDOF 1
ENDMDL
MODEL 7
REMARK VINA RESULT:      -7.4      3.572      6.452
REMARK  1 active torsions:
REMARK  status: ('A' for Active; 'I' for Inactive)
REMARK    1  A    between atoms: C10_11  and  O1_12 
ROOT
HETATM    1  C1  UNL     1      25.917   2.111  53.446  1.00  0.00     0.051 C 
HETATM    2  C2  UNL     1      25.173   2.453  52.213  1.00  0.00    -0.023 C 
HETATM    3  C3  UNL     1      25.841   2.480  51.069  1.00  0.00     0.024 C 
HETATM    4  C4  UNL     1      25.524   3.537  50.345  1.00  0.00     0.128 C 
HETATM    5  F1  UNL     1      25.279   4.680  49.624  1.00  0.00    -0.205 F 
HETATM    6  C5  UNL     1      24.277   3.013  49.814  1.00  0.00     0.043 C 
HETATM    7  C6  UNL     1      23.439   3.060  48.735  1.00  0.00     0.003 C 
HETATM    8  C7  UNL     1      22.278   2.761  47.899  1.00  0.00    -0.004 C 
HETATM    9  C8  UNL     1      21.326   1.933  48.269  1.00  0.00    -0.024 C 
HETATM   10  C9  UNL     1      20.893   1.041  49.366  1.00  0.00     0.064 C 
HETATM   11  C10 UNL     1      19.572   1.461  49.954  1.00  0.00     0.157 C 
HETATM   12  C11 UNL     1      19.221   0.579  51.087  1.00  0.00    -0.001 A 
HETATM   13  C12 UNL     1      18.557  -0.318  51.786  1.00  0.00     0.014 A 
HETATM   14  C13 UNL     1      19.501  -0.156  52.884  1.00  0.00     0.033 A 
HETATM   15  C14 UNL     1      20.202   0.768  52.188  1.00  0.00     0.067 A 
HETATM   16  N1  UNL     1      21.352   1.564  52.358  1.00  0.00    -0.242 N 
HETATM   17  C15 UNL     1      21.369   2.787  52.724  1.00  0.00     0.233 A 
HETATM   18  N2  UNL     1      22.589   2.151  52.460  1.00  0.00    -0.246 N 
HETATM   19  C16 UNL     1      23.762   2.737  52.431  1.00  0.00     0.039 C 
HETATM   20  C17 UNL     1      23.736   4.178  52.777  1.00  0.00     0.071 C 
ENDROOT
BRANCH  11  21
HETATM   21  O1  UNL     1      18.611   1.353  48.954  1.00  0.00    -0.391 OA
HETATM   22  H11 UNL     1      18.965   1.462  48.044  1.00  0.00     0.210 HD
ENDBRANCH  11  21
TORSDOF 1
ENDMDL
MODEL 8
REMARK VINA RESULT:      -7.3      3.433      5.678
REMARK  1 active torsions:
REMARK  status: ('A' for Active; 'I' for Inactive)
REMARK    1  A    between atoms: C10_11  and  O1_12 
ROOT
HETATM    1  C1  UNL     1      19.210   0.993  50.355  1.00  0.00     0.051 C 
HETATM    2  C2  UNL     1      20.578   1.194  50.883  1.00  0.00    -0.023 C 
HETATM    3  C3  UNL     1      21.302   0.118  51.161  1.00  0.00     0.024 C 
HETATM    4  C4  UNL     1      21.927   0.240  52.317  1.00  0.00     0.128 C 
HETATM    5  F1  UNL     1      22.507   0.308  53.561  1.00  0.00    -0.205 F 
HETATM    6  C5  UNL     1      23.017   1.072  51.837  1.00  0.00     0.043 C 
HETATM    7  C6  UNL     1      24.333   1.383  52.040  1.00  0.00     0.003 C 
HETATM    8  C7  UNL     1      25.622   2.040  51.842  1.00  0.00    -0.004 C 
HETATM    9  C8  UNL     1      25.828   2.942  50.908  1.00  0.00    -0.024 C 
HETATM   10  C9  UNL     1      25.171   3.674  49.803  1.00  0.00     0.064 C 
HETATM   11  C10 UNL     1      25.159   5.161  50.032  1.00  0.00     0.157 C 
HETATM   12  C11 UNL     1      24.433   5.835  48.935  1.00  0.00    -0.001 A 
HETATM   13  C12 UNL     1      24.231   6.607  47.887  1.00  0.00     0.014 A 
HETATM   14  C13 UNL     1      22.822   6.236  47.889  1.00  0.00     0.033 A 
HETATM   15  C14 UNL     1      23.001   5.435  48.965  1.00  0.00     0.067 A 
HETATM   16  N1  UNL     1      22.235   4.575  49.776  1.00  0.00    -0.242 N 
HETATM   17  C15 UNL     1      21.722   4.871  50.907  1.00  0.00     0.233 A 
HETATM   18  N2  UNL     1      21.521   3.581  50.400  1.00  0.00    -0.246 N 
HETATM   19  C16 UNL     1      20.953   2.590  51.044  1.00  0.00     0.039 C 
HETATM   20  C17 UNL     1      20.445   2.945  52.390  1.00  0.00     0.071 C 
ENDROOT
BRANCH  11  21
HETATM   21  O1  UNL     1      26.480   5.595  50.063  1.00  0.00    -0.391 OA
HETATM   22  H11 UNL     1      27.057   5.084  50.672  1.00  0.00     0.210 HD
ENDBRANCH  11  21
TORSDOF 1
ENDMDL
MODEL 9
REMARK VINA RESULT:      -7.3      2.950      5.279
REMARK  1 active torsions:
REMARK  status: ('A' for Active; 'I' for Inactive)
REMARK    1  A    between atoms: C10_11  and  O1_12 
ROOT
HETATM    1  C1  UNL     1      21.546   5.049  48.243  1.00  0.00     0.051 C 
HETATM    2  C2  UNL     1      22.465   4.194  49.028  1.00  0.00    -0.023 C 
HETATM    3  C3  UNL     1      23.548   4.757  49.546  1.00  0.00     0.024 C 
HETATM    4  C4  UNL     1      24.617   4.003  49.372  1.00  0.00     0.128 C 
HETATM    5  F1  UNL     1      25.755   3.277  49.115  1.00  0.00    -0.205 F 
HETATM    6  C5  UNL     1      24.355   3.078  50.462  1.00  0.00     0.043 C 
HETATM    7  C6  UNL     1      24.958   2.268  51.383  1.00  0.00     0.003 C 
HETATM    8  C7  UNL     1      25.082   1.318  52.486  1.00  0.00    -0.004 C 
HETATM    9  C8  UNL     1      24.043   0.816  53.116  1.00  0.00    -0.024 C 
HETATM   10  C9  UNL     1      22.565   0.830  53.162  1.00  0.00     0.064 C 
HETATM   11  C10 UNL     1      21.973  -0.527  52.891  1.00  0.00     0.157 C 
HETATM   12  C11 UNL     1      20.498  -0.441  52.881  1.00  0.00    -0.001 A 
HETATM   13  C12 UNL     1      19.252  -0.644  53.258  1.00  0.00     0.014 A 
HETATM   14  C13 UNL     1      18.785   0.175  52.147  1.00  0.00     0.033 A 
HETATM   15  C14 UNL     1      20.055   0.400  51.738  1.00  0.00     0.067 A 
HETATM   16  N1  UNL     1      20.722   1.112  50.721  1.00  0.00    -0.242 N 
HETATM   17  C15 UNL     1      21.155   0.621  49.624  1.00  0.00     0.233 A 
HETATM   18  N2  UNL     1      21.346   1.988  49.867  1.00  0.00    -0.246 N 
HETATM   19  C16 UNL     1      22.050   2.803  49.118  1.00  0.00     0.039 C 
HETATM   20  C17 UNL     1      22.611   2.181  47.896  1.00  0.00     0.071 C 
ENDROOT
BRANCH  11  21
HETATM   21  O1  UNL     1      22.391  -1.381  53.906  1.00  0.00    -0.391 OA
HETATM   22  H11 UNL     1      23.239  -1.840  53.721  1.00  0.00     0.210 HD
ENDBRANCH  11  21
TORSDOF 1
ENDMDL
