MODEL 1
REMARK VINA RESULT:      -8.0      0.000      0.000
REMARK  5 active torsions:
REMARK  status: ('A' for Active; 'I' for Inactive)
REMARK    1  A    between atoms: N1_1  and  N2_2 
REMARK    2  A    between atoms: N2_2  and  O1_3 
REMARK    3  A    between atoms: N2_2  and  C1_4 
REMARK    4  A    between atoms: C6_11  and  N5_12 
REMARK    5  A    between atoms: N5_12  and  C7_13 
ROOT
HETATM    1  C1  UNL     1      21.986  -0.058  53.336  1.00  0.00     0.076 A 
HETATM    2  C2  UNL     1      21.270   0.007  52.148  1.00  0.00     0.036 A 
HETATM    3  C3  UNL     1      21.779   0.818  51.125  1.00  0.00     0.035 A 
HETATM    4  C4  UNL     1      22.951   1.536  51.267  1.00  0.00     0.072 A 
HETATM    5  N3  UNL     1      23.441   2.312  50.284  1.00  0.00    -0.241 NA
HETATM    6  C5  UNL     1      24.573   2.992  50.447  1.00  0.00     0.236 A 
HETATM    7  N4  UNL     1      25.245   2.901  51.627  1.00  0.00    -0.224 NA
HETATM    8  C6  UNL     1      24.756   2.117  52.632  1.00  0.00     0.142 A 
HETATM    9  C13 UNL     1      23.592   1.402  52.496  1.00  0.00     0.041 A 
HETATM   10  C14 UNL     1      23.154   0.627  53.548  1.00  0.00     0.051 A 
ENDROOT
BRANCH   8  11
HETATM   11  N5  UNL     1      25.473   2.126  53.876  1.00  0.00    -0.340 N 
HETATM   12  H7  UNL     1      25.385   2.533  54.825  1.00  0.00     0.167 HD
BRANCH  11  13
HETATM   13  C7  UNL     1      26.635   1.302  53.648  1.00  0.00     0.035 A 
HETATM   14  C8  UNL     1      27.917   1.839  53.787  1.00  0.00     0.032 A 
HETATM   15  C9  UNL     1      29.066   1.083  53.583  1.00  0.00     0.046 A 
HETATM   16  C10 UNL     1      28.977  -0.247  53.227  1.00  0.00     0.138 A 
HETATM   17  F1  UNL     1      30.053  -1.040  53.020  1.00  0.00    -0.204 F 
HETATM   18  C11 UNL     1      27.735  -0.873  53.063  1.00  0.00     0.074 A 
HETATM   19 CL1  UNL     1      27.489  -2.531  52.631  1.00  0.00    -0.081 Cl
HETATM   20  C12 UNL     1      26.671  -0.033  53.289  1.00  0.00     0.056 A 
ENDBRANCH  11  13
ENDBRANCH   8  11
BRANCH   1  21
HETATM   21  N2  UNL     1      21.363  -0.927  54.283  1.00  0.00    -0.189 N 
BRANCH  21  22
HETATM   22  N1  UNL     1      19.969  -0.921  54.120  1.00  0.00    -0.222 NA
HETATM   23  H1  UNL     1      19.431  -1.093  54.969  1.00  0.00     0.145 HD
HETATM   24  H2  UNL     1      19.765   0.005  53.665  1.00  0.00     0.145 HD
ENDBRANCH  21  22
BRANCH  21  25
HETATM   25  O1  UNL     1      21.937  -1.696  55.259  1.00  0.00    -0.272 OA
HETATM   26  H3  UNL     1      22.807  -1.284  55.464  1.00  0.00     0.246 HD
ENDBRANCH  21  25
ENDBRANCH   1  21
TORSDOF 5
ENDMDL
MODEL 2
REMARK VINA RESULT:      -7.6      4.236      6.463
REMARK  5 active torsions:
REMARK  status: ('A' for Active; 'I' for Inactive)
REMARK    1  A    between atoms: N1_1  and  N2_2 
REMARK    2  A    between atoms: N2_2  and  O1_3 
REMARK    3  A    between atoms: N2_2  and  C1_4 
REMARK    4  A    between atoms: C6_11  and  N5_12 
REMARK    5  A    between atoms: N5_12  and  C7_13 
ROOT
HETATM    1  C1  UNL     1      27.655   0.870  53.575  1.00  0.00     0.076 A 
HETATM    2  C2  UNL     1      27.422  -0.498  53.619  1.00  0.00     0.036 A 
HETATM    3  C3  UNL     1      26.101  -0.938  53.472  1.00  0.00     0.035 A 
HETATM    4  C4  UNL     1      25.048  -0.063  53.287  1.00  0.00     0.072 A 
HETATM    5  N3  UNL     1      23.779  -0.486  53.144  1.00  0.00    -0.241 NA
HETATM    6  C5  UNL     1      22.784   0.379  52.965  1.00  0.00     0.236 A 
HETATM    7  N4  UNL     1      23.054   1.712  52.927  1.00  0.00    -0.224 NA
HETATM    8  C6  UNL     1      24.338   2.153  53.072  1.00  0.00     0.142 A 
HETATM    9  C13 UNL     1      25.388   1.287  53.257  1.00  0.00     0.041 A 
HETATM   10  C14 UNL     1      26.661   1.796  53.395  1.00  0.00     0.051 A 
ENDROOT
BRANCH   8  11
HETATM   11  N5  UNL     1      24.542   3.574  53.099  1.00  0.00    -0.340 N 
HETATM   12  H7  UNL     1      24.866   4.303  53.759  1.00  0.00     0.167 HD
BRANCH  11  13
HETATM   13  C7  UNL     1      24.168   4.033  51.783  1.00  0.00     0.035 A 
HETATM   14  C8  UNL     1      24.869   3.595  50.658  1.00  0.00     0.032 A 
HETATM   15  C9  UNL     1      24.542   4.006  49.371  1.00  0.00     0.046 A 
HETATM   16  C10 UNL     1      23.494   4.879  49.158  1.00  0.00     0.138 A 
HETATM   17  F1  UNL     1      23.119   5.312  47.934  1.00  0.00    -0.204 F 
HETATM   18  C11 UNL     1      22.734   5.373  50.225  1.00  0.00     0.074 A 
HETATM   19 CL1  UNL     1      21.393   6.460  50.090  1.00  0.00    -0.081 Cl
HETATM   20  C12 UNL     1      23.145   4.902  51.448  1.00  0.00     0.056 A 
ENDBRANCH  11  13
ENDBRANCH   8  11
BRANCH   1  21
HETATM   21  N2  UNL     1      29.042   1.177  53.724  1.00  0.00    -0.189 N 
BRANCH  21  22
HETATM   22  N1  UNL     1      29.212   2.482  54.207  1.00  0.00    -0.222 NA
HETATM   23  H1  UNL     1      29.392   3.191  53.496  1.00  0.00     0.145 HD
HETATM   24  H2  UNL     1      28.350   2.662  54.781  1.00  0.00     0.145 HD
ENDBRANCH  21  22
BRANCH  21  25
HETATM   25  O1  UNL     1      30.134   0.394  53.458  1.00  0.00    -0.272 OA
HETATM   26  H3  UNL     1      29.811  -0.534  53.429  1.00  0.00     0.246 HD
ENDBRANCH  21  25
ENDBRANCH   1  21
TORSDOF 5
ENDMDL
MODEL 3
REMARK VINA RESULT:      -7.5      2.534      3.583
REMARK  5 active torsions:
REMARK  status: ('A' for Active; 'I' for Inactive)
REMARK    1  A    between atoms: N1_1  and  N2_2 
REMARK    2  A    between atoms: N2_2  and  O1_3 
REMARK    3  A    between atoms: N2_2  and  C1_4 
REMARK    4  A    between atoms: C6_11  and  N5_12 
REMARK    5  A    between atoms: N5_12  and  C7_13 
ROOT
HETATM    1  C1  UNL     1      20.926   0.180  52.388  1.00  0.00     0.076 A 
HETATM    2  C2  UNL     1      20.196  -0.474  53.373  1.00  0.00     0.036 A 
HETATM    3  C3  UNL     1      20.903  -1.027  54.448  1.00  0.00     0.035 A 
HETATM    4  C4  UNL     1      22.279  -0.938  54.550  1.00  0.00     0.072 A 
HETATM    5  N3  UNL     1      22.958  -1.468  55.583  1.00  0.00    -0.241 NA
HETATM    6  C5  UNL     1      24.282  -1.366  55.658  1.00  0.00     0.236 A 
HETATM    7  N4  UNL     1      24.960  -0.717  54.673  1.00  0.00    -0.224 NA
HETATM    8  C6  UNL     1      24.282  -0.177  53.619  1.00  0.00     0.142 A 
HETATM    9  C13 UNL     1      22.916  -0.263  53.512  1.00  0.00     0.041 A 
HETATM   10  C14 UNL     1      22.291   0.306  52.424  1.00  0.00     0.051 A 
ENDROOT
BRANCH   8  11
HETATM   11  N5  UNL     1      25.065   0.426  52.577  1.00  0.00    -0.340 N 
HETATM   12  H7  UNL     1      24.920   0.970  51.707  1.00  0.00     0.167 HD
BRANCH  11  13
HETATM   13  C7  UNL     1      26.436   0.147  52.927  1.00  0.00     0.035 A 
HETATM   14  C8  UNL     1      26.990  -1.107  52.662  1.00  0.00     0.032 A 
HETATM   15  C9  UNL     1      28.307  -1.420  52.976  1.00  0.00     0.046 A 
HETATM   16  C10 UNL     1      29.128  -0.486  53.574  1.00  0.00     0.138 A 
HETATM   17  F1  UNL     1      30.419  -0.722  53.899  1.00  0.00    -0.204 F 
HETATM   18  C11 UNL     1      28.661   0.799  53.880  1.00  0.00     0.074 A 
HETATM   19 CL1  UNL     1      29.589   2.061  54.616  1.00  0.00    -0.081 Cl
HETATM   20  C12 UNL     1      27.348   0.998  53.526  1.00  0.00     0.056 A 
ENDBRANCH  11  13
ENDBRANCH   8  11
BRANCH   1  21
HETATM   21  N2  UNL     1      20.082   0.705  51.363  1.00  0.00    -0.189 N 
BRANCH  21  22
HETATM   22  N1  UNL     1      18.834   1.072  51.888  1.00  0.00    -0.222 NA
HETATM   23  H1  UNL     1      18.040   0.537  51.539  1.00  0.00     0.145 HD
HETATM   24  H2  UNL     1      18.963   1.014  52.930  1.00  0.00     0.145 HD
ENDBRANCH  21  22
BRANCH  21  25
HETATM   25  O1  UNL     1      20.340   0.865  50.028  1.00  0.00    -0.272 OA
HETATM   26  H3  UNL     1      19.966   1.739  49.775  1.00  0.00     0.246 HD
ENDBRANCH  21  25
ENDBRANCH   1  21
TORSDOF 5
ENDMDL
MODEL 4
REMARK VINA RESULT:      -7.5      2.398      2.901
REMARK  5 active torsions:
REMARK  status: ('A' for Active; 'I' for Inactive)
REMARK    1  A    between atoms: N1_1  and  N2_2 
REMARK    2  A    between atoms: N2_2  and  O1_3 
REMARK    3  A    between atoms: N2_2  and  C1_4 
REMARK    4  A    between atoms: C6_11  and  N5_12 
REMARK    5  A    between atoms: N5_12  and  C7_13 
ROOT
HETATM    1  C1  UNL     1      22.103   2.911  51.676  1.00  0.00     0.076 A 
HETATM    2  C2  UNL     1      21.882   3.340  50.373  1.00  0.00     0.036 A 
HETATM    3  C3  UNL     1      23.003   3.562  49.564  1.00  0.00     0.035 A 
HETATM    4  C4  UNL     1      24.294   3.368  50.019  1.00  0.00     0.072 A 
HETATM    5  N3  UNL     1      25.370   3.579  49.241  1.00  0.00    -0.241 NA
HETATM    6  C5  UNL     1      26.601   3.382  49.705  1.00  0.00     0.236 A 
HETATM    7  N4  UNL     1      26.774   2.962  50.988  1.00  0.00    -0.224 NA
HETATM    8  C6  UNL     1      25.688   2.745  51.787  1.00  0.00     0.142 A 
HETATM    9  C13 UNL     1      24.405   2.937  51.339  1.00  0.00     0.041 A 
HETATM   10  C14 UNL     1      23.353   2.699  52.196  1.00  0.00     0.051 A 
ENDROOT
BRANCH   8  11
HETATM   11  N5  UNL     1      25.945   2.377  53.151  1.00  0.00    -0.340 N 
HETATM   12  H7  UNL     1      25.825   2.771  54.102  1.00  0.00     0.167 HD
BRANCH  11  13
HETATM   13  C7  UNL     1      26.536   1.063  53.082  1.00  0.00     0.035 A 
HETATM   14  C8  UNL     1      25.754  -0.045  52.751  1.00  0.00     0.032 A 
HETATM   15  C9  UNL     1      26.280  -1.329  52.667  1.00  0.00     0.046 A 
HETATM   16  C10 UNL     1      27.618  -1.557  52.914  1.00  0.00     0.138 A 
HETATM   17  F1  UNL     1      28.195  -2.777  52.843  1.00  0.00    -0.204 F 
HETATM   18  C11 UNL     1      28.482  -0.508  53.255  1.00  0.00     0.074 A 
HETATM   19 CL1  UNL     1      30.176  -0.659  53.576  1.00  0.00    -0.081 Cl
HETATM   20  C12 UNL     1      27.856   0.714  53.308  1.00  0.00     0.056 A 
ENDBRANCH  11  13
ENDBRANCH   8  11
BRANCH   1  21
HETATM   21  N2  UNL     1      20.877   2.712  52.382  1.00  0.00    -0.189 N 
BRANCH  21  22
HETATM   22  N1  UNL     1      20.919   1.521  53.122  1.00  0.00    -0.222 NA
HETATM   23  H1  UNL     1      21.523   0.793  52.742  1.00  0.00     0.145 HD
HETATM   24  H2  UNL     1      21.177   1.827  54.093  1.00  0.00     0.145 HD
ENDBRANCH  21  22
BRANCH  21  25
HETATM   25  O1  UNL     1      19.755   3.497  52.404  1.00  0.00    -0.272 OA
HETATM   26  H3  UNL     1      20.050   4.399  52.660  1.00  0.00     0.246 HD
ENDBRANCH  21  25
ENDBRANCH   1  21
TORSDOF 5
ENDMDL
MODEL 5
REMARK VINA RESULT:      -7.3      3.546      5.090
REMARK  5 active torsions:
REMARK  status: ('A' for Active; 'I' for Inactive)
REMARK    1  A    between atoms: N1_1  and  N2_2 
REMARK    2  A    between atoms: N2_2  and  O1_3 
REMARK    3  A    between atoms: N2_2  and  C1_4 
REMARK    4  A    between atoms: C6_11  and  N5_12 
REMARK    5  A    between atoms: N5_12  and  C7_13 
ROOT
HETATM    1  C1  UNL     1      20.396  -0.590  53.305  1.00  0.00     0.076 A 
HETATM    2  C2  UNL     1      20.874  -1.299  54.399  1.00  0.00     0.036 A 
HETATM    3  C3  UNL     1      22.251  -1.256  54.651  1.00  0.00     0.035 A 
HETATM    4  C4  UNL     1      23.125  -0.537  53.856  1.00  0.00     0.072 A 
HETATM    5  N3  UNL     1      24.446  -0.493  54.099  1.00  0.00    -0.241 NA
HETATM    6  C5  UNL     1      25.264   0.207  53.319  1.00  0.00     0.236 A 
HETATM    7  N4  UNL     1      24.755   0.889  52.257  1.00  0.00    -0.224 NA
HETATM    8  C6  UNL     1      23.415   0.851  52.000  1.00  0.00     0.142 A 
HETATM    9  C13 UNL     1      22.544   0.139  52.786  1.00  0.00     0.041 A 
HETATM   10  C14 UNL     1      21.202   0.143  52.474  1.00  0.00     0.051 A 
ENDROOT
BRANCH   8  11
HETATM   11  N5  UNL     1      22.956   1.530  50.821  1.00  0.00    -0.340 N 
HETATM   12  H7  UNL     1      22.475   1.309  49.930  1.00  0.00     0.167 HD
BRANCH  11  13
HETATM   13  C7  UNL     1      23.304   2.915  51.024  1.00  0.00     0.035 A 
HETATM   14  C8  UNL     1      22.652   3.669  52.002  1.00  0.00     0.032 A 
HETATM   15  C9  UNL     1      22.957   5.005  52.237  1.00  0.00     0.046 A 
HETATM   16  C10 UNL     1      23.931   5.644  51.498  1.00  0.00     0.138 A 
HETATM   17  F1  UNL     1      24.280   6.937  51.680  1.00  0.00    -0.204 F 
HETATM   18  C11 UNL     1      24.638   4.970  50.494  1.00  0.00     0.074 A 
HETATM   19 CL1  UNL     1      25.885   5.653  49.507  1.00  0.00    -0.081 Cl
HETATM   20  C12 UNL     1      24.256   3.658  50.348  1.00  0.00     0.056 A 
ENDBRANCH  11  13
ENDBRANCH   8  11
BRANCH   1  21
HETATM   21  N2  UNL     1      18.979  -0.711  53.174  1.00  0.00    -0.189 N 
BRANCH  21  22
HETATM   22  N1  UNL     1      18.558  -0.276  51.908  1.00  0.00    -0.222 NA
HETATM   23  H1  UNL     1      17.858   0.465  51.913  1.00  0.00     0.145 HD
HETATM   24  H2  UNL     1      19.449  -0.019  51.413  1.00  0.00     0.145 HD
ENDBRANCH  21  22
BRANCH  21  25
HETATM   25  O1  UNL     1      18.062  -1.163  54.085  1.00  0.00    -0.272 OA
HETATM   26  H3  UNL     1      18.456  -1.016  54.974  1.00  0.00     0.246 HD
ENDBRANCH  21  25
ENDBRANCH   1  21
TORSDOF 5
ENDMDL
MODEL 6
REMARK VINA RESULT:      -7.3      3.475      5.082
REMARK  5 active torsions:
REMARK  status: ('A' for Active; 'I' for Inactive)
REMARK    1  A    between atoms: N1_1  and  N2_2 
REMARK    2  A    between atoms: N2_2  and  O1_3 
REMARK    3  A    between atoms: N2_2  and  C1_4 
REMARK    4  A    between atoms: C6_11  and  N5_12 
REMARK    5  A    between atoms: N5_12  and  C7_13 
ROOT
HETATM    1  C1  UNL     1      22.628  -0.538  54.280  1.00  0.00     0.076 A 
HETATM    2  C2  UNL     1      23.572  -1.088  55.138  1.00  0.00     0.036 A 
HETATM    3  C3  UNL     1      24.923  -0.841  54.864  1.00  0.00     0.035 A 
HETATM    4  C4  UNL     1      25.330  -0.079  53.785  1.00  0.00     0.072 A 
HETATM    5  N3  UNL     1      26.627   0.160  53.522  1.00  0.00    -0.241 NA
HETATM    6  C5  UNL     1      26.990   0.899  52.477  1.00  0.00     0.236 A 
HETATM    7  N4  UNL     1      26.034   1.420  51.661  1.00  0.00    -0.224 NA
HETATM    8  C6  UNL     1      24.715   1.183  51.917  1.00  0.00     0.142 A 
HETATM    9  C13 UNL     1      24.306   0.426  52.987  1.00  0.00     0.041 A 
HETATM   10  C14 UNL     1      22.958   0.227  53.191  1.00  0.00     0.051 A 
ENDROOT
BRANCH   8  11
HETATM   11  N5  UNL     1      23.763   1.698  50.973  1.00  0.00    -0.340 N 
HETATM   12  H7  UNL     1      23.061   1.342  50.299  1.00  0.00     0.167 HD
BRANCH  11  13
HETATM   13  C7  UNL     1      23.887   3.133  51.057  1.00  0.00     0.035 A 
HETATM   14  C8  UNL     1      23.354   3.823  52.148  1.00  0.00     0.032 A 
HETATM   15  C9  UNL     1      23.453   5.203  52.275  1.00  0.00     0.046 A 
HETATM   16  C10 UNL     1      24.092   5.953  51.310  1.00  0.00     0.138 A 
HETATM   17  F1  UNL     1      24.230   7.297  51.375  1.00  0.00    -0.204 F 
HETATM   18  C11 UNL     1      24.657   5.350  50.179  1.00  0.00     0.074 A 
HETATM   19 CL1  UNL     1      25.492   6.174  48.906  1.00  0.00    -0.081 Cl
HETATM   20  C12 UNL     1      24.500   3.985  50.157  1.00  0.00     0.056 A 
ENDBRANCH  11  13
ENDBRANCH   8  11
BRANCH   1  21
HETATM   21  N2  UNL     1      21.296  -0.857  54.683  1.00  0.00    -0.189 N 
BRANCH  21  22
HETATM   22  N1  UNL     1      20.559   0.311  54.928  1.00  0.00    -0.222 NA
HETATM   23  H1  UNL     1      20.422   0.541  55.912  1.00  0.00     0.145 HD
HETATM   24  H2  UNL     1      21.061   1.055  54.382  1.00  0.00     0.145 HD
ENDBRANCH  21  22
BRANCH  21  25
HETATM   25  O1  UNL     1      20.714  -2.085  54.851  1.00  0.00    -0.272 OA
HETATM   26  H3  UNL     1      21.221  -2.540  55.560  1.00  0.00     0.246 HD
ENDBRANCH  21  25
ENDBRANCH   1  21
TORSDOF 5
ENDMDL
MODEL 7
REMARK VINA RESULT:      -7.2      4.554      6.157
REMARK  5 active torsions:
REMARK  status: ('A' for Active; 'I' for Inactive)
REMARK    1  A    between atoms: N1_1  and  N2_2 
REMARK    2  A    between atoms: N2_2  and  O1_3 
REMARK    3  A    between atoms: N2_2  and  C1_4 
REMARK    4  A    between atoms: C6_11  and  N5_12 
REMARK    5  A    between atoms: N5_12  and  C7_13 
ROOT
HETATM    1  C1  UNL     1      23.703  -0.729  54.317  1.00  0.00     0.076 A 
HETATM    2  C2  UNL     1      22.708  -1.319  55.085  1.00  0.00     0.036 A 
HETATM    3  C3  UNL     1      21.385  -1.194  54.643  1.00  0.00     0.035 A 
HETATM    4  C4  UNL     1      21.054  -0.514  53.486  1.00  0.00     0.072 A 
HETATM    5  N3  UNL     1      19.784  -0.395  53.060  1.00  0.00    -0.241 NA
HETATM    6  C5  UNL     1      19.495   0.264  51.941  1.00  0.00     0.236 A 
HETATM    7  N4  UNL     1      20.500   0.828  51.217  1.00  0.00    -0.224 NA
HETATM    8  C6  UNL     1      21.793   0.715  51.640  1.00  0.00     0.142 A 
HETATM    9  C13 UNL     1      22.125   0.041  52.789  1.00  0.00     0.041 A 
HETATM   10  C14 UNL     1      23.450  -0.039  53.160  1.00  0.00     0.051 A 
ENDROOT
BRANCH   8  11
HETATM   11  N5  UNL     1      22.794   1.398  50.871  1.00  0.00    -0.340 N 
HETATM   12  H7  UNL     1      23.629   1.173  50.301  1.00  0.00     0.167 HD
BRANCH  11  13
HETATM   13  C7  UNL     1      22.460   2.798  50.976  1.00  0.00     0.035 A 
HETATM   14  C8  UNL     1      22.671   3.485  52.173  1.00  0.00     0.032 A 
HETATM   15  C9  UNL     1      22.370   4.834  52.320  1.00  0.00     0.046 A 
HETATM   16  C10 UNL     1      21.841   5.554  51.269  1.00  0.00     0.138 A 
HETATM   17  F1  UNL     1      21.532   6.868  51.342  1.00  0.00    -0.204 F 
HETATM   18  C11 UNL     1      21.593   4.951  50.030  1.00  0.00     0.074 A 
HETATM   19 CL1  UNL     1      20.945   5.743  48.634  1.00  0.00    -0.081 Cl
HETATM   20  C12 UNL     1      21.927   3.618  49.998  1.00  0.00     0.056 A 
ENDBRANCH  11  13
ENDBRANCH   8  11
BRANCH   1  21
HETATM   21  N2  UNL     1      25.000  -0.945  54.874  1.00  0.00    -0.189 N 
BRANCH  21  22
HETATM   22  N1  UNL     1      24.902  -1.408  56.195  1.00  0.00    -0.222 NA
HETATM   23  H1  UNL     1      25.375  -2.291  56.383  1.00  0.00     0.145 HD
HETATM   24  H2  UNL     1      25.249  -0.605  56.778  1.00  0.00     0.145 HD
ENDBRANCH  21  22
BRANCH  21  25
HETATM   25  O1  UNL     1      26.230  -0.753  54.303  1.00  0.00    -0.272 OA
HETATM   26  H3  UNL     1      26.764  -1.550  54.518  1.00  0.00     0.246 HD
ENDBRANCH  21  25
ENDBRANCH   1  21
TORSDOF 5
ENDMDL
MODEL 8
REMARK VINA RESULT:      -7.2      2.811      4.451
REMARK  5 active torsions:
REMARK  status: ('A' for Active; 'I' for Inactive)
REMARK    1  A    between atoms: N1_1  and  N2_2 
REMARK    2  A    between atoms: N2_2  and  O1_3 
REMARK    3  A    between atoms: N2_2  and  C1_4 
REMARK    4  A    between atoms: C6_11  and  N5_12 
REMARK    5  A    between atoms: N5_12  and  C7_13 
ROOT
HETATM    1  C1  UNL     1      24.996   4.072  49.801  1.00  0.00     0.076 A 
HETATM    2  C2  UNL     1      23.918   3.570  49.084  1.00  0.00     0.036 A 
HETATM    3  C3  UNL     1      23.154   2.560  49.682  1.00  0.00     0.035 A 
HETATM    4  C4  UNL     1      23.439   2.065  50.941  1.00  0.00     0.072 A 
HETATM    5  N3  UNL     1      22.704   1.097  51.516  1.00  0.00    -0.241 NA
HETATM    6  C5  UNL     1      23.001   0.640  52.729  1.00  0.00     0.236 A 
HETATM    7  N4  UNL     1      24.066   1.159  53.398  1.00  0.00    -0.224 NA
HETATM    8  C6  UNL     1      24.820   2.141  52.824  1.00  0.00     0.142 A 
HETATM    9  C13 UNL     1      24.540   2.636  51.574  1.00  0.00     0.041 A 
HETATM   10  C14 UNL     1      25.339   3.629  51.052  1.00  0.00     0.051 A 
ENDROOT
BRANCH   8  11
HETATM   11  N5  UNL     1      25.973   2.590  53.552  1.00  0.00    -0.340 N 
HETATM   12  H7  UNL     1      26.287   3.424  54.081  1.00  0.00     0.167 HD
BRANCH  11  13
HETATM   13  C7  UNL     1      26.915   1.499  53.476  1.00  0.00     0.035 A 
HETATM   14  C8  UNL     1      28.236   1.679  53.891  1.00  0.00     0.032 A 
HETATM   15  C9  UNL     1      29.176   0.656  53.842  1.00  0.00     0.046 A 
HETATM   16  C10 UNL     1      28.831  -0.594  53.372  1.00  0.00     0.138 A 
HETATM   17  F1  UNL     1      29.693  -1.633  53.304  1.00  0.00    -0.204 F 
HETATM   18  C11 UNL     1      27.530  -0.869  52.932  1.00  0.00     0.074 A 
HETATM   19 CL1  UNL     1      26.968  -2.393  52.332  1.00  0.00    -0.081 Cl
HETATM   20  C12 UNL     1      26.686   0.211  53.025  1.00  0.00     0.056 A 
ENDBRANCH  11  13
ENDBRANCH   8  11
BRANCH   1  21
HETATM   21  N2  UNL     1      25.677   5.101  49.081  1.00  0.00    -0.189 N 
BRANCH  21  22
HETATM   22  N1  UNL     1      27.067   4.956  49.204  1.00  0.00    -0.222 NA
HETATM   23  H1  UNL     1      27.615   5.338  48.434  1.00  0.00     0.145 HD
HETATM   24  H2  UNL     1      27.290   5.381  50.139  1.00  0.00     0.145 HD
ENDBRANCH  21  22
BRANCH  21  25
HETATM   25  O1  UNL     1      25.156   6.134  48.350  1.00  0.00    -0.272 OA
HETATM   26  H3  UNL     1      24.200   5.936  48.228  1.00  0.00     0.246 HD
ENDBRANCH  21  25
ENDBRANCH   1  21
TORSDOF 5
ENDMDL
MODEL 9
REMARK VINA RESULT:      -7.2      4.251      6.631
REMARK  5 active torsions:
REMARK  status: ('A' for Active; 'I' for Inactive)
REMARK    1  A    between atoms: N1_1  and  N2_2 
REMARK    2  A    between atoms: N2_2  and  O1_3 
REMARK    3  A    between atoms: N2_2  and  C1_4 
REMARK    4  A    between atoms: C6_11  and  N5_12 
REMARK    5  A    between atoms: N5_12  and  C7_13 
ROOT
HETATM    1  C1  UNL     1      27.430   1.248  53.329  1.00  0.00     0.076 A 
HETATM    2  C2  UNL     1      27.428  -0.124  53.545  1.00  0.00     0.036 A 
HETATM    3  C3  UNL     1      26.187  -0.773  53.591  1.00  0.00     0.035 A 
HETATM    4  C4  UNL     1      24.994  -0.096  53.427  1.00  0.00     0.072 A 
HETATM    5  N3  UNL     1      23.803  -0.719  53.469  1.00  0.00    -0.241 NA
HETATM    6  C5  UNL     1      22.669  -0.043  53.307  1.00  0.00     0.236 A 
HETATM    7  N4  UNL     1      22.715   1.301  53.096  1.00  0.00    -0.224 NA
HETATM    8  C6  UNL     1      23.918   1.944  53.053  1.00  0.00     0.142 A 
HETATM    9  C13 UNL     1      25.106   1.276  53.216  1.00  0.00     0.041 A 
HETATM   10  C14 UNL     1      26.287   1.984  53.159  1.00  0.00     0.051 A 
ENDROOT
BRANCH   8  11
HETATM   11  N5  UNL     1      23.891   3.372  52.905  1.00  0.00    -0.340 N 
HETATM   12  H7  UNL     1      24.293   4.212  53.359  1.00  0.00     0.167 HD
BRANCH  11  13
HETATM   13  C7  UNL     1      23.035   3.617  51.768  1.00  0.00     0.035 A 
HETATM   14  C8  UNL     1      21.973   4.517  51.868  1.00  0.00     0.032 A 
HETATM   15  C9  UNL     1      21.126   4.788  50.800  1.00  0.00     0.046 A 
HETATM   16  C10 UNL     1      21.309   4.165  49.582  1.00  0.00     0.138 A 
HETATM   17  F1  UNL     1      20.527   4.389  48.502  1.00  0.00    -0.204 F 
HETATM   18  C11 UNL     1      22.347   3.246  49.387  1.00  0.00     0.074 A 
HETATM   19 CL1  UNL     1      22.690   2.408  47.911  1.00  0.00    -0.081 Cl
HETATM   20  C12 UNL     1      23.120   3.055  50.507  1.00  0.00     0.056 A 
ENDBRANCH  11  13
ENDBRANCH   8  11
BRANCH   1  21
HETATM   21  N2  UNL     1      28.757   1.776  53.293  1.00  0.00    -0.189 N 
BRANCH  21  22
HETATM   22  N1  UNL     1      29.693   0.788  53.630  1.00  0.00    -0.222 NA
HETATM   23  H1  UNL     1      30.158   0.916  54.529  1.00  0.00     0.145 HD
HETATM   24  H2  UNL     1      29.159  -0.114  53.551  1.00  0.00     0.145 HD
ENDBRANCH  21  22
BRANCH  21  25
HETATM   25  O1  UNL     1      29.175   3.046  52.995  1.00  0.00    -0.272 OA
HETATM   26  H3  UNL     1      28.922   3.609  53.761  1.00  0.00     0.246 HD
ENDBRANCH  21  25
ENDBRANCH   1  21
TORSDOF 5
ENDMDL
