MODEL 1
REMARK VINA RESULT:      -7.9      0.000      0.000
REMARK  6 active torsions:
REMARK  status: ('A' for Active; 'I' for Inactive)
REMARK    1  A    between atoms: N1_1  and  C1_2 
REMARK    2  A    between atoms: C8_11  and  S1_12 
REMARK    3  A    between atoms: S1_12  and  C9_13 
REMARK    4  A    between atoms: C9_13  and  C10_14 
REMARK    5  A    between atoms: S2_18  and  N4_19 
REMARK       I    between atoms: N4_19  and  C14_20 
REMARK    6  A    between atoms: C14_20  and  C15_22 
ROOT
HETATM    1  C10 UNL     1      22.463   3.585  52.047  1.00  0.00    -0.060 C 
HETATM    2  C11 UNL     1      21.542   2.769  51.506  1.00  0.00     0.006 C 
HETATM    3  C12 UNL     1      21.695   1.298  51.457  1.00  0.00     0.021 C 
HETATM    4  C13 UNL     1      22.166   0.740  52.562  1.00  0.00     0.028 C 
HETATM    5  S2  UNL     1      23.585   1.375  52.987  1.00  0.00    -0.085 SA
HETATM    6  C20 UNL     1      23.748   3.155  52.660  1.00  0.00     0.125 C 
ENDROOT
BRANCH   1   7
HETATM    7  C9  UNL     1      22.244   5.058  52.063  1.00  0.00     0.115 C 
BRANCH   7   8
HETATM    8  S1  UNL     1      23.757   5.934  51.577  1.00  0.00    -0.109 SA
BRANCH   8   9
HETATM    9  C8  UNL     1      23.575   6.685  49.973  1.00  0.00     0.090 A 
HETATM   10  C5  UNL     1      24.312   5.915  48.926  1.00  0.00     0.097 A 
HETATM   11  C1  UNL     1      25.777   5.958  49.297  1.00  0.00     0.266 A 
HETATM   12  C4  UNL     1      23.757   4.556  48.871  1.00  0.00     0.112 A 
HETATM   13  C6  UNL     1      24.032   6.695  47.696  1.00  0.00     0.017 A 
HETATM   14  C2  UNL     1      26.351   4.607  49.529  1.00  0.00     0.029 A 
HETATM   15  C3  UNL     1      25.773   3.429  49.456  1.00  0.00     0.114 A 
HETATM   16  N2  UNL     1      24.405   3.480  49.105  1.00  0.00    -0.276 NA
HETATM   17  C7  UNL     1      23.261   7.728  48.031  1.00  0.00     0.115 A 
HETATM   18  N3  UNL     1      22.994   7.697  49.442  1.00  0.00    -0.257 NA
BRANCH  11  19
HETATM   19  N1  UNL     1      26.024   6.817  50.427  1.00  0.00     0.088 N 
HETATM   20  H1  UNL     1      25.168   6.923  51.012  1.00  0.00     0.313 HD
HETATM   21  H2  UNL     1      26.829   6.483  51.011  1.00  0.00     0.313 HD
ENDBRANCH  11  19
ENDBRANCH   8   9
ENDBRANCH   7   8
ENDBRANCH   1   7
BRANCH   5  22
HETATM   22  N4  UNL     1      25.005   0.301  52.853  1.00  0.00    -0.301 N 
HETATM   23  C14 UNL     1      26.201   0.500  53.594  1.00  0.00     0.261 C 
HETATM   24  O1  UNL     1      26.272   1.472  54.381  1.00  0.00    -0.267 OA
HETATM   25  H13 UNL     1      24.972  -0.517  52.201  1.00  0.00     0.176 HD
BRANCH  23  26
HETATM   26  C15 UNL     1      27.372  -0.362  53.500  1.00  0.00     0.035 A 
HETATM   27  C16 UNL     1      27.226  -1.599  52.937  1.00  0.00     0.036 A 
HETATM   28  C17 UNL     1      28.347  -2.428  52.845  1.00  0.00     0.117 A 
HETATM   29  N5  UNL     1      29.562  -2.039  53.298  1.00  0.00    -0.273 NA
HETATM   30  C18 UNL     1      29.733  -0.823  53.859  1.00  0.00     0.117 A 
HETATM   31  C19 UNL     1      28.630  -0.013  53.947  1.00  0.00     0.036 A 
ENDBRANCH  23  26
ENDBRANCH   5  22
TORSDOF 6
ENDMDL
MODEL 2
REMARK VINA RESULT:      -7.7      2.573      4.979
REMARK  6 active torsions:
REMARK  status: ('A' for Active; 'I' for Inactive)
REMARK    1  A    between atoms: N1_1  and  C1_2 
REMARK    2  A    between atoms: C8_11  and  S1_12 
REMARK    3  A    between atoms: S1_12  and  C9_13 
REMARK    4  A    between atoms: C9_13  and  C10_14 
REMARK    5  A    between atoms: S2_18  and  N4_19 
REMARK       I    between atoms: N4_19  and  C14_20 
REMARK    6  A    between atoms: C14_20  and  C15_22 
ROOT
HETATM    1  C10 UNL     1      23.846   5.130  48.891  1.00  0.00    -0.060 C 
HETATM    2  C11 UNL     1      24.639   6.152  48.526  1.00  0.00     0.006 C 
HETATM    3  C12 UNL     1      26.069   6.237  48.898  1.00  0.00     0.021 C 
HETATM    4  C13 UNL     1      26.751   5.106  48.791  1.00  0.00     0.028 C 
HETATM    5  S2  UNL     1      26.079   3.927  49.661  1.00  0.00    -0.085 SA
HETATM    6  C20 UNL     1      24.262   3.958  49.706  1.00  0.00     0.125 C 
ENDROOT
BRANCH   1   7
HETATM    7  C9  UNL     1      22.414   5.108  48.480  1.00  0.00     0.115 C 
BRANCH   7   8
HETATM    8  S1  UNL     1      21.660   3.508  48.885  1.00  0.00    -0.109 SA
BRANCH   8   9
HETATM    9  C8  UNL     1      20.159   3.726  49.818  1.00  0.00     0.090 A 
HETATM   10  C5  UNL     1      20.092   2.774  50.967  1.00  0.00     0.097 A 
HETATM   11  C1  UNL     1      20.080   1.379  50.385  1.00  0.00     0.266 A 
HETATM   12  C4  UNL     1      21.234   3.033  51.854  1.00  0.00     0.112 A 
HETATM   13  C6  UNL     1      18.793   3.119  51.596  1.00  0.00     0.017 A 
HETATM   14  C2  UNL     1      21.234   0.558  50.834  1.00  0.00     0.029 A 
HETATM   15  C3  UNL     1      22.223   0.876  51.639  1.00  0.00     0.114 A 
HETATM   16  N2  UNL     1      22.157   2.197  52.138  1.00  0.00    -0.276 NA
HETATM   17  C7  UNL     1      18.246   4.108  50.891  1.00  0.00     0.115 A 
HETATM   18  N3  UNL     1      19.110   4.462  49.799  1.00  0.00    -0.257 NA
BRANCH  11  19
HETATM   19  N1  UNL     1      19.996   1.394  48.946  1.00  0.00     0.088 N 
HETATM   20  H1  UNL     1      19.013   1.266  48.625  1.00  0.00     0.313 HD
HETATM   21  H2  UNL     1      20.406   2.268  48.534  1.00  0.00     0.313 HD
ENDBRANCH  11  19
ENDBRANCH   8   9
ENDBRANCH   7   8
ENDBRANCH   1   7
BRANCH   5  22
HETATM   22  N4  UNL     1      27.005   3.362  51.079  1.00  0.00    -0.301 N 
HETATM   23  C14 UNL     1      26.672   2.187  51.805  1.00  0.00     0.261 C 
HETATM   24  O1  UNL     1      25.684   1.509  51.441  1.00  0.00    -0.267 OA
HETATM   25  H13 UNL     1      27.835   3.911  51.404  1.00  0.00     0.176 HD
BRANCH  23  26
HETATM   26  C15 UNL     1      27.413   1.707  52.964  1.00  0.00     0.035 A 
HETATM   27  C16 UNL     1      26.942   0.609  53.629  1.00  0.00     0.036 A 
HETATM   28  C17 UNL     1      27.650   0.146  54.740  1.00  0.00     0.117 A 
HETATM   29  N5  UNL     1      28.781   0.754  55.171  1.00  0.00    -0.273 NA
HETATM   30  C18 UNL     1      29.268   1.840  54.532  1.00  0.00     0.117 A 
HETATM   31  C19 UNL     1      28.569   2.290  53.442  1.00  0.00     0.036 A 
ENDBRANCH  23  26
ENDBRANCH   5  22
TORSDOF 6
ENDMDL
MODEL 3
REMARK VINA RESULT:      -7.7      1.251      2.575
REMARK  6 active torsions:
REMARK  status: ('A' for Active; 'I' for Inactive)
REMARK    1  A    between atoms: N1_1  and  C1_2 
REMARK    2  A    between atoms: C8_11  and  S1_12 
REMARK    3  A    between atoms: S1_12  and  C9_13 
REMARK    4  A    between atoms: C9_13  and  C10_14 
REMARK    5  A    between atoms: S2_18  and  N4_19 
REMARK       I    between atoms: N4_19  and  C14_20 
REMARK    6  A    between atoms: C14_20  and  C15_22 
ROOT
HETATM    1  C10 UNL     1      21.891   2.654  51.684  1.00  0.00    -0.060 C 
HETATM    2  C11 UNL     1      21.233   1.688  51.018  1.00  0.00     0.006 C 
HETATM    3  C12 UNL     1      21.550   0.250  51.161  1.00  0.00     0.021 C 
HETATM    4  C13 UNL     1      21.776  -0.160  52.401  1.00  0.00     0.028 C 
HETATM    5  S2  UNL     1      22.961   0.683  53.096  1.00  0.00    -0.085 SA
HETATM    6  C20 UNL     1      23.012   2.440  52.637  1.00  0.00     0.125 C 
ENDROOT
BRANCH   1   7
HETATM    7  C9  UNL     1      21.519   4.084  51.493  1.00  0.00     0.115 C 
BRANCH   7   8
HETATM    8  S1  UNL     1      22.100   4.684  49.882  1.00  0.00    -0.109 SA
BRANCH   8   9
HETATM    9  C8  UNL     1      23.839   4.366  49.670  1.00  0.00     0.090 A 
HETATM   10  C5  UNL     1      24.620   5.638  49.610  1.00  0.00     0.097 A 
HETATM   11  C1  UNL     1      24.134   6.398  48.396  1.00  0.00     0.266 A 
HETATM   12  C4  UNL     1      24.429   6.361  50.874  1.00  0.00     0.112 A 
HETATM   13  C6  UNL     1      26.011   5.154  49.435  1.00  0.00     0.017 A 
HETATM   14  C2  UNL     1      23.560   7.725  48.740  1.00  0.00     0.029 A 
HETATM   15  C3  UNL     1      23.427   8.300  49.915  1.00  0.00     0.114 A 
HETATM   16  N2  UNL     1      23.907   7.522  50.993  1.00  0.00    -0.276 NA
HETATM   17  C7  UNL     1      25.982   3.823  49.406  1.00  0.00     0.115 A 
HETATM   18  N3  UNL     1      24.629   3.363  49.553  1.00  0.00    -0.257 NA
BRANCH  11  19
HETATM   19  N1  UNL     1      23.200   5.627  47.615  1.00  0.00     0.088 N 
HETATM   20  H1  UNL     1      22.319   6.160  47.450  1.00  0.00     0.313 HD
HETATM   21  H2  UNL     1      23.612   5.308  46.705  1.00  0.00     0.313 HD
ENDBRANCH  11  19
ENDBRANCH   8   9
ENDBRANCH   7   8
ENDBRANCH   1   7
BRANCH   5  22
HETATM   22  N4  UNL     1      24.474  -0.205  53.430  1.00  0.00    -0.301 N 
HETATM   23  C14 UNL     1      25.672   0.001  52.695  1.00  0.00     0.261 C 
HETATM   24  O1  UNL     1      25.677   0.844  51.768  1.00  0.00    -0.267 OA
HETATM   25  H13 UNL     1      24.496  -0.915  54.199  1.00  0.00     0.176 HD
BRANCH  23  26
HETATM   26  C15 UNL     1      26.918  -0.711  52.949  1.00  0.00     0.035 A 
HETATM   27  C16 UNL     1      26.987  -2.037  52.627  1.00  0.00     0.036 A 
HETATM   28  C17 UNL     1      28.180  -2.722  52.868  1.00  0.00     0.117 A 
HETATM   29  N5  UNL     1      29.259  -2.110  53.410  1.00  0.00    -0.273 NA
HETATM   30  C18 UNL     1      29.218  -0.800  53.737  1.00  0.00     0.117 A 
HETATM   31  C19 UNL     1      28.044  -0.132  53.498  1.00  0.00     0.036 A 
ENDBRANCH  23  26
ENDBRANCH   5  22
TORSDOF 6
ENDMDL
MODEL 4
REMARK VINA RESULT:      -7.7      3.863      8.029
REMARK  6 active torsions:
REMARK  status: ('A' for Active; 'I' for Inactive)
REMARK    1  A    between atoms: N1_1  and  C1_2 
REMARK    2  A    between atoms: C8_11  and  S1_12 
REMARK    3  A    between atoms: S1_12  and  C9_13 
REMARK    4  A    between atoms: C9_13  and  C10_14 
REMARK    5  A    between atoms: S2_18  and  N4_19 
REMARK       I    between atoms: N4_19  and  C14_20 
REMARK    6  A    between atoms: C14_20  and  C15_22 
ROOT
HETATM    1  C10 UNL     1      25.417   3.860  50.244  1.00  0.00    -0.060 C 
HETATM    2  C11 UNL     1      24.606   4.910  50.458  1.00  0.00     0.006 C 
HETATM    3  C12 UNL     1      24.986   6.303  50.133  1.00  0.00     0.021 C 
HETATM    4  C13 UNL     1      25.600   6.466  48.970  1.00  0.00     0.028 C 
HETATM    5  S2  UNL     1      26.923   5.551  48.867  1.00  0.00    -0.085 SA
HETATM    6  C20 UNL     1      26.786   3.925  49.666  1.00  0.00     0.125 C 
ENDROOT
BRANCH   1   7
HETATM    7  C9  UNL     1      24.970   2.483  50.595  1.00  0.00     0.115 C 
BRANCH   7   8
HETATM    8  S1  UNL     1      26.009   1.792  51.912  1.00  0.00    -0.109 SA
BRANCH   8   9
HETATM    9  C8  UNL     1      25.081   0.672  52.939  1.00  0.00     0.090 A 
HETATM   10  C5  UNL     1      25.969  -0.040  53.906  1.00  0.00     0.097 A 
HETATM   11  C1  UNL     1      26.945  -0.857  53.090  1.00  0.00     0.266 A 
HETATM   12  C4  UNL     1      26.613   0.959  54.769  1.00  0.00     0.112 A 
HETATM   13  C6  UNL     1      25.015  -0.901  54.646  1.00  0.00     0.017 A 
HETATM   14  C2  UNL     1      28.360  -0.473  53.334  1.00  0.00     0.029 A 
HETATM   15  C3  UNL     1      28.852   0.446  54.135  1.00  0.00     0.114 A 
HETATM   16  N2  UNL     1      27.871   1.161  54.859  1.00  0.00    -0.276 NA
HETATM   17  C7  UNL     1      23.797  -0.684  54.151  1.00  0.00     0.115 A 
HETATM   18  N3  UNL     1      23.868   0.291  53.098  1.00  0.00    -0.257 NA
BRANCH  11  19
HETATM   19  N1  UNL     1      26.642  -0.813  51.682  1.00  0.00     0.088 N 
HETATM   20  H1  UNL     1      25.722  -1.259  51.481  1.00  0.00     0.313 HD
HETATM   21  H2  UNL     1      26.668   0.164  51.300  1.00  0.00     0.313 HD
ENDBRANCH  11  19
ENDBRANCH   8   9
ENDBRANCH   7   8
ENDBRANCH   1   7
BRANCH   5  22
HETATM   22  N4  UNL     1      28.485   6.417  48.851  1.00  0.00    -0.301 N 
HETATM   23  C14 UNL     1      29.687   5.841  48.357  1.00  0.00     0.261 C 
HETATM   24  O1  UNL     1      29.659   4.671  47.911  1.00  0.00    -0.267 OA
HETATM   25  H13 UNL     1      28.535   7.396  49.219  1.00  0.00     0.176 HD
BRANCH  23  26
HETATM   26  C15 UNL     1      30.971   6.527  48.333  1.00  0.00     0.035 A 
HETATM   27  C16 UNL     1      32.074   5.861  48.790  1.00  0.00     0.036 A 
HETATM   28  C17 UNL     1      33.307   6.517  48.768  1.00  0.00     0.117 A 
HETATM   29  N5  UNL     1      33.435   7.785  48.310  1.00  0.00    -0.273 NA
HETATM   30  C18 UNL     1      32.361   8.465  47.853  1.00  0.00     0.117 A 
HETATM   31  C19 UNL     1      31.153   7.817  47.877  1.00  0.00     0.036 A 
ENDBRANCH  23  26
ENDBRANCH   5  22
TORSDOF 6
ENDMDL
MODEL 5
REMARK VINA RESULT:      -7.6      3.884      5.039
REMARK  6 active torsions:
REMARK  status: ('A' for Active; 'I' for Inactive)
REMARK    1  A    between atoms: N1_1  and  C1_2 
REMARK    2  A    between atoms: C8_11  and  S1_12 
REMARK    3  A    between atoms: S1_12  and  C9_13 
REMARK    4  A    between atoms: C9_13  and  C10_14 
REMARK    5  A    between atoms: S2_18  and  N4_19 
REMARK       I    between atoms: N4_19  and  C14_20 
REMARK    6  A    between atoms: C14_20  and  C15_22 
ROOT
HETATM    1  C10 UNL     1      26.012   5.307  48.968  1.00  0.00    -0.060 C 
HETATM    2  C11 UNL     1      24.685   5.102  48.905  1.00  0.00     0.006 C 
HETATM    3  C12 UNL     1      24.016   3.946  49.544  1.00  0.00     0.021 C 
HETATM    4  C13 UNL     1      24.438   3.650  50.764  1.00  0.00     0.028 C 
HETATM    5  S2  UNL     1      26.027   3.383  50.791  1.00  0.00    -0.085 SA
HETATM    6  C20 UNL     1      26.993   4.432  49.664  1.00  0.00     0.125 C 
ENDROOT
BRANCH   1   7
HETATM    7  C9  UNL     1      26.621   6.492  48.302  1.00  0.00     0.115 C 
BRANCH   7   8
HETATM    8  S1  UNL     1      28.423   6.312  48.201  1.00  0.00    -0.109 SA
BRANCH   8   9
HETATM    9  C8  UNL     1      29.128   7.530  47.112  1.00  0.00     0.090 A 
HETATM   10  C5  UNL     1      30.597   7.677  47.341  1.00  0.00     0.097 A 
HETATM   11  C1  UNL     1      30.776   8.163  48.761  1.00  0.00     0.266 A 
HETATM   12  C4  UNL     1      31.241   6.384  47.074  1.00  0.00     0.112 A 
HETATM   13  C6  UNL     1      30.975   8.717  46.352  1.00  0.00     0.017 A 
HETATM   14  C2  UNL     1      31.571   7.224  49.594  1.00  0.00     0.029 A 
HETATM   15  C3  UNL     1      32.116   6.073  49.268  1.00  0.00     0.114 A 
HETATM   16  N2  UNL     1      31.900   5.695  47.924  1.00  0.00    -0.276 NA
HETATM   17  C7  UNL     1      29.875   9.074  45.691  1.00  0.00     0.115 A 
HETATM   18  N3  UNL     1      28.750   8.326  46.181  1.00  0.00    -0.257 NA
BRANCH  11  19
HETATM   19  N1  UNL     1      29.516   8.462  49.393  1.00  0.00     0.088 N 
HETATM   20  H1  UNL     1      28.878   8.965  48.740  1.00  0.00     0.313 HD
HETATM   21  H2  UNL     1      29.050   7.603  49.774  1.00  0.00     0.313 HD
ENDBRANCH  11  19
ENDBRANCH   8   9
ENDBRANCH   7   8
ENDBRANCH   1   7
BRANCH   5  22
HETATM   22  N4  UNL     1      26.542   1.705  51.122  1.00  0.00    -0.301 N 
HETATM   23  C14 UNL     1      27.132   1.303  52.351  1.00  0.00     0.261 C 
HETATM   24  O1  UNL     1      27.302   2.159  53.250  1.00  0.00    -0.267 OA
HETATM   25  H13 UNL     1      26.411   0.971  50.387  1.00  0.00     0.176 HD
BRANCH  23  26
HETATM   26  C15 UNL     1      27.559  -0.059  52.644  1.00  0.00     0.035 A 
HETATM   27  C16 UNL     1      28.789  -0.247  53.211  1.00  0.00     0.036 A 
HETATM   28  C17 UNL     1      29.201  -1.552  53.494  1.00  0.00     0.117 A 
HETATM   29  N5  UNL     1      28.419  -2.623  53.221  1.00  0.00    -0.273 NA
HETATM   30  C18 UNL     1      27.200  -2.465  52.662  1.00  0.00     0.117 A 
HETATM   31  C19 UNL     1      26.800  -1.182  52.386  1.00  0.00     0.036 A 
ENDBRANCH  23  26
ENDBRANCH   5  22
TORSDOF 6
ENDMDL
MODEL 6
REMARK VINA RESULT:      -7.6      2.583      3.783
REMARK  6 active torsions:
REMARK  status: ('A' for Active; 'I' for Inactive)
REMARK    1  A    between atoms: N1_1  and  C1_2 
REMARK    2  A    between atoms: C8_11  and  S1_12 
REMARK    3  A    between atoms: S1_12  and  C9_13 
REMARK    4  A    between atoms: C9_13  and  C10_14 
REMARK    5  A    between atoms: S2_18  and  N4_19 
REMARK       I    between atoms: N4_19  and  C14_20 
REMARK    6  A    between atoms: C14_20  and  C15_22 
ROOT
HETATM    1  C10 UNL     1      20.797  -0.206  52.532  1.00  0.00    -0.060 C 
HETATM    2  C11 UNL     1      20.367  -1.014  53.517  1.00  0.00     0.006 C 
HETATM    3  C12 UNL     1      21.270  -1.598  54.534  1.00  0.00     0.021 C 
HETATM    4  C13 UNL     1      22.181  -0.770  55.025  1.00  0.00     0.028 C 
HETATM    5  S2  UNL     1      23.091  -0.133  53.857  1.00  0.00    -0.085 SA
HETATM    6  C20 UNL     1      22.205   0.216  52.309  1.00  0.00     0.125 C 
ENDROOT
BRANCH   1   7
HETATM    7  C9  UNL     1      19.832   0.347  51.541  1.00  0.00     0.115 C 
BRANCH   7   8
HETATM    8  S1  UNL     1      20.255   2.063  51.128  1.00  0.00    -0.109 SA
BRANCH   8   9
HETATM    9  C8  UNL     1      21.216   2.143  49.631  1.00  0.00     0.090 A 
HETATM   10  C5  UNL     1      22.099   3.348  49.618  1.00  0.00     0.097 A 
HETATM   11  C1  UNL     1      21.195   4.559  49.657  1.00  0.00     0.266 A 
HETATM   12  C4  UNL     1      23.020   3.262  50.759  1.00  0.00     0.112 A 
HETATM   13  C6  UNL     1      22.796   3.222  48.314  1.00  0.00     0.017 A 
HETATM   14  C2  UNL     1      21.429   5.413  50.850  1.00  0.00     0.029 A 
HETATM   15  C3  UNL     1      22.286   5.258  51.835  1.00  0.00     0.114 A 
HETATM   16  N2  UNL     1      23.091   4.102  51.720  1.00  0.00    -0.276 NA
HETATM   17  C7  UNL     1      22.353   2.116  47.718  1.00  0.00     0.115 A 
HETATM   18  N3  UNL     1      21.379   1.470  48.553  1.00  0.00    -0.257 NA
BRANCH  11  19
HETATM   19  N1  UNL     1      19.804   4.198  49.555  1.00  0.00     0.088 N 
HETATM   20  H1  UNL     1      19.331   4.734  48.796  1.00  0.00     0.313 HD
HETATM   21  H2  UNL     1      19.670   3.167  49.415  1.00  0.00     0.313 HD
ENDBRANCH  11  19
ENDBRANCH   8   9
ENDBRANCH   7   8
ENDBRANCH   1   7
BRANCH   5  22
HETATM   22  N4  UNL     1      24.802  -0.642  53.820  1.00  0.00    -0.301 N 
HETATM   23  C14 UNL     1      25.867   0.240  53.490  1.00  0.00     0.261 C 
HETATM   24  O1  UNL     1      25.602   1.432  53.210  1.00  0.00    -0.267 OA
HETATM   25  H13 UNL     1      25.050  -1.633  54.049  1.00  0.00     0.176 HD
BRANCH  23  26
HETATM   26  C15 UNL     1      27.269  -0.153  53.453  1.00  0.00     0.035 A 
HETATM   27  C16 UNL     1      27.576  -1.444  53.126  1.00  0.00     0.036 A 
HETATM   28  C17 UNL     1      28.920  -1.823  53.089  1.00  0.00     0.117 A 
HETATM   29  N5  UNL     1      29.917  -0.951  53.368  1.00  0.00    -0.273 NA
HETATM   30  C18 UNL     1      29.641   0.331  53.694  1.00  0.00     0.117 A 
HETATM   31  C19 UNL     1      28.320   0.698  53.729  1.00  0.00     0.036 A 
ENDBRANCH  23  26
ENDBRANCH   5  22
TORSDOF 6
ENDMDL
MODEL 7
REMARK VINA RESULT:      -7.5      3.178      7.652
REMARK  6 active torsions:
REMARK  status: ('A' for Active; 'I' for Inactive)
REMARK    1  A    between atoms: N1_1  and  C1_2 
REMARK    2  A    between atoms: C8_11  and  S1_12 
REMARK    3  A    between atoms: S1_12  and  C9_13 
REMARK    4  A    between atoms: C9_13  and  C10_14 
REMARK    5  A    between atoms: S2_18  and  N4_19 
REMARK       I    between atoms: N4_19  and  C14_20 
REMARK    6  A    between atoms: C14_20  and  C15_22 
ROOT
HETATM    1  C10 UNL     1      24.791   3.379  50.388  1.00  0.00    -0.060 C 
HETATM    2  C11 UNL     1      24.479   3.897  49.187  1.00  0.00     0.006 C 
HETATM    3  C12 UNL     1      23.085   4.075  48.723  1.00  0.00     0.021 C 
HETATM    4  C13 UNL     1      22.242   4.550  49.628  1.00  0.00     0.028 C 
HETATM    5  S2  UNL     1      22.213   3.629  50.950  1.00  0.00    -0.085 SA
HETATM    6  C20 UNL     1      23.818   2.911  51.410  1.00  0.00     0.125 C 
ENDROOT
BRANCH   1   7
HETATM    7  C9  UNL     1      26.217   3.229  50.792  1.00  0.00     0.115 C 
BRANCH   7   8
HETATM    8  S1  UNL     1      26.477   1.645  51.637  1.00  0.00    -0.109 SA
BRANCH   8   9
HETATM    9  C8  UNL     1      27.806   1.758  52.816  1.00  0.00     0.090 A 
HETATM   10  C5  UNL     1      27.735   0.655  53.821  1.00  0.00     0.097 A 
HETATM   11  C1  UNL     1      26.433   0.823  54.570  1.00  0.00     0.266 A 
HETATM   12  C4  UNL     1      27.848  -0.627  53.114  1.00  0.00     0.112 A 
HETATM   13  C6  UNL     1      28.908   0.933  54.687  1.00  0.00     0.017 A 
HETATM   14  C2  UNL     1      25.534  -0.352  54.431  1.00  0.00     0.029 A 
HETATM   15  C3  UNL     1      25.719  -1.473  53.768  1.00  0.00     0.114 A 
HETATM   16  N2  UNL     1      26.961  -1.546  53.098  1.00  0.00    -0.276 NA
HETATM   17  C7  UNL     1      29.516   2.021  54.217  1.00  0.00     0.115 A 
HETATM   18  N3  UNL     1      28.815   2.509  53.063  1.00  0.00    -0.257 NA
BRANCH  11  19
HETATM   19  N1  UNL     1      25.747   2.034  54.198  1.00  0.00     0.088 N 
HETATM   20  H1  UNL     1      24.872   1.824  53.673  1.00  0.00     0.313 HD
HETATM   21  H2  UNL     1      25.541   2.645  55.025  1.00  0.00     0.313 HD
ENDBRANCH  11  19
ENDBRANCH   8   9
ENDBRANCH   7   8
ENDBRANCH   1   7
BRANCH   5  22
HETATM   22  N4  UNL     1      20.702   2.727  51.254  1.00  0.00    -0.301 N 
HETATM   23  C14 UNL     1      20.495   1.391  50.814  1.00  0.00     0.261 C 
HETATM   24  O1  UNL     1      21.409   0.812  50.183  1.00  0.00    -0.267 OA
HETATM   25  H13 UNL     1      19.923   3.189  51.778  1.00  0.00     0.176 HD
BRANCH  23  26
HETATM   26  C15 UNL     1      19.271   0.636  51.050  1.00  0.00     0.035 A 
HETATM   27  C16 UNL     1      19.142  -0.043  52.229  1.00  0.00     0.036 A 
HETATM   28  C17 UNL     1      17.970  -0.767  52.459  1.00  0.00     0.117 A 
HETATM   29  N5  UNL     1      16.969  -0.814  51.548  1.00  0.00    -0.273 NA
HETATM   30  C18 UNL     1      17.071  -0.152  50.375  1.00  0.00     0.117 A 
HETATM   31  C19 UNL     1      18.224   0.558  50.155  1.00  0.00     0.036 A 
ENDBRANCH  23  26
ENDBRANCH   5  22
TORSDOF 6
ENDMDL
MODEL 8
REMARK VINA RESULT:      -7.5      3.429      5.173
REMARK  6 active torsions:
REMARK  status: ('A' for Active; 'I' for Inactive)
REMARK    1  A    between atoms: N1_1  and  C1_2 
REMARK    2  A    between atoms: C8_11  and  S1_12 
REMARK    3  A    between atoms: S1_12  and  C9_13 
REMARK    4  A    between atoms: C9_13  and  C10_14 
REMARK    5  A    between atoms: S2_18  and  N4_19 
REMARK       I    between atoms: N4_19  and  C14_20 
REMARK    6  A    between atoms: C14_20  and  C15_22 
ROOT
HETATM    1  C10 UNL     1      25.191   6.117  49.955  1.00  0.00    -0.060 C 
HETATM    2  C11 UNL     1      26.169   5.407  49.367  1.00  0.00     0.006 C 
HETATM    3  C12 UNL     1      26.350   3.953  49.578  1.00  0.00     0.021 C 
HETATM    4  C13 UNL     1      25.236   3.236  49.570  1.00  0.00     0.028 C 
HETATM    5  S2  UNL     1      24.181   3.772  50.666  1.00  0.00    -0.085 SA
HETATM    6  C20 UNL     1      24.166   5.575  50.887  1.00  0.00     0.125 C 
ENDROOT
BRANCH   1   7
HETATM    7  C9  UNL     1      25.066   7.579  49.698  1.00  0.00     0.115 C 
BRANCH   7   8
HETATM    8  S1  UNL     1      26.619   8.431  50.090  1.00  0.00    -0.109 SA
BRANCH   8   9
HETATM    9  C8  UNL     1      26.865   9.836  49.025  1.00  0.00     0.090 A 
HETATM   10  C5  UNL     1      27.952   9.581  48.033  1.00  0.00     0.097 A 
HETATM   11  C1  UNL     1      29.225   9.364  48.820  1.00  0.00     0.266 A 
HETATM   12  C4  UNL     1      27.567   8.431  47.205  1.00  0.00     0.112 A 
HETATM   13  C6  UNL     1      27.990  10.850  47.264  1.00  0.00     0.017 A 
HETATM   14  C2  UNL     1      29.822   8.023  48.589  1.00  0.00     0.029 A 
HETATM   15  C3  UNL     1      29.403   7.042  47.820  1.00  0.00     0.114 A 
HETATM   16  N2  UNL     1      28.208   7.329  47.122  1.00  0.00    -0.276 NA
HETATM   17  C7  UNL     1      27.062  11.662  47.767  1.00  0.00     0.115 A 
HETATM   18  N3  UNL     1      26.383  11.012  48.853  1.00  0.00    -0.257 NA
BRANCH  11  19
HETATM   19  N1  UNL     1      29.037   9.601  50.228  1.00  0.00     0.088 N 
HETATM   20  H1  UNL     1      29.887   9.337  50.771  1.00  0.00     0.313 HD
HETATM   21  H2  UNL     1      28.766  10.594  50.431  1.00  0.00     0.313 HD
ENDBRANCH  11  19
ENDBRANCH   8   9
ENDBRANCH   7   8
ENDBRANCH   1   7
BRANCH   5  22
HETATM   22  N4  UNL     1      23.863   2.691  52.052  1.00  0.00    -0.301 N 
HETATM   23  C14 UNL     1      23.084   1.507  51.949  1.00  0.00     0.261 C 
HETATM   24  O1  UNL     1      22.594   1.198  50.839  1.00  0.00    -0.267 OA
HETATM   25  H13 UNL     1      24.261   2.927  52.991  1.00  0.00     0.176 HD
BRANCH  23  26
HETATM   26  C15 UNL     1      22.811   0.611  53.065  1.00  0.00     0.035 A 
HETATM   27  C16 UNL     1      23.833  -0.159  53.547  1.00  0.00     0.036 A 
HETATM   28  C17 UNL     1      23.575  -1.018  54.618  1.00  0.00     0.117 A 
HETATM   29  N5  UNL     1      22.348  -1.106  55.183  1.00  0.00    -0.273 NA
HETATM   30  C18 UNL     1      21.321  -0.357  54.726  1.00  0.00     0.117 A 
HETATM   31  C19 UNL     1      21.580   0.485  53.676  1.00  0.00     0.036 A 
ENDBRANCH  23  26
ENDBRANCH   5  22
TORSDOF 6
ENDMDL
MODEL 9
REMARK VINA RESULT:      -7.5      3.040      4.014
REMARK  6 active torsions:
REMARK  status: ('A' for Active; 'I' for Inactive)
REMARK    1  A    between atoms: N1_1  and  C1_2 
REMARK    2  A    between atoms: C8_11  and  S1_12 
REMARK    3  A    between atoms: S1_12  and  C9_13 
REMARK    4  A    between atoms: C9_13  and  C10_14 
REMARK    5  A    between atoms: S2_18  and  N4_19 
REMARK       I    between atoms: N4_19  and  C14_20 
REMARK    6  A    between atoms: C14_20  and  C15_22 
ROOT
HETATM    1  C10 UNL     1      24.135   5.284  49.018  1.00  0.00    -0.060 C 
HETATM    2  C11 UNL     1      23.423   4.254  48.529  1.00  0.00     0.006 C 
HETATM    3  C12 UNL     1      23.300   2.954  49.226  1.00  0.00     0.021 C 
HETATM    4  C13 UNL     1      23.101   3.029  50.534  1.00  0.00     0.028 C 
HETATM    5  S2  UNL     1      24.264   3.876  51.260  1.00  0.00    -0.085 SA
HETATM    6  C20 UNL     1      24.893   5.283  50.298  1.00  0.00     0.125 C 
ENDROOT
BRANCH   1   7
HETATM    7  C9  UNL     1      24.217   6.565  48.263  1.00  0.00     0.115 C 
BRANCH   7   8
HETATM    8  S1  UNL     1      25.896   7.247  48.345  1.00  0.00    -0.109 SA
BRANCH   8   9
HETATM    9  C8  UNL     1      25.867   9.027  48.302  1.00  0.00     0.090 A 
HETATM   10  C5  UNL     1      27.246   9.590  48.193  1.00  0.00     0.097 A 
HETATM   11  C1  UNL     1      27.996   9.166  49.436  1.00  0.00     0.266 A 
HETATM   12  C4  UNL     1      27.850   9.103  46.946  1.00  0.00     0.112 A 
HETATM   13  C6  UNL     1      26.997  11.052  48.173  1.00  0.00     0.017 A 
HETATM   14  C2  UNL     1      29.192   8.339  49.132  1.00  0.00     0.029 A 
HETATM   15  C3  UNL     1      29.664   7.947  47.969  1.00  0.00     0.114 A 
HETATM   16  N2  UNL     1      28.905   8.386  46.862  1.00  0.00    -0.276 NA
HETATM   17  C7  UNL     1      25.682  11.245  48.258  1.00  0.00     0.115 A 
HETATM   18  N3  UNL     1      25.009   9.979  48.337  1.00  0.00    -0.257 NA
BRANCH  11  19
HETATM   19  N1  UNL     1      27.140   8.493  50.380  1.00  0.00     0.088 N 
HETATM   20  H1  UNL     1      27.339   7.470  50.405  1.00  0.00     0.313 HD
HETATM   21  H2  UNL     1      27.209   8.904  51.342  1.00  0.00     0.313 HD
ENDBRANCH  11  19
ENDBRANCH   8   9
ENDBRANCH   7   8
ENDBRANCH   1   7
BRANCH   5  22
HETATM   22  N4  UNL     1      25.357   2.960  52.335  1.00  0.00    -0.301 N 
HETATM   23  C14 UNL     1      26.554   2.342  51.880  1.00  0.00     0.261 C 
HETATM   24  O1  UNL     1      26.864   2.441  50.671  1.00  0.00    -0.267 OA
HETATM   25  H13 UNL     1      25.120   2.863  53.350  1.00  0.00     0.176 HD
BRANCH  23  26
HETATM   26  C15 UNL     1      27.460   1.590  52.737  1.00  0.00     0.035 A 
HETATM   27  C16 UNL     1      28.363   2.282  53.496  1.00  0.00     0.036 A 
HETATM   28  C17 UNL     1      29.232   1.564  54.320  1.00  0.00     0.117 A 
HETATM   29  N5  UNL     1      29.204   0.212  54.383  1.00  0.00    -0.273 NA
HETATM   30  C18 UNL     1      28.323  -0.496  53.644  1.00  0.00     0.117 A 
HETATM   31  C19 UNL     1      27.471   0.214  52.837  1.00  0.00     0.036 A 
ENDBRANCH  23  26
ENDBRANCH   5  22
TORSDOF 6
ENDMDL
