MODEL 1
REMARK VINA RESULT:      -8.7      0.000      0.000
REMARK  3 active torsions:
REMARK  status: ('A' for Active; 'I' for Inactive)
REMARK    1  A    between atoms: O1_2  and  C2_3 
REMARK    2  A    between atoms: C8_12  and  N3_13 
REMARK    3  A    between atoms: N3_13  and  C9_14 
ROOT
HETATM    1  C2  UNL     1      17.897   1.043  50.352  1.00  0.00     0.063 A 
HETATM    2  C3  UNL     1      17.302   0.499  51.395  1.00  0.00     0.038 A 
HETATM    3  C4  UNL     1      18.148  -0.129  52.392  1.00  0.00     0.059 A 
HETATM    4  C5  UNL     1      19.468  -0.141  52.236  1.00  0.00     0.149 A 
HETATM    5  O2  UNL     1      20.019  -0.807  53.341  1.00  0.00    -0.273 OA
HETATM    6  C6  UNL     1      21.378  -0.757  53.713  1.00  0.00     0.203 A 
HETATM    7  N1  UNL     1      21.542  -1.481  54.851  1.00  0.00    -0.215 NA
HETATM    8  C7  UNL     1      22.792  -1.561  55.382  1.00  0.00     0.238 A 
HETATM    9  N2  UNL     1      23.796  -0.931  54.766  1.00  0.00    -0.222 NA
HETATM   10  C8  UNL     1      23.725  -0.206  53.656  1.00  0.00     0.160 A 
HETATM   11  C15 UNL     1      22.464  -0.117  53.110  1.00  0.00     0.130 A 
HETATM   12  N4  UNL     1      22.375   0.670  51.938  1.00  0.00    -0.367 N 
HETATM   13  C16 UNL     1      21.527   0.529  50.780  1.00  0.00     0.249 C 
HETATM   14  N5  UNL     1      20.128   0.447  51.107  1.00  0.00    -0.339 N 
HETATM   15  C17 UNL     1      19.334   1.089  50.076  1.00  0.00     0.191 A 
HETATM   16  H11 UNL     1      23.078   1.469  52.021  1.00  0.00     0.161 HD
ENDROOT
BRANCH  10  17
HETATM   17  N3  UNL     1      24.806   0.433  53.045  1.00  0.00    -0.339 N 
HETATM   18  H7  UNL     1      24.826   1.226  52.380  1.00  0.00     0.167 HD
BRANCH  17  19
HETATM   19  C9  UNL     1      26.183   0.114  53.180  1.00  0.00     0.035 A 
HETATM   20  C10 UNL     1      26.825  -1.094  52.880  1.00  0.00     0.032 A 
HETATM   21  C11 UNL     1      28.167  -1.326  53.053  1.00  0.00     0.046 A 
HETATM   22  C12 UNL     1      28.967  -0.322  53.555  1.00  0.00     0.138 A 
HETATM   23  F1  UNL     1      30.274  -0.649  53.688  1.00  0.00    -0.204 F 
HETATM   24  C13 UNL     1      28.365   0.897  53.867  1.00  0.00     0.074 A 
HETATM   25 CL1  UNL     1      29.490   2.084  54.493  1.00  0.00    -0.081 Cl
HETATM   26  C14 UNL     1      27.015   1.089  53.678  1.00  0.00     0.056 A 
ENDBRANCH  17  19
ENDBRANCH  10  17
BRANCH   1  27
HETATM   27  O1  UNL     1      17.047   1.631  49.426  1.00  0.00    -0.359 OA
HETATM   28  C1  UNL     1      16.475   2.915  49.606  1.00  0.00     0.209 C 
ENDBRANCH   1  27
TORSDOF 3
ENDMDL
MODEL 2
REMARK VINA RESULT:      -8.6      4.735      5.922
REMARK  3 active torsions:
REMARK  status: ('A' for Active; 'I' for Inactive)
REMARK    1  A    between atoms: O1_2  and  C2_3 
REMARK    2  A    between atoms: C8_12  and  N3_13 
REMARK    3  A    between atoms: N3_13  and  C9_14 
ROOT
HETATM    1  C2  UNL     1      20.453  -0.473  53.301  1.00  0.00     0.063 A 
HETATM    2  C3  UNL     1      21.241  -0.870  54.280  1.00  0.00     0.038 A 
HETATM    3  C4  UNL     1      22.653  -0.556  54.168  1.00  0.00     0.059 A 
HETATM    4  C5  UNL     1      23.107   0.108  53.110  1.00  0.00     0.149 A 
HETATM    5  O2  UNL     1      24.491   0.267  53.271  1.00  0.00    -0.273 OA
HETATM    6  C6  UNL     1      25.286   1.175  52.542  1.00  0.00     0.203 A 
HETATM    7  N1  UNL     1      26.565   1.089  52.992  1.00  0.00    -0.215 NA
HETATM    8  C7  UNL     1      27.501   1.890  52.414  1.00  0.00     0.238 A 
HETATM    9  N2  UNL     1      27.125   2.720  51.437  1.00  0.00    -0.222 NA
HETATM   10  C8  UNL     1      25.902   2.867  50.938  1.00  0.00     0.160 A 
HETATM   11  C15 UNL     1      24.947   2.062  51.517  1.00  0.00     0.130 A 
HETATM   12  N4  UNL     1      23.638   2.226  51.006  1.00  0.00    -0.367 N 
HETATM   13  C16 UNL     1      22.575   1.268  50.833  1.00  0.00     0.249 C 
HETATM   14  N5  UNL     1      22.261   0.546  52.038  1.00  0.00    -0.339 N 
HETATM   15  C17 UNL     1      20.840   0.259  52.093  1.00  0.00     0.191 A 
HETATM   16  H11 UNL     1      23.513   3.253  50.740  1.00  0.00     0.161 HD
ENDROOT
BRANCH  10  17
HETATM   17  N3  UNL     1      25.557   3.747  49.911  1.00  0.00    -0.339 N 
HETATM   18  H7  UNL     1      24.711   3.782  49.315  1.00  0.00     0.167 HD
BRANCH  17  19
HETATM   19  C9  UNL     1      26.328   4.828  49.407  1.00  0.00     0.035 A 
HETATM   20  C10 UNL     1      27.536   4.774  48.702  1.00  0.00     0.032 A 
HETATM   21  C11 UNL     1      28.229   5.874  48.259  1.00  0.00     0.046 A 
HETATM   22  C12 UNL     1      27.728   7.134  48.509  1.00  0.00     0.138 A 
HETATM   23  F1  UNL     1      28.483   8.151  48.032  1.00  0.00    -0.204 F 
HETATM   24  C13 UNL     1      26.526   7.230  49.210  1.00  0.00     0.074 A 
HETATM   25 CL1  UNL     1      26.002   8.882  49.460  1.00  0.00    -0.081 Cl
HETATM   26  C14 UNL     1      25.863   6.102  49.636  1.00  0.00     0.056 A 
ENDBRANCH  17  19
ENDBRANCH  10  17
BRANCH   1  27
HETATM   27  O1  UNL     1      19.112  -0.797  53.453  1.00  0.00    -0.359 OA
HETATM   28  C1  UNL     1      18.154  -0.628  52.422  1.00  0.00     0.209 C 
ENDBRANCH   1  27
TORSDOF 3
ENDMDL
MODEL 3
REMARK VINA RESULT:      -8.5      1.663      2.874
REMARK  3 active torsions:
REMARK  status: ('A' for Active; 'I' for Inactive)
REMARK    1  A    between atoms: O1_2  and  C2_3 
REMARK    2  A    between atoms: C8_12  and  N3_13 
REMARK    3  A    between atoms: N3_13  and  C9_14 
ROOT
HETATM    1  C2  UNL     1      17.419  -0.981  52.376  1.00  0.00     0.063 A 
HETATM    2  C3  UNL     1      17.338  -0.312  51.244  1.00  0.00     0.038 A 
HETATM    3  C4  UNL     1      18.488   0.481  50.854  1.00  0.00     0.059 A 
HETATM    4  C5  UNL     1      19.569   0.513  51.627  1.00  0.00     0.149 A 
HETATM    5  O2  UNL     1      20.509   1.349  51.006  1.00  0.00    -0.273 OA
HETATM    6  C6  UNL     1      21.880   1.398  51.331  1.00  0.00     0.203 A 
HETATM    7  N1  UNL     1      22.491   2.283  50.501  1.00  0.00    -0.215 NA
HETATM    8  C7  UNL     1      23.829   2.480  50.651  1.00  0.00     0.238 A 
HETATM    9  N2  UNL     1      24.479   1.800  51.600  1.00  0.00    -0.222 NA
HETATM   10  C8  UNL     1      23.962   0.920  52.450  1.00  0.00     0.160 A 
HETATM   11  C15 UNL     1      22.609   0.712  52.307  1.00  0.00     0.130 A 
HETATM   12  N4  UNL     1      22.054  -0.238  53.196  1.00  0.00    -0.367 N 
HETATM   13  C16 UNL     1      20.750  -0.293  53.810  1.00  0.00     0.249 C 
HETATM   14  N5  UNL     1      19.672  -0.210  52.861  1.00  0.00    -0.339 N 
HETATM   15  C17 UNL     1      18.552  -1.020  53.304  1.00  0.00     0.191 A 
HETATM   16  H11 UNL     1      22.787  -0.994  53.373  1.00  0.00     0.161 HD
ENDROOT
BRANCH  10  17
HETATM   17  N3  UNL     1      24.683   0.235  53.430  1.00  0.00    -0.339 N 
HETATM   18  H7  UNL     1      24.369  -0.177  54.326  1.00  0.00     0.167 HD
BRANCH  17  19
HETATM   19  C9  UNL     1      26.075  -0.043  53.439  1.00  0.00     0.035 A 
HETATM   20  C10 UNL     1      26.727  -1.212  53.029  1.00  0.00     0.032 A 
HETATM   21  C11 UNL     1      28.086  -1.407  53.083  1.00  0.00     0.046 A 
HETATM   22  C12 UNL     1      28.893  -0.401  53.569  1.00  0.00     0.138 A 
HETATM   23  F1  UNL     1      30.215  -0.689  53.581  1.00  0.00    -0.204 F 
HETATM   24  C13 UNL     1      28.281   0.781  53.989  1.00  0.00     0.074 A 
HETATM   25 CL1  UNL     1      29.418   1.973  54.583  1.00  0.00    -0.081 Cl
HETATM   26  C14 UNL     1      26.915   0.935  53.918  1.00  0.00     0.056 A 
ENDBRANCH  17  19
ENDBRANCH  10  17
BRANCH   1  27
HETATM   27  O1  UNL     1      16.294  -1.724  52.707  1.00  0.00    -0.359 OA
HETATM   28  C1  UNL     1      15.214  -1.932  51.814  1.00  0.00     0.209 C 
ENDBRANCH   1  27
TORSDOF 3
ENDMDL
MODEL 4
REMARK VINA RESULT:      -8.4      5.156      9.048
REMARK  3 active torsions:
REMARK  status: ('A' for Active; 'I' for Inactive)
REMARK    1  A    between atoms: O1_2  and  C2_3 
REMARK    2  A    between atoms: C8_12  and  N3_13 
REMARK    3  A    between atoms: N3_13  and  C9_14 
ROOT
HETATM    1  C2  UNL     1      25.952  -0.032  54.344  1.00  0.00     0.063 A 
HETATM    2  C3  UNL     1      26.084   0.858  53.381  1.00  0.00     0.038 A 
HETATM    3  C4  UNL     1      24.933   1.098  52.532  1.00  0.00     0.059 A 
HETATM    4  C5  UNL     1      23.801   0.432  52.738  1.00  0.00     0.149 A 
HETATM    5  O2  UNL     1      22.874   0.863  51.778  1.00  0.00    -0.273 OA
HETATM    6  C6  UNL     1      21.483   0.642  51.848  1.00  0.00     0.203 A 
HETATM    7  N1  UNL     1      20.895   1.236  50.777  1.00  0.00    -0.215 NA
HETATM    8  C7  UNL     1      19.544   1.139  50.654  1.00  0.00     0.238 A 
HETATM    9  N2  UNL     1      18.858   0.470  51.585  1.00  0.00    -0.222 NA
HETATM   10  C8  UNL     1      19.350  -0.137  52.659  1.00  0.00     0.160 A 
HETATM   11  C15 UNL     1      20.716  -0.045  52.794  1.00  0.00     0.130 A 
HETATM   12  N4  UNL     1      21.247  -0.672  53.945  1.00  0.00    -0.367 N 
HETATM   13  C16 UNL     1      22.507  -1.343  54.147  1.00  0.00     0.249 C 
HETATM   14  N5  UNL     1      23.644  -0.540  53.781  1.00  0.00    -0.339 N 
HETATM   15  C17 UNL     1      24.761  -0.823  54.662  1.00  0.00     0.191 A 
HETATM   16  H11 UNL     1      20.533  -0.576  54.734  1.00  0.00     0.161 HD
ENDROOT
BRANCH  10  17
HETATM   17  N3  UNL     1      18.592  -0.830  53.605  1.00  0.00    -0.339 N 
HETATM   18  H7  UNL     1      18.558  -0.735  54.635  1.00  0.00     0.167 HD
BRANCH  17  19
HETATM   19  C9  UNL     1      17.674  -1.887  53.367  1.00  0.00     0.035 A 
HETATM   20  C10 UNL     1      17.767  -3.223  53.774  1.00  0.00     0.032 A 
HETATM   21  C11 UNL     1      16.836  -4.191  53.489  1.00  0.00     0.046 A 
HETATM   22  C12 UNL     1      15.720  -3.858  52.750  1.00  0.00     0.138 A 
HETATM   23  F1  UNL     1      14.863  -4.881  52.523  1.00  0.00    -0.204 F 
HETATM   24  C13 UNL     1      15.591  -2.537  52.324  1.00  0.00     0.074 A 
HETATM   25 CL1  UNL     1      14.132  -2.249  51.399  1.00  0.00    -0.081 Cl
HETATM   26  C14 UNL     1      16.548  -1.596  52.633  1.00  0.00     0.056 A 
ENDBRANCH  17  19
ENDBRANCH  10  17
BRANCH   1  27
HETATM   27  O1  UNL     1      27.080  -0.227  55.129  1.00  0.00    -0.359 OA
HETATM   28  C1  UNL     1      28.373   0.212  54.748  1.00  0.00     0.209 C 
ENDBRANCH   1  27
TORSDOF 3
ENDMDL
MODEL 5
REMARK VINA RESULT:      -8.3      2.338      3.700
REMARK  3 active torsions:
REMARK  status: ('A' for Active; 'I' for Inactive)
REMARK    1  A    between atoms: O1_2  and  C2_3 
REMARK    2  A    between atoms: C8_12  and  N3_13 
REMARK    3  A    between atoms: N3_13  and  C9_14 
ROOT
HETATM    1  C2  UNL     1      18.788  -0.125  51.712  1.00  0.00     0.063 A 
HETATM    2  C3  UNL     1      18.816   0.242  50.447  1.00  0.00     0.038 A 
HETATM    3  C4  UNL     1      19.963   1.009  50.000  1.00  0.00     0.059 A 
HETATM    4  C5  UNL     1      20.935   1.314  50.854  1.00  0.00     0.149 A 
HETATM    5  O2  UNL     1      21.901   2.050  50.151  1.00  0.00    -0.273 OA
HETATM    6  C6  UNL     1      23.216   2.287  50.603  1.00  0.00     0.203 A 
HETATM    7  N1  UNL     1      23.880   2.993  49.651  1.00  0.00    -0.215 NA
HETATM    8  C7  UNL     1      25.176   3.328  49.892  1.00  0.00     0.238 A 
HETATM    9  N2  UNL     1      25.736   2.953  51.046  1.00  0.00    -0.222 NA
HETATM   10  C8  UNL     1      25.162   2.265  52.027  1.00  0.00     0.160 A 
HETATM   11  C15 UNL     1      23.850   1.919  51.793  1.00  0.00     0.130 A 
HETATM   12  N4  UNL     1      23.237   1.170  52.824  1.00  0.00    -0.367 N 
HETATM   13  C16 UNL     1      21.870   1.158  53.285  1.00  0.00     0.249 C 
HETATM   14  N5  UNL     1      20.918   0.921  52.233  1.00  0.00    -0.339 N 
HETATM   15  C17 UNL     1      19.795   0.154  52.738  1.00  0.00     0.191 A 
HETATM   16  H11 UNL     1      23.980   0.542  53.264  1.00  0.00     0.161 HD
ENDROOT
BRANCH  10  17
HETATM   17  N3  UNL     1      25.787   1.898  53.221  1.00  0.00    -0.339 N 
HETATM   18  H7  UNL     1      25.516   2.082  54.202  1.00  0.00     0.167 HD
BRANCH  17  19
HETATM   19  C9  UNL     1      27.003   1.180  53.370  1.00  0.00     0.035 A 
HETATM   20  C10 UNL     1      28.252   1.668  53.771  1.00  0.00     0.032 A 
HETATM   21  C11 UNL     1      29.389   0.905  53.878  1.00  0.00     0.046 A 
HETATM   22  C12 UNL     1      29.330  -0.439  53.576  1.00  0.00     0.138 A 
HETATM   23  F1  UNL     1      30.502  -1.104  53.713  1.00  0.00    -0.204 F 
HETATM   24  C13 UNL     1      28.103  -0.964  53.172  1.00  0.00     0.074 A 
HETATM   25 CL1  UNL     1      28.166  -2.678  52.821  1.00  0.00    -0.081 Cl
HETATM   26  C14 UNL     1      26.987  -0.163  53.079  1.00  0.00     0.056 A 
ENDBRANCH  17  19
ENDBRANCH  10  17
BRANCH   1  27
HETATM   27  O1  UNL     1      17.670  -0.855  52.092  1.00  0.00    -0.359 OA
HETATM   28  C1  UNL     1      17.633  -1.664  53.255  1.00  0.00     0.209 C 
ENDBRANCH   1  27
TORSDOF 3
ENDMDL
MODEL 6
REMARK VINA RESULT:      -8.2      6.294      7.742
REMARK  3 active torsions:
REMARK  status: ('A' for Active; 'I' for Inactive)
REMARK    1  A    between atoms: O1_2  and  C2_3 
REMARK    2  A    between atoms: C8_12  and  N3_13 
REMARK    3  A    between atoms: N3_13  and  C9_14 
ROOT
HETATM    1  C2  UNL     1      27.396   8.904  48.787  1.00  0.00     0.063 A 
HETATM    2  C3  UNL     1      26.468   9.490  49.517  1.00  0.00     0.038 A 
HETATM    3  C4  UNL     1      25.486   8.637  50.158  1.00  0.00     0.059 A 
HETATM    4  C5  UNL     1      25.542   7.319  49.999  1.00  0.00     0.149 A 
HETATM    5  O2  UNL     1      24.480   6.759  50.725  1.00  0.00    -0.273 OA
HETATM    6  C6  UNL     1      24.374   5.396  51.072  1.00  0.00     0.203 A 
HETATM    7  N1  UNL     1      23.245   5.224  51.809  1.00  0.00    -0.215 NA
HETATM    8  C7  UNL     1      22.955   3.969  52.247  1.00  0.00     0.238 A 
HETATM    9  N2  UNL     1      23.785   2.969  51.938  1.00  0.00    -0.222 NA
HETATM   10  C8  UNL     1      24.904   3.049  51.226  1.00  0.00     0.160 A 
HETATM   11  C15 UNL     1      25.208   4.314  50.778  1.00  0.00     0.130 A 
HETATM   12  N4  UNL     1      26.409   4.413  50.036  1.00  0.00    -0.367 N 
HETATM   13  C16 UNL     1      26.757   5.271  48.931  1.00  0.00     0.249 C 
HETATM   14  N5  UNL     1      26.545   6.667  49.208  1.00  0.00    -0.339 N 
HETATM   15  C17 UNL     1      27.554   7.469  48.541  1.00  0.00     0.191 A 
HETATM   16  H11 UNL     1      27.104   3.707  50.435  1.00  0.00     0.161 HD
ENDROOT
BRANCH  10  17
HETATM   17  N3  UNL     1      25.740   1.972  50.924  1.00  0.00    -0.339 N 
HETATM   18  H7  UNL     1      25.905   1.485  50.026  1.00  0.00     0.167 HD
BRANCH  17  19
HETATM   19  C9  UNL     1      26.572   1.251  51.820  1.00  0.00     0.035 A 
HETATM   20  C10 UNL     1      26.593  -0.128  52.062  1.00  0.00     0.032 A 
HETATM   21  C11 UNL     1      27.426  -0.748  52.961  1.00  0.00     0.046 A 
HETATM   22  C12 UNL     1      28.315   0.010  53.692  1.00  0.00     0.138 A 
HETATM   23  F1  UNL     1      29.091  -0.694  54.549  1.00  0.00    -0.204 F 
HETATM   24  C13 UNL     1      28.325   1.388  53.480  1.00  0.00     0.074 A 
HETATM   25 CL1  UNL     1      29.499   2.231  54.470  1.00  0.00    -0.081 Cl
HETATM   26  C14 UNL     1      27.474   1.971  52.569  1.00  0.00     0.056 A 
ENDBRANCH  17  19
ENDBRANCH  10  17
BRANCH   1  27
HETATM   27  O1  UNL     1      28.312   9.761  48.194  1.00  0.00    -0.359 OA
HETATM   28  C1  UNL     1      28.264  10.116  46.822  1.00  0.00     0.209 C 
ENDBRANCH   1  27
TORSDOF 3
ENDMDL
MODEL 7
REMARK VINA RESULT:      -8.2      5.634      8.071
REMARK  3 active torsions:
REMARK  status: ('A' for Active; 'I' for Inactive)
REMARK    1  A    between atoms: O1_2  and  C2_3 
REMARK    2  A    between atoms: C8_12  and  N3_13 
REMARK    3  A    between atoms: N3_13  and  C9_14 
ROOT
HETATM    1  C2  UNL     1      26.831  -0.702  53.196  1.00  0.00     0.063 A 
HETATM    2  C3  UNL     1      25.678  -0.833  53.819  1.00  0.00     0.038 A 
HETATM    3  C4  UNL     1      24.717   0.245  53.676  1.00  0.00     0.059 A 
HETATM    4  C5  UNL     1      25.014   1.311  52.940  1.00  0.00     0.149 A 
HETATM    5  O2  UNL     1      23.912   2.177  52.983  1.00  0.00    -0.273 OA
HETATM    6  C6  UNL     1      23.698   3.251  52.095  1.00  0.00     0.203 A 
HETATM    7  N1  UNL     1      22.514   3.840  52.404  1.00  0.00    -0.215 NA
HETATM    8  C7  UNL     1      22.118   4.907  51.660  1.00  0.00     0.238 A 
HETATM    9  N2  UNL     1      22.904   5.327  50.664  1.00  0.00    -0.222 NA
HETATM   10  C8  UNL     1      24.071   4.812  50.296  1.00  0.00     0.160 A 
HETATM   11  C15 UNL     1      24.482   3.731  51.042  1.00  0.00     0.130 A 
HETATM   12  N4  UNL     1      25.715   3.163  50.643  1.00  0.00    -0.367 N 
HETATM   13  C16 UNL     1      26.751   2.536  51.426  1.00  0.00     0.249 C 
HETATM   14  N5  UNL     1      26.266   1.466  52.257  1.00  0.00    -0.339 N 
HETATM   15  C17 UNL     1      27.267   0.421  52.363  1.00  0.00     0.191 A 
HETATM   16  H11 UNL     1      25.796   3.258  49.583  1.00  0.00     0.161 HD
ENDROOT
BRANCH  10  17
HETATM   17  N3  UNL     1      24.862   5.289  49.248  1.00  0.00    -0.339 N 
HETATM   18  H7  UNL     1      24.927   4.978  48.263  1.00  0.00     0.167 HD
BRANCH  17  19
HETATM   19  C9  UNL     1      25.820   6.336  49.300  1.00  0.00     0.035 A 
HETATM   20  C10 UNL     1      25.788   7.501  50.076  1.00  0.00     0.032 A 
HETATM   21  C11 UNL     1      26.754   8.476  50.057  1.00  0.00     0.046 A 
HETATM   22  C12 UNL     1      27.845   8.330  49.227  1.00  0.00     0.138 A 
HETATM   23  F1  UNL     1      28.740   9.344  49.281  1.00  0.00    -0.204 F 
HETATM   24  C13 UNL     1      27.913   7.184  48.436  1.00  0.00     0.074 A 
HETATM   25 CL1  UNL     1      29.346   7.122  47.431  1.00  0.00    -0.081 Cl
HETATM   26  C14 UNL     1      26.923   6.229  48.486  1.00  0.00     0.056 A 
ENDBRANCH  17  19
ENDBRANCH  10  17
BRANCH   1  27
HETATM   27  O1  UNL     1      27.717  -1.758  53.362  1.00  0.00    -0.359 OA
HETATM   28  C1  UNL     1      29.125  -1.603  53.305  1.00  0.00     0.209 C 
ENDBRANCH   1  27
TORSDOF 3
ENDMDL
MODEL 8
REMARK VINA RESULT:      -8.1      5.487      7.769
REMARK  3 active torsions:
REMARK  status: ('A' for Active; 'I' for Inactive)
REMARK    1  A    between atoms: O1_2  and  C2_3 
REMARK    2  A    between atoms: C8_12  and  N3_13 
REMARK    3  A    between atoms: N3_13  and  C9_14 
ROOT
HETATM    1  C2  UNL     1      25.795   5.655  49.173  1.00  0.00     0.063 A 
HETATM    2  C3  UNL     1      26.782   4.806  48.972  1.00  0.00     0.038 A 
HETATM    3  C4  UNL     1      26.787   3.591  49.764  1.00  0.00     0.059 A 
HETATM    4  C5  UNL     1      25.822   3.367  50.649  1.00  0.00     0.149 A 
HETATM    5  O2  UNL     1      26.083   2.131  51.258  1.00  0.00    -0.273 OA
HETATM    6  C6  UNL     1      25.147   1.391  52.010  1.00  0.00     0.203 A 
HETATM    7  N1  UNL     1      25.730   0.230  52.407  1.00  0.00    -0.215 NA
HETATM    8  C7  UNL     1      24.990  -0.634  53.151  1.00  0.00     0.238 A 
HETATM    9  N2  UNL     1      23.731  -0.307  53.459  1.00  0.00    -0.222 NA
HETATM   10  C8  UNL     1      23.086   0.802  53.115  1.00  0.00     0.160 A 
HETATM   11  C15 UNL     1      23.825   1.683  52.359  1.00  0.00     0.130 A 
HETATM   12  N4  UNL     1      23.140   2.859  51.971  1.00  0.00    -0.367 N 
HETATM   13  C16 UNL     1      23.624   4.203  51.781  1.00  0.00     0.249 C 
HETATM   14  N5  UNL     1      24.742   4.282  50.878  1.00  0.00    -0.339 N 
HETATM   15  C17 UNL     1      24.684   5.516  50.116  1.00  0.00     0.191 A 
HETATM   16  H11 UNL     1      22.115   2.607  51.812  1.00  0.00     0.161 HD
ENDROOT
BRANCH  10  17
HETATM   17  N3  UNL     1      21.768   1.103  53.464  1.00  0.00    -0.339 N 
HETATM   18  H7  UNL     1      21.397   1.702  54.221  1.00  0.00     0.167 HD
BRANCH  17  19
HETATM   19  C9  UNL     1      20.583   0.617  52.851  1.00  0.00     0.035 A 
HETATM   20  C10 UNL     1      19.978   1.054  51.666  1.00  0.00     0.032 A 
HETATM   21  C11 UNL     1      18.818   0.535  51.147  1.00  0.00     0.046 A 
HETATM   22  C12 UNL     1      18.177  -0.487  51.814  1.00  0.00     0.138 A 
HETATM   23  F1  UNL     1      17.043  -0.929  51.221  1.00  0.00    -0.204 F 
HETATM   24  C13 UNL     1      18.747  -0.950  52.999  1.00  0.00     0.074 A 
HETATM   25 CL1  UNL     1      17.836  -2.248  53.743  1.00  0.00    -0.081 Cl
HETATM   26  C14 UNL     1      19.913  -0.403  53.485  1.00  0.00     0.056 A 
ENDBRANCH  17  19
ENDBRANCH  10  17
BRANCH   1  27
HETATM   27  O1  UNL     1      25.833   6.803  48.393  1.00  0.00    -0.359 OA
HETATM   28  C1  UNL     1      24.763   7.731  48.327  1.00  0.00     0.209 C 
ENDBRANCH   1  27
TORSDOF 3
ENDMDL
MODEL 9
REMARK VINA RESULT:      -8.1      5.610      6.799
REMARK  3 active torsions:
REMARK  status: ('A' for Active; 'I' for Inactive)
REMARK    1  A    between atoms: O1_2  and  C2_3 
REMARK    2  A    between atoms: C8_12  and  N3_13 
REMARK    3  A    between atoms: N3_13  and  C9_14 
ROOT
HETATM    1  C2  UNL     1      21.053   8.201  49.950  1.00  0.00     0.063 A 
HETATM    2  C3  UNL     1      21.740   8.747  48.967  1.00  0.00     0.038 A 
HETATM    3  C4  UNL     1      23.065   8.218  48.707  1.00  0.00     0.059 A 
HETATM    4  C5  UNL     1      23.544   7.222  49.446  1.00  0.00     0.149 A 
HETATM    5  O2  UNL     1      24.829   6.922  48.972  1.00  0.00    -0.273 OA
HETATM    6  C6  UNL     1      25.540   5.740  49.268  1.00  0.00     0.203 A 
HETATM    7  N1  UNL     1      26.726   5.770  48.606  1.00  0.00    -0.215 NA
HETATM    8  C7  UNL     1      27.569   4.714  48.758  1.00  0.00     0.238 A 
HETATM    9  N2  UNL     1      27.198   3.701  49.546  1.00  0.00    -0.222 NA
HETATM   10  C8  UNL     1      26.063   3.591  50.227  1.00  0.00     0.160 A 
HETATM   11  C15 UNL     1      25.201   4.654  50.080  1.00  0.00     0.130 A 
HETATM   12  N4  UNL     1      23.981   4.537  50.786  1.00  0.00    -0.367 N 
HETATM   13  C16 UNL     1      23.161   5.546  51.409  1.00  0.00     0.249 C 
HETATM   14  N5  UNL     1      22.807   6.619  50.518  1.00  0.00    -0.339 N 
HETATM   15  C17 UNL     1      21.475   7.107  50.827  1.00  0.00     0.191 A 
HETATM   16  H11 UNL     1      23.705   3.505  50.800  1.00  0.00     0.161 HD
ENDROOT
BRANCH  10  17
HETATM   17  N3  UNL     1      25.719   2.512  51.044  1.00  0.00    -0.339 N 
HETATM   18  H7  UNL     1      24.800   2.070  51.219  1.00  0.00     0.167 HD
BRANCH  17  19
HETATM   19  C9  UNL     1      26.584   1.754  51.878  1.00  0.00     0.035 A 
HETATM   20  C10 UNL     1      27.579   2.221  52.745  1.00  0.00     0.032 A 
HETATM   21  C11 UNL     1      28.385   1.416  53.512  1.00  0.00     0.046 A 
HETATM   22  C12 UNL     1      28.230   0.048  53.447  1.00  0.00     0.138 A 
HETATM   23  F1  UNL     1      29.071  -0.657  54.240  1.00  0.00    -0.204 F 
HETATM   24  C13 UNL     1      27.250  -0.458  52.593  1.00  0.00     0.074 A 
HETATM   25 CL1  UNL     1      27.158  -2.207  52.605  1.00  0.00    -0.081 Cl
HETATM   26  C14 UNL     1      26.462   0.385  51.842  1.00  0.00     0.056 A 
ENDBRANCH  17  19
ENDBRANCH  10  17
BRANCH   1  27
HETATM   27  O1  UNL     1      19.791   8.741  50.162  1.00  0.00    -0.359 OA
HETATM   28  C1  UNL     1      19.418  10.033  49.715  1.00  0.00     0.209 C 
ENDBRANCH   1  27
TORSDOF 3
ENDMDL
