MODEL 1
REMARK VINA RESULT:      -7.4      0.000      0.000
REMARK  9 active torsions:
REMARK  status: ('A' for Active; 'I' for Inactive)
REMARK    1  A    between atoms: O1_2  and  C2_3 
REMARK    2  A    between atoms: C6_9  and  N3_10 
REMARK    3  A    between atoms: N3_10  and  C7_11 
REMARK    4  A    between atoms: C7_11  and  C8_12 
REMARK    5  A    between atoms: C10_15  and  C11_16 
REMARK    6  A    between atoms: C14_20  and  O2_21 
REMARK    7  A    between atoms: O2_21  and  C15_22 
REMARK    8  A    between atoms: C15_22  and  C16_23 
REMARK    9  A    between atoms: C16_23  and  N4_24 
ROOT
HETATM    1  C2  UNL     1      20.602  -0.310  53.155  1.00  0.00     0.103 A 
HETATM    2  C3  UNL     1      21.123  -0.794  54.338  1.00  0.00     0.072 A 
HETATM    3  C4  UNL     1      22.465  -0.904  54.621  1.00  0.00     0.075 A 
HETATM    4  N1  UNL     1      23.016  -1.374  55.737  1.00  0.00    -0.241 NA
HETATM    5  C5  UNL     1      24.333  -1.463  55.929  1.00  0.00     0.236 A 
HETATM    6  N2  UNL     1      25.141  -1.042  54.913  1.00  0.00    -0.224 NA
HETATM    7  C6  UNL     1      24.675  -0.555  53.754  1.00  0.00     0.142 A 
HETATM    8  C12 UNL     1      23.313  -0.486  53.610  1.00  0.00     0.042 A 
HETATM    9  C13 UNL     1      22.839  -0.001  52.422  1.00  0.00     0.057 A 
HETATM   10  C14 UNL     1      21.495   0.105  52.152  1.00  0.00     0.103 A 
ENDROOT
BRANCH   7  11
HETATM   11  N3  UNL     1      25.690  -0.212  52.860  1.00  0.00    -0.340 N 
HETATM   12  H6  UNL     1      25.793  -1.125  52.337  1.00  0.00     0.167 HD
BRANCH  11  13
HETATM   13  C7  UNL     1      26.539   0.824  52.449  1.00  0.00     0.033 C 
HETATM   14  C10 UNL     1      27.682   1.151  52.989  1.00  0.00     0.033 C 
BRANCH  13  15
HETATM   15  C8  UNL     1      26.163   1.669  51.326  1.00  0.00     0.041 C 
HETATM   16  C9  UNL     1      26.650   2.840  50.999  1.00  0.00     0.220 C 
HETATM   17 CL1  UNL     1      26.309   3.949  49.702  1.00  0.00    -0.230 Cl
ENDBRANCH  13  15
BRANCH  14  18
HETATM   18  C11 UNL     1      28.405   0.573  54.134  1.00  0.00     0.252 C 
HETATM   19  F1  UNL     1      29.664   0.089  53.727  1.00  0.00    -0.251 F 
ENDBRANCH  14  18
ENDBRANCH  11  13
ENDBRANCH   7  11
BRANCH  10  20
HETATM   20  O2  UNL     1      20.944   0.585  50.972  1.00  0.00    -0.347 OA
BRANCH  20  21
HETATM   21  C15 UNL     1      21.783   1.306  50.107  1.00  0.00     0.206 C 
BRANCH  21  22
HETATM   22  C16 UNL     1      21.592   2.797  50.227  1.00  0.00     0.299 C 
BRANCH  22  23
HETATM   23  N4  UNL     1      22.730   3.480  50.735  1.00  0.00     0.090 N 
HETATM   24  C17 UNL     1      22.894   4.831  50.228  1.00  0.00     0.272 C 
HETATM   25  C18 UNL     1      23.450   5.652  51.352  1.00  0.00     0.032 C 
HETATM   26  C19 UNL     1      23.516   4.753  52.561  1.00  0.00     0.032 C 
HETATM   27  C20 UNL     1      22.548   3.646  52.181  1.00  0.00     0.272 C 
ENDBRANCH  22  23
ENDBRANCH  21  22
ENDBRANCH  20  21
ENDBRANCH  10  20
BRANCH   1  28
HETATM   28  O1  UNL     1      19.268  -0.208  52.886  1.00  0.00    -0.353 OA
HETATM   29  C1  UNL     1      18.322  -1.184  53.228  1.00  0.00     0.210 C 
ENDBRANCH   1  28
TORSDOF 9
ENDMDL
MODEL 2
REMARK VINA RESULT:      -7.3      3.630      5.828
REMARK  9 active torsions:
REMARK  status: ('A' for Active; 'I' for Inactive)
REMARK    1  A    between atoms: O1_2  and  C2_3 
REMARK    2  A    between atoms: C6_9  and  N3_10 
REMARK    3  A    between atoms: N3_10  and  C7_11 
REMARK    4  A    between atoms: C7_11  and  C8_12 
REMARK    5  A    between atoms: C10_15  and  C11_16 
REMARK    6  A    between atoms: C14_20  and  O2_21 
REMARK    7  A    between atoms: O2_21  and  C15_22 
REMARK    8  A    between atoms: C15_22  and  C16_23 
REMARK    9  A    between atoms: C16_23  and  N4_24 
ROOT
HETATM    1  C2  UNL     1      27.322   0.664  53.730  1.00  0.00     0.103 A 
HETATM    2  C3  UNL     1      26.698  -0.093  54.701  1.00  0.00     0.072 A 
HETATM    3  C4  UNL     1      25.376  -0.473  54.675  1.00  0.00     0.075 A 
HETATM    4  N1  UNL     1      24.726  -1.189  55.590  1.00  0.00    -0.241 NA
HETATM    5  C5  UNL     1      23.433  -1.505  55.498  1.00  0.00     0.236 A 
HETATM    6  N2  UNL     1      22.760  -1.059  54.397  1.00  0.00    -0.224 NA
HETATM    7  C6  UNL     1      23.332  -0.333  53.426  1.00  0.00     0.142 A 
HETATM    8  C12 UNL     1      24.663  -0.037  53.571  1.00  0.00     0.042 A 
HETATM    9  C13 UNL     1      25.242   0.715  52.586  1.00  0.00     0.057 A 
HETATM   10  C14 UNL     1      26.565   1.087  52.624  1.00  0.00     0.103 A 
ENDROOT
BRANCH   7  11
HETATM   11  N3  UNL     1      22.438   0.025  52.416  1.00  0.00    -0.340 N 
HETATM   12  H6  UNL     1      22.833  -0.536  51.611  1.00  0.00     0.167 HD
BRANCH  11  13
HETATM   13  C7  UNL     1      21.304   0.792  52.123  1.00  0.00     0.033 C 
HETATM   14  C10 UNL     1      21.284   2.061  51.815  1.00  0.00     0.033 C 
BRANCH  13  15
HETATM   15  C8  UNL     1      19.984   0.183  52.163  1.00  0.00     0.041 C 
HETATM   16  C9  UNL     1      19.424  -0.466  53.154  1.00  0.00     0.220 C 
HETATM   17 CL1  UNL     1      17.873  -1.233  53.347  1.00  0.00    -0.230 Cl
ENDBRANCH  13  15
BRANCH  14  18
HETATM   18  C11 UNL     1      22.380   3.036  51.686  1.00  0.00     0.252 C 
HETATM   19  F1  UNL     1      23.261   2.651  50.656  1.00  0.00    -0.251 F 
ENDBRANCH  14  18
ENDBRANCH  11  13
ENDBRANCH   7  11
BRANCH  10  20
HETATM   20  O2  UNL     1      27.217   1.848  51.665  1.00  0.00    -0.347 OA
BRANCH  20  21
HETATM   21  C15 UNL     1      26.552   2.982  51.170  1.00  0.00     0.206 C 
BRANCH  21  22
HETATM   22  C16 UNL     1      26.431   2.972  49.667  1.00  0.00     0.299 C 
BRANCH  22  23
HETATM   23  N4  UNL     1      26.078   4.232  49.113  1.00  0.00     0.090 N 
HETATM   24  C17 UNL     1      25.437   5.139  50.048  1.00  0.00     0.272 C 
HETATM   25  C18 UNL     1      25.907   6.521  49.706  1.00  0.00     0.032 C 
HETATM   26  C19 UNL     1      26.919   6.377  48.598  1.00  0.00     0.032 C 
HETATM   27  C20 UNL     1      27.316   4.916  48.723  1.00  0.00     0.272 C 
ENDBRANCH  22  23
ENDBRANCH  21  22
ENDBRANCH  20  21
ENDBRANCH  10  20
BRANCH   1  28
HETATM   28  O1  UNL     1      28.634   1.035  53.769  1.00  0.00    -0.353 OA
HETATM   29  C1  UNL     1      29.706   0.148  53.599  1.00  0.00     0.210 C 
ENDBRANCH   1  28
TORSDOF 9
ENDMDL
MODEL 3
REMARK VINA RESULT:      -7.1      3.382      5.587
REMARK  9 active torsions:
REMARK  status: ('A' for Active; 'I' for Inactive)
REMARK    1  A    between atoms: O1_2  and  C2_3 
REMARK    2  A    between atoms: C6_9  and  N3_10 
REMARK    3  A    between atoms: N3_10  and  C7_11 
REMARK    4  A    between atoms: C7_11  and  C8_12 
REMARK    5  A    between atoms: C10_15  and  C11_16 
REMARK    6  A    between atoms: C14_20  and  O2_21 
REMARK    7  A    between atoms: O2_21  and  C15_22 
REMARK    8  A    between atoms: C15_22  and  C16_23 
REMARK    9  A    between atoms: C16_23  and  N4_24 
ROOT
HETATM    1  C2  UNL     1      26.819   0.375  53.272  1.00  0.00     0.103 A 
HETATM    2  C3  UNL     1      26.182  -0.410  54.212  1.00  0.00     0.072 A 
HETATM    3  C4  UNL     1      24.818  -0.546  54.330  1.00  0.00     0.075 A 
HETATM    4  N1  UNL     1      24.157  -1.277  55.223  1.00  0.00    -0.241 NA
HETATM    5  C5  UNL     1      22.826  -1.345  55.281  1.00  0.00     0.236 A 
HETATM    6  N2  UNL     1      22.124  -0.617  54.365  1.00  0.00    -0.224 NA
HETATM    7  C6  UNL     1      22.705   0.147  53.428  1.00  0.00     0.142 A 
HETATM    8  C12 UNL     1      24.075   0.180  53.414  1.00  0.00     0.042 A 
HETATM    9  C13 UNL     1      24.667   0.971  52.467  1.00  0.00     0.057 A 
HETATM   10  C14 UNL     1      26.031   1.097  52.359  1.00  0.00     0.103 A 
ENDROOT
BRANCH   7  11
HETATM   11  N3  UNL     1      21.783   0.813  52.621  1.00  0.00    -0.340 N 
HETATM   12  H6  UNL     1      21.699   1.726  53.148  1.00  0.00     0.167 HD
BRANCH  11  13
HETATM   13  C7  UNL     1      21.005   0.708  51.461  1.00  0.00     0.033 C 
HETATM   14  C10 UNL     1      19.758   0.325  51.395  1.00  0.00     0.033 C 
BRANCH  13  15
HETATM   15  C8  UNL     1      21.585   1.025  50.165  1.00  0.00     0.041 C 
HETATM   16  C9  UNL     1      22.299   2.072  49.835  1.00  0.00     0.220 C 
HETATM   17 CL1  UNL     1      23.054   2.576  48.349  1.00  0.00    -0.230 Cl
ENDBRANCH  13  15
BRANCH  14  18
HETATM   18  C11 UNL     1      18.824  -0.095  52.452  1.00  0.00     0.252 C 
HETATM   19  F1  UNL     1      19.293  -1.263  53.087  1.00  0.00    -0.251 F 
ENDBRANCH  14  18
ENDBRANCH  11  13
ENDBRANCH   7  11
BRANCH  10  20
HETATM   20  O2  UNL     1      26.698   1.880  51.428  1.00  0.00    -0.347 OA
BRANCH  20  21
HETATM   21  C15 UNL     1      25.951   2.845  50.732  1.00  0.00     0.206 C 
BRANCH  21  22
HETATM   22  C16 UNL     1      26.625   3.292  49.460  1.00  0.00     0.299 C 
BRANCH  22  23
HETATM   23  N4  UNL     1      26.185   4.559  48.994  1.00  0.00     0.090 N 
HETATM   24  C17 UNL     1      25.517   5.368  49.998  1.00  0.00     0.272 C 
HETATM   25  C18 UNL     1      25.897   6.793  49.732  1.00  0.00     0.032 C 
HETATM   26  C19 UNL     1      26.886   6.778  48.595  1.00  0.00     0.032 C 
HETATM   27  C20 UNL     1      27.371   5.339  48.620  1.00  0.00     0.272 C 
ENDBRANCH  22  23
ENDBRANCH  21  22
ENDBRANCH  20  21
ENDBRANCH  10  20
BRANCH   1  28
HETATM   28  O1  UNL     1      28.174   0.503  53.167  1.00  0.00    -0.353 OA
HETATM   29  C1  UNL     1      29.092  -0.400  53.720  1.00  0.00     0.210 C 
ENDBRANCH   1  28
TORSDOF 9
ENDMDL
MODEL 4
REMARK VINA RESULT:      -7.1      3.815      6.178
REMARK  9 active torsions:
REMARK  status: ('A' for Active; 'I' for Inactive)
REMARK    1  A    between atoms: O1_2  and  C2_3 
REMARK    2  A    between atoms: C6_9  and  N3_10 
REMARK    3  A    between atoms: N3_10  and  C7_11 
REMARK    4  A    between atoms: C7_11  and  C8_12 
REMARK    5  A    between atoms: C10_15  and  C11_16 
REMARK    6  A    between atoms: C14_20  and  O2_21 
REMARK    7  A    between atoms: O2_21  and  C15_22 
REMARK    8  A    between atoms: C15_22  and  C16_23 
REMARK    9  A    between atoms: C16_23  and  N4_24 
ROOT
HETATM    1  C2  UNL     1      25.129   0.940  52.256  1.00  0.00     0.103 A 
HETATM    2  C3  UNL     1      25.063   0.056  53.315  1.00  0.00     0.072 A 
HETATM    3  C4  UNL     1      23.900  -0.393  53.894  1.00  0.00     0.075 A 
HETATM    4  N1  UNL     1      23.783  -1.232  54.921  1.00  0.00    -0.241 NA
HETATM    5  C5  UNL     1      22.612  -1.609  55.436  1.00  0.00     0.236 A 
HETATM    6  N2  UNL     1      21.485  -1.095  54.864  1.00  0.00    -0.224 NA
HETATM    7  C6  UNL     1      21.505  -0.245  53.828  1.00  0.00     0.142 A 
HETATM    8  C12 UNL     1      22.736   0.109  53.337  1.00  0.00     0.042 A 
HETATM    9  C13 UNL     1      22.756   0.987  52.288  1.00  0.00     0.057 A 
HETATM   10  C14 UNL     1      23.926   1.428  51.717  1.00  0.00     0.103 A 
ENDROOT
BRANCH   7  11
HETATM   11  N3  UNL     1      20.231   0.160  53.431  1.00  0.00    -0.340 N 
HETATM   12  H6  UNL     1      20.159   1.080  53.947  1.00  0.00     0.167 HD
BRANCH  11  13
HETATM   13  C7  UNL     1      19.118  -0.190  52.656  1.00  0.00     0.033 C 
HETATM   14  C10 UNL     1      18.825   0.265  51.468  1.00  0.00     0.033 C 
BRANCH  13  15
HETATM   15  C8  UNL     1      18.141  -1.136  53.173  1.00  0.00     0.041 C 
HETATM   16  C9  UNL     1      18.299  -2.416  53.401  1.00  0.00     0.220 C 
HETATM   17 CL1  UNL     1      17.241  -3.655  54.014  1.00  0.00    -0.230 Cl
ENDBRANCH  13  15
BRANCH  14  18
HETATM   18  C11 UNL     1      19.526   1.234  50.610  1.00  0.00     0.252 C 
HETATM   19  F1  UNL     1      20.587   0.607  49.926  1.00  0.00    -0.251 F 
ENDBRANCH  14  18
ENDBRANCH  11  13
ENDBRANCH   7  11
BRANCH  10  20
HETATM   20  O2  UNL     1      24.023   2.316  50.656  1.00  0.00    -0.347 OA
BRANCH  20  21
HETATM   21  C15 UNL     1      23.997   3.689  50.952  1.00  0.00     0.206 C 
BRANCH  21  22
HETATM   22  C16 UNL     1      24.340   4.544  49.758  1.00  0.00     0.299 C 
BRANCH  22  23
HETATM   23  N4  UNL     1      25.667   5.050  49.778  1.00  0.00     0.090 N 
HETATM   24  C17 UNL     1      26.677   4.101  49.344  1.00  0.00     0.272 C 
HETATM   25  C18 UNL     1      27.719   4.884  48.603  1.00  0.00     0.032 C 
HETATM   26  C19 UNL     1      27.233   6.309  48.539  1.00  0.00     0.032 C 
HETATM   27  C20 UNL     1      25.747   6.146  48.807  1.00  0.00     0.272 C 
ENDBRANCH  22  23
ENDBRANCH  21  22
ENDBRANCH  20  21
ENDBRANCH  10  20
BRANCH   1  28
HETATM   28  O1  UNL     1      26.291   1.379  51.692  1.00  0.00    -0.353 OA
HETATM   29  C1  UNL     1      27.276   2.099  52.383  1.00  0.00     0.210 C 
ENDBRANCH   1  28
TORSDOF 9
ENDMDL
MODEL 5
REMARK VINA RESULT:      -7.0      2.238      2.708
REMARK  9 active torsions:
REMARK  status: ('A' for Active; 'I' for Inactive)
REMARK    1  A    between atoms: O1_2  and  C2_3 
REMARK    2  A    between atoms: C6_9  and  N3_10 
REMARK    3  A    between atoms: N3_10  and  C7_11 
REMARK    4  A    between atoms: C7_11  and  C8_12 
REMARK    5  A    between atoms: C10_15  and  C11_16 
REMARK    6  A    between atoms: C14_20  and  O2_21 
REMARK    7  A    between atoms: O2_21  and  C15_22 
REMARK    8  A    between atoms: C15_22  and  C16_23 
REMARK    9  A    between atoms: C16_23  and  N4_24 
ROOT
HETATM    1  C2  UNL     1      20.155   0.348  52.709  1.00  0.00     0.103 A 
HETATM    2  C3  UNL     1      20.505  -0.489  53.749  1.00  0.00     0.072 A 
HETATM    3  C4  UNL     1      21.786  -0.673  54.214  1.00  0.00     0.075 A 
HETATM    4  N1  UNL     1      22.177  -1.475  55.202  1.00  0.00    -0.241 NA
HETATM    5  C5  UNL     1      23.448  -1.609  55.585  1.00  0.00     0.236 A 
HETATM    6  N2  UNL     1      24.382  -0.874  54.914  1.00  0.00    -0.224 NA
HETATM    7  C6  UNL     1      24.081  -0.041  53.907  1.00  0.00     0.142 A 
HETATM    8  C12 UNL     1      22.760   0.059  53.555  1.00  0.00     0.042 A 
HETATM    9  C13 UNL     1      22.456   0.899  52.519  1.00  0.00     0.057 A 
HETATM   10  C14 UNL     1      21.171   1.074  52.064  1.00  0.00     0.103 A 
ENDROOT
BRANCH   7  11
HETATM   11  N3  UNL     1      25.204   0.582  53.363  1.00  0.00    -0.340 N 
HETATM   12  H6  UNL     1      25.224   1.468  53.941  1.00  0.00     0.167 HD
BRANCH  11  13
HETATM   13  C7  UNL     1      26.222   0.456  52.409  1.00  0.00     0.033 C 
HETATM   14  C10 UNL     1      26.529   1.323  51.482  1.00  0.00     0.033 C 
BRANCH  13  15
HETATM   15  C8  UNL     1      27.048  -0.742  52.382  1.00  0.00     0.041 C 
HETATM   16  C9  UNL     1      28.074  -1.033  53.141  1.00  0.00     0.220 C 
HETATM   17 CL1  UNL     1      29.138  -2.408  53.227  1.00  0.00    -0.230 Cl
ENDBRANCH  13  15
BRANCH  14  18
HETATM   18  C11 UNL     1      25.940   2.632  51.158  1.00  0.00     0.252 C 
HETATM   19  F1  UNL     1      24.760   2.468  50.405  1.00  0.00    -0.251 F 
ENDBRANCH  14  18
ENDBRANCH  11  13
ENDBRANCH   7  11
BRANCH  10  20
HETATM   20  O2  UNL     1      20.790   1.905  51.021  1.00  0.00    -0.347 OA
BRANCH  20  21
HETATM   21  C15 UNL     1      21.472   3.124  50.876  1.00  0.00     0.206 C 
BRANCH  21  22
HETATM   22  C16 UNL     1      20.954   4.191  51.807  1.00  0.00     0.299 C 
BRANCH  22  23
HETATM   23  N4  UNL     1      21.809   5.320  51.916  1.00  0.00     0.090 N 
HETATM   24  C17 UNL     1      23.216   4.994  52.066  1.00  0.00     0.272 C 
HETATM   25  C18 UNL     1      23.987   6.043  51.323  1.00  0.00     0.032 C 
HETATM   26  C19 UNL     1      22.976   6.940  50.655  1.00  0.00     0.032 C 
HETATM   27  C20 UNL     1      21.734   6.065  50.654  1.00  0.00     0.272 C 
ENDBRANCH  22  23
ENDBRANCH  21  22
ENDBRANCH  20  21
ENDBRANCH  10  20
BRANCH   1  28
HETATM   28  O1  UNL     1      18.879   0.520  52.257  1.00  0.00    -0.353 OA
HETATM   29  C1  UNL     1      18.146  -0.467  51.581  1.00  0.00     0.210 C 
ENDBRANCH   1  28
TORSDOF 9
ENDMDL
MODEL 6
REMARK VINA RESULT:      -7.0      2.061      2.482
REMARK  9 active torsions:
REMARK  status: ('A' for Active; 'I' for Inactive)
REMARK    1  A    between atoms: O1_2  and  C2_3 
REMARK    2  A    between atoms: C6_9  and  N3_10 
REMARK    3  A    between atoms: N3_10  and  C7_11 
REMARK    4  A    between atoms: C7_11  and  C8_12 
REMARK    5  A    between atoms: C10_15  and  C11_16 
REMARK    6  A    between atoms: C14_20  and  O2_21 
REMARK    7  A    between atoms: O2_21  and  C15_22 
REMARK    8  A    between atoms: C15_22  and  C16_23 
REMARK    9  A    between atoms: C16_23  and  N4_24 
ROOT
HETATM    1  C2  UNL     1      20.589  -0.252  53.226  1.00  0.00     0.103 A 
HETATM    2  C3  UNL     1      21.116  -0.831  54.363  1.00  0.00     0.072 A 
HETATM    3  C4  UNL     1      22.459  -0.951  54.635  1.00  0.00     0.075 A 
HETATM    4  N1  UNL     1      23.017  -1.509  55.706  1.00  0.00    -0.241 NA
HETATM    5  C5  UNL     1      24.335  -1.600  55.890  1.00  0.00     0.236 A 
HETATM    6  N2  UNL     1      25.137  -1.085  54.913  1.00  0.00    -0.224 NA
HETATM    7  C6  UNL     1      24.665  -0.504  53.800  1.00  0.00     0.142 A 
HETATM    8  C12 UNL     1      23.302  -0.438  53.663  1.00  0.00     0.042 A 
HETATM    9  C13 UNL     1      22.821   0.143  52.522  1.00  0.00     0.057 A 
HETATM   10  C14 UNL     1      21.476   0.258  52.263  1.00  0.00     0.103 A 
ENDROOT
BRANCH   7  11
HETATM   11  N3  UNL     1      25.675  -0.075  52.939  1.00  0.00    -0.340 N 
HETATM   12  H6  UNL     1      25.564  -0.778  52.158  1.00  0.00     0.167 HD
BRANCH  11  13
HETATM   13  C7  UNL     1      26.688   0.876  52.762  1.00  0.00     0.033 C 
HETATM   14  C10 UNL     1      26.542   2.088  52.299  1.00  0.00     0.033 C 
BRANCH  13  15
HETATM   15  C8  UNL     1      28.065   0.541  53.090  1.00  0.00     0.041 C 
HETATM   16  C9  UNL     1      28.553  -0.626  53.427  1.00  0.00     0.220 C 
HETATM   17 CL1  UNL     1      30.155  -1.172  53.835  1.00  0.00    -0.230 Cl
ENDBRANCH  13  15
BRANCH  14  18
HETATM   18  C11 UNL     1      25.339   2.804  51.842  1.00  0.00     0.252 C 
HETATM   19  F1  UNL     1      24.547   3.188  52.943  1.00  0.00    -0.251 F 
ENDBRANCH  14  18
ENDBRANCH  11  13
ENDBRANCH   7  11
BRANCH  10  20
HETATM   20  O2  UNL     1      20.918   0.831  51.129  1.00  0.00    -0.347 OA
BRANCH  20  21
HETATM   21  C15 UNL     1      20.957   2.231  51.020  1.00  0.00     0.206 C 
BRANCH  21  22
HETATM   22  C16 UNL     1      22.025   2.708  50.069  1.00  0.00     0.299 C 
BRANCH  22  23
HETATM   23  N4  UNL     1      22.154   4.121  50.017  1.00  0.00     0.090 N 
HETATM   24  C17 UNL     1      21.103   4.793  49.273  1.00  0.00     0.272 C 
HETATM   25  C18 UNL     1      20.836   6.091  49.974  1.00  0.00     0.032 C 
HETATM   26  C19 UNL     1      21.703   6.110  51.207  1.00  0.00     0.032 C 
HETATM   27  C20 UNL     1      22.027   4.636  51.385  1.00  0.00     0.272 C 
ENDBRANCH  22  23
ENDBRANCH  21  22
ENDBRANCH  20  21
ENDBRANCH  10  20
BRANCH   1  28
HETATM   28  O1  UNL     1      19.254  -0.141  52.968  1.00  0.00    -0.353 OA
HETATM   29  C1  UNL     1      18.343  -1.202  53.074  1.00  0.00     0.210 C 
ENDBRANCH   1  28
TORSDOF 9
ENDMDL
MODEL 7
REMARK VINA RESULT:      -6.9      2.799      5.910
REMARK  9 active torsions:
REMARK  status: ('A' for Active; 'I' for Inactive)
REMARK    1  A    between atoms: O1_2  and  C2_3 
REMARK    2  A    between atoms: C6_9  and  N3_10 
REMARK    3  A    between atoms: N3_10  and  C7_11 
REMARK    4  A    between atoms: C7_11  and  C8_12 
REMARK    5  A    between atoms: C10_15  and  C11_16 
REMARK    6  A    between atoms: C14_20  and  O2_21 
REMARK    7  A    between atoms: O2_21  and  C15_22 
REMARK    8  A    between atoms: C15_22  and  C16_23 
REMARK    9  A    between atoms: C16_23  and  N4_24 
ROOT
HETATM    1  C2  UNL     1      22.271   0.265  53.171  1.00  0.00     0.103 A 
HETATM    2  C3  UNL     1      21.143   0.952  52.770  1.00  0.00     0.072 A 
HETATM    3  C4  UNL     1      21.135   2.241  52.291  1.00  0.00     0.075 A 
HETATM    4  N1  UNL     1      20.077   2.949  51.904  1.00  0.00    -0.241 NA
HETATM    5  C5  UNL     1      20.151   4.206  51.463  1.00  0.00     0.236 A 
HETATM    6  N2  UNL     1      21.389   4.777  51.413  1.00  0.00    -0.224 NA
HETATM    7  C6  UNL     1      22.511   4.141  51.781  1.00  0.00     0.142 A 
HETATM    8  C12 UNL     1      22.377   2.851  52.227  1.00  0.00     0.042 A 
HETATM    9  C13 UNL     1      23.519   2.207  52.615  1.00  0.00     0.057 A 
HETATM   10  C14 UNL     1      23.514   0.917  53.091  1.00  0.00     0.103 A 
ENDROOT
BRANCH   7  11
HETATM   11  N3  UNL     1      23.651   4.935  51.664  1.00  0.00    -0.340 N 
HETATM   12  H6  UNL     1      23.845   5.135  52.684  1.00  0.00     0.167 HD
BRANCH  11  13
HETATM   13  C7  UNL     1      24.549   5.505  50.752  1.00  0.00     0.033 C 
HETATM   14  C10 UNL     1      25.291   4.863  49.890  1.00  0.00     0.033 C 
BRANCH  13  15
HETATM   15  C8  UNL     1      24.736   6.947  50.720  1.00  0.00     0.041 C 
HETATM   16  C9  UNL     1      25.693   7.624  50.138  1.00  0.00     0.220 C 
HETATM   17 CL1  UNL     1      26.039   9.326  50.011  1.00  0.00    -0.230 Cl
ENDBRANCH  13  15
BRANCH  14  18
HETATM   18  C11 UNL     1      25.418   3.423  49.614  1.00  0.00     0.252 C 
HETATM   19  F1  UNL     1      24.200   2.907  49.126  1.00  0.00    -0.251 F 
ENDBRANCH  14  18
ENDBRANCH  11  13
ENDBRANCH   7  11
BRANCH  10  20
HETATM   20  O2  UNL     1      24.630   0.204  53.504  1.00  0.00    -0.347 OA
BRANCH  20  21
HETATM   21  C15 UNL     1      25.815   0.366  52.767  1.00  0.00     0.206 C 
BRANCH  21  22
HETATM   22  C16 UNL     1      26.949   0.900  53.606  1.00  0.00     0.299 C 
BRANCH  22  23
HETATM   23  N4  UNL     1      27.880  -0.095  54.010  1.00  0.00     0.090 N 
HETATM   24  C17 UNL     1      27.810  -1.327  53.245  1.00  0.00     0.272 C 
HETATM   25  C18 UNL     1      29.212  -1.840  53.117  1.00  0.00     0.032 C 
HETATM   26  C19 UNL     1      30.114  -0.813  53.754  1.00  0.00     0.032 C 
HETATM   27  C20 UNL     1      29.229   0.422  53.757  1.00  0.00     0.272 C 
ENDBRANCH  22  23
ENDBRANCH  21  22
ENDBRANCH  20  21
ENDBRANCH  10  20
BRANCH   1  28
HETATM   28  O1  UNL     1      22.265  -1.014  53.646  1.00  0.00    -0.353 OA
HETATM   29  C1  UNL     1      21.169  -1.607  54.289  1.00  0.00     0.210 C 
ENDBRANCH   1  28
TORSDOF 9
ENDMDL
MODEL 8
REMARK VINA RESULT:      -6.8      3.756      5.899
REMARK  9 active torsions:
REMARK  status: ('A' for Active; 'I' for Inactive)
REMARK    1  A    between atoms: O1_2  and  C2_3 
REMARK    2  A    between atoms: C6_9  and  N3_10 
REMARK    3  A    between atoms: N3_10  and  C7_11 
REMARK    4  A    between atoms: C7_11  and  C8_12 
REMARK    5  A    between atoms: C10_15  and  C11_16 
REMARK    6  A    between atoms: C14_20  and  O2_21 
REMARK    7  A    between atoms: O2_21  and  C15_22 
REMARK    8  A    between atoms: C15_22  and  C16_23 
REMARK    9  A    between atoms: C16_23  and  N4_24 
ROOT
HETATM    1  C2  UNL     1      26.602   0.373  53.042  1.00  0.00     0.103 A 
HETATM    2  C3  UNL     1      25.999  -0.395  54.018  1.00  0.00     0.072 A 
HETATM    3  C4  UNL     1      24.641  -0.524  54.192  1.00  0.00     0.075 A 
HETATM    4  N1  UNL     1      24.013  -1.239  55.121  1.00  0.00    -0.241 NA
HETATM    5  C5  UNL     1      22.685  -1.301  55.233  1.00  0.00     0.236 A 
HETATM    6  N2  UNL     1      21.950  -0.582  54.335  1.00  0.00    -0.224 NA
HETATM    7  C6  UNL     1      22.496   0.166  53.365  1.00  0.00     0.142 A 
HETATM    8  C12 UNL     1      23.865   0.193  53.296  1.00  0.00     0.042 A 
HETATM    9  C13 UNL     1      24.421   0.967  52.315  1.00  0.00     0.057 A 
HETATM   10  C14 UNL     1      25.781   1.086  52.151  1.00  0.00     0.103 A 
ENDROOT
BRANCH   7  11
HETATM   11  N3  UNL     1      21.545   0.825  52.586  1.00  0.00    -0.340 N 
HETATM   12  H6  UNL     1      21.610   1.798  52.996  1.00  0.00     0.167 HD
BRANCH  11  13
HETATM   13  C7  UNL     1      20.623   0.665  51.544  1.00  0.00     0.033 C 
HETATM   14  C10 UNL     1      20.831   0.912  50.278  1.00  0.00     0.033 C 
BRANCH  13  15
HETATM   15  C8  UNL     1      19.275   0.198  51.831  1.00  0.00     0.041 C 
HETATM   16  C9  UNL     1      18.887  -0.606  52.789  1.00  0.00     0.220 C 
HETATM   17 CL1  UNL     1      17.333  -1.238  53.253  1.00  0.00    -0.230 Cl
ENDBRANCH  13  15
BRANCH  14  18
HETATM   18  C11 UNL     1      22.029   1.408  49.580  1.00  0.00     0.252 C 
HETATM   19  F1  UNL     1      21.989   1.045  48.218  1.00  0.00    -0.251 F 
ENDBRANCH  14  18
ENDBRANCH  11  13
ENDBRANCH   7  11
BRANCH  10  20
HETATM   20  O2  UNL     1      26.413   1.852  51.183  1.00  0.00    -0.347 OA
BRANCH  20  21
HETATM   21  C15 UNL     1      25.698   2.929  50.633  1.00  0.00     0.206 C 
BRANCH  21  22
HETATM   22  C16 UNL     1      26.535   3.762  49.697  1.00  0.00     0.299 C 
BRANCH  22  23
HETATM   23  N4  UNL     1      26.122   5.118  49.613  1.00  0.00     0.090 N 
HETATM   24  C17 UNL     1      26.921   5.935  48.716  1.00  0.00     0.272 C 
HETATM   25  C18 UNL     1      25.986   6.910  48.066  1.00  0.00     0.032 C 
HETATM   26  C19 UNL     1      24.597   6.571  48.544  1.00  0.00     0.032 C 
HETATM   27  C20 UNL     1      24.774   5.144  49.034  1.00  0.00     0.272 C 
ENDBRANCH  22  23
ENDBRANCH  21  22
ENDBRANCH  20  21
ENDBRANCH  10  20
BRANCH   1  28
HETATM   28  O1  UNL     1      27.951   0.493  52.881  1.00  0.00    -0.353 OA
HETATM   29  C1  UNL     1      28.811   1.035  53.847  1.00  0.00     0.210 C 
ENDBRANCH   1  28
TORSDOF 9
ENDMDL
MODEL 9
REMARK VINA RESULT:      -6.7      2.172      2.862
REMARK  9 active torsions:
REMARK  status: ('A' for Active; 'I' for Inactive)
REMARK    1  A    between atoms: O1_2  and  C2_3 
REMARK    2  A    between atoms: C6_9  and  N3_10 
REMARK    3  A    between atoms: N3_10  and  C7_11 
REMARK    4  A    between atoms: C7_11  and  C8_12 
REMARK    5  A    between atoms: C10_15  and  C11_16 
REMARK    6  A    between atoms: C14_20  and  O2_21 
REMARK    7  A    between atoms: O2_21  and  C15_22 
REMARK    8  A    between atoms: C15_22  and  C16_23 
REMARK    9  A    between atoms: C16_23  and  N4_24 
ROOT
HETATM    1  C2  UNL     1      20.539   2.676  52.450  1.00  0.00     0.103 A 
HETATM    2  C3  UNL     1      20.575   1.552  53.251  1.00  0.00     0.072 A 
HETATM    3  C4  UNL     1      21.686   0.767  53.456  1.00  0.00     0.075 A 
HETATM    4  N1  UNL     1      21.770  -0.329  54.206  1.00  0.00    -0.241 NA
HETATM    5  C5  UNL     1      22.887  -1.046  54.342  1.00  0.00     0.236 A 
HETATM    6  N2  UNL     1      23.992  -0.613  53.668  1.00  0.00    -0.224 NA
HETATM    7  C6  UNL     1      24.001   0.479  52.890  1.00  0.00     0.142 A 
HETATM    8  C12 UNL     1      22.826   1.179  52.786  1.00  0.00     0.042 A 
HETATM    9  C13 UNL     1      22.833   2.286  51.982  1.00  0.00     0.057 A 
HETATM   10  C14 UNL     1      21.716   3.062  51.786  1.00  0.00     0.103 A 
ENDROOT
BRANCH   7  11
HETATM   11  N3  UNL     1      25.238   0.708  52.287  1.00  0.00    -0.340 N 
HETATM   12  H6  UNL     1      25.106   0.175  51.383  1.00  0.00     0.167 HD
BRANCH  11  13
HETATM   13  C7  UNL     1      26.477   1.341  52.443  1.00  0.00     0.033 C 
HETATM   14  C10 UNL     1      27.360   1.100  53.375  1.00  0.00     0.033 C 
BRANCH  13  15
HETATM   15  C8  UNL     1      26.878   2.393  51.521  1.00  0.00     0.041 C 
HETATM   16  C9  UNL     1      26.212   2.866  50.498  1.00  0.00     0.220 C 
HETATM   17 CL1  UNL     1      26.555   4.107  49.327  1.00  0.00    -0.230 Cl
ENDBRANCH  13  15
BRANCH  14  18
HETATM   18  C11 UNL     1      27.339   0.145  54.495  1.00  0.00     0.252 C 
HETATM   19  F1  UNL     1      26.398   0.545  55.465  1.00  0.00    -0.251 F 
ENDBRANCH  14  18
ENDBRANCH  11  13
ENDBRANCH   7  11
BRANCH  10  20
HETATM   20  O2  UNL     1      21.649   4.193  50.986  1.00  0.00    -0.347 OA
BRANCH  20  21
HETATM   21  C15 UNL     1      22.330   5.341  51.422  1.00  0.00     0.206 C 
BRANCH  21  22
HETATM   22  C16 UNL     1      21.787   6.606  50.806  1.00  0.00     0.299 C 
BRANCH  22  23
HETATM   23  N4  UNL     1      22.761   7.363  50.102  1.00  0.00     0.090 N 
HETATM   24  C17 UNL     1      23.898   7.774  50.907  1.00  0.00     0.272 C 
HETATM   25  C18 UNL     1      25.102   7.725  50.015  1.00  0.00     0.032 C 
HETATM   26  C19 UNL     1      24.642   7.180  48.687  1.00  0.00     0.032 C 
HETATM   27  C20 UNL     1      23.335   6.502  49.061  1.00  0.00     0.272 C 
ENDBRANCH  22  23
ENDBRANCH  21  22
ENDBRANCH  20  21
ENDBRANCH  10  20
BRANCH   1  28
HETATM   28  O1  UNL     1      19.429   3.444  52.254  1.00  0.00    -0.353 OA
HETATM   29  C1  UNL     1      18.291   3.016  51.555  1.00  0.00     0.210 C 
ENDBRANCH   1  28
TORSDOF 9
ENDMDL
