MODEL 1
REMARK VINA RESULT:      -9.6      0.000      0.000
REMARK  4 active torsions:
REMARK  status: ('A' for Active; 'I' for Inactive)
REMARK    1  A    between atoms: C5_5  and  C6_6 
REMARK       I    between atoms: C6_6  and  N1_8 
REMARK    2  A    between atoms: N1_8  and  C7_9 
REMARK    3  A    between atoms: C12_16  and  N4_17 
REMARK    4  A    between atoms: N5_31  and  O2_32 
ROOT
HETATM    1  C7  UNL     1      22.921   1.354  51.546  1.00  0.00     0.035 A 
HETATM    2  C8  UNL     1      21.715   0.843  51.968  1.00  0.00     0.032 A 
HETATM    3  C9  UNL     1      21.547   0.006  53.049  1.00  0.00     0.035 A 
HETATM    4  C10 UNL     1      22.663  -0.357  53.773  1.00  0.00     0.072 A 
HETATM    5  N2  UNL     1      22.593  -1.173  54.854  1.00  0.00    -0.241 NA
HETATM    6  C11 UNL     1      23.710  -1.492  55.529  1.00  0.00     0.236 A 
HETATM    7  N3  UNL     1      24.919  -1.005  55.139  1.00  0.00    -0.224 NA
HETATM    8  C12 UNL     1      25.030  -0.181  54.055  1.00  0.00     0.140 A 
HETATM    9  C19 UNL     1      23.877   0.139  53.373  1.00  0.00     0.041 A 
HETATM   10  C20 UNL     1      24.012   0.971  52.291  1.00  0.00     0.047 A 
ENDROOT
BRANCH   1  11
HETATM   11  N1  UNL     1      23.122   2.214  50.441  1.00  0.00    -0.327 N 
HETATM   12  C6  UNL     1      22.796   3.579  50.243  1.00  0.00     0.226 C 
HETATM   13  O1  UNL     1      22.225   4.150  51.208  1.00  0.00    -0.273 OA
HETATM   14  H10 UNL     1      23.592   1.826  49.583  1.00  0.00     0.169 HD
BRANCH  12  15
HETATM   15  C5  UNL     1      23.087   4.320  49.007  1.00  0.00     0.083 C 
HETATM   16  C4  UNL     1      22.249   5.520  48.790  1.00  0.00     0.046 C 
HETATM   17  C2  UNL     1      22.923   6.658  48.115  1.00  0.00     0.048 C 
HETATM   18  C1  UNL     1      22.216   7.974  48.472  1.00  0.00     0.040 C 
HETATM   19  C3  UNL     1      22.732   6.530  46.596  1.00  0.00     0.040 C 
HETATM   20  N5  UNL     1      24.302   6.841  48.339  1.00  0.00    -0.278 N 
HETATM   21  C22 UNL     1      24.978   5.963  49.218  1.00  0.00     0.048 C 
HETATM   22  C21 UNL     1      24.558   4.542  48.920  1.00  0.00     0.046 C 
HETATM   23  C23 UNL     1      26.464   6.052  48.922  1.00  0.00     0.040 C 
HETATM   24  C24 UNL     1      24.806   6.304  50.681  1.00  0.00     0.040 C 
BRANCH  20  25
HETATM   25  O2  UNL     1      25.030   7.290  47.315  1.00  0.00    -0.291 OA
HETATM   26  H30 UNL     1      25.872   7.723  47.598  1.00  0.00     0.244 HD
ENDBRANCH  20  25
ENDBRANCH  12  15
ENDBRANCH   1  11
BRANCH   8  27
HETATM   27  N4  UNL     1      26.375   0.238  53.744  1.00  0.00    -0.358 N 
HETATM   28  C13 UNL     1      26.585   1.664  53.565  1.00  0.00     0.152 C 
HETATM   29  C14 UNL     1      27.914   2.005  54.129  1.00  0.00    -0.004 C 
HETATM   30  C15 UNL     1      29.082   1.388  54.109  1.00  0.00     0.039 C 
HETATM   31  C16 UNL     1      29.372   0.108  53.467  1.00  0.00     0.114 C 
HETATM   32  F1  UNL     1      30.634  -0.040  53.000  1.00  0.00    -0.206 F 
HETATM   33  C17 UNL     1      28.482  -0.866  53.334  1.00  0.00     0.035 C 
HETATM   34  C18 UNL     1      27.067  -1.013  53.725  1.00  0.00     0.155 C 
ENDBRANCH   8  27
TORSDOF 4
ENDMDL
MODEL 2
REMARK VINA RESULT:      -9.5      1.427      2.157
REMARK  4 active torsions:
REMARK  status: ('A' for Active; 'I' for Inactive)
REMARK    1  A    between atoms: C5_5  and  C6_6 
REMARK       I    between atoms: C6_6  and  N1_8 
REMARK    2  A    between atoms: N1_8  and  C7_9 
REMARK    3  A    between atoms: C12_16  and  N4_17 
REMARK    4  A    between atoms: N5_31  and  O2_32 
ROOT
HETATM    1  C7  UNL     1      21.917   2.287  52.567  1.00  0.00     0.035 A 
HETATM    2  C8  UNL     1      20.723   1.778  53.027  1.00  0.00     0.032 A 
HETATM    3  C9  UNL     1      20.593   0.643  53.797  1.00  0.00     0.035 A 
HETATM    4  C10 UNL     1      21.736  -0.047  54.141  1.00  0.00     0.072 A 
HETATM    5  N2  UNL     1      21.705  -1.171  54.899  1.00  0.00    -0.241 NA
HETATM    6  C11 UNL     1      22.848  -1.803  55.211  1.00  0.00     0.236 A 
HETATM    7  N3  UNL     1      24.046  -1.328  54.773  1.00  0.00    -0.224 NA
HETATM    8  C12 UNL     1      24.118  -0.199  54.007  1.00  0.00     0.140 A 
HETATM    9  C19 UNL     1      22.938   0.440  53.695  1.00  0.00     0.041 A 
HETATM   10  C20 UNL     1      23.035   1.573  52.930  1.00  0.00     0.047 A 
ENDROOT
BRANCH   1  11
HETATM   11  N1  UNL     1      22.079   3.448  51.777  1.00  0.00    -0.327 N 
HETATM   12  C6  UNL     1      22.750   4.671  52.031  1.00  0.00     0.226 C 
HETATM   13  O1  UNL     1      23.308   4.764  53.154  1.00  0.00    -0.273 OA
HETATM   14  H10 UNL     1      21.644   3.466  50.818  1.00  0.00     0.169 HD
BRANCH  12  15
HETATM   15  C5  UNL     1      22.814   5.785  51.073  1.00  0.00     0.083 C 
HETATM   16  C4  UNL     1      24.117   6.483  51.020  1.00  0.00     0.046 C 
HETATM   17  C2  UNL     1      24.516   6.993  49.684  1.00  0.00     0.048 C 
HETATM   18  C1  UNL     1      26.044   7.135  49.610  1.00  0.00     0.040 C 
HETATM   19  C3  UNL     1      23.998   8.429  49.516  1.00  0.00     0.040 C 
HETATM   20  N5  UNL     1      24.100   6.274  48.546  1.00  0.00    -0.278 N 
HETATM   21  C22 UNL     1      23.355   5.083  48.721  1.00  0.00     0.048 C 
HETATM   22  C21 UNL     1      22.284   5.317  49.762  1.00  0.00     0.046 C 
HETATM   23  C23 UNL     1      22.639   4.780  47.417  1.00  0.00     0.040 C 
HETATM   24  C24 UNL     1      24.199   3.871  49.045  1.00  0.00     0.040 C 
BRANCH  20  25
HETATM   25  O2  UNL     1      23.791   6.980  47.458  1.00  0.00    -0.291 OA
HETATM   26  H30 UNL     1      24.585   7.268  46.943  1.00  0.00     0.244 HD
ENDBRANCH  20  25
ENDBRANCH  12  15
ENDBRANCH   1  11
BRANCH   8  27
HETATM   27  N4  UNL     1      25.450   0.173  53.595  1.00  0.00    -0.358 N 
HETATM   28  C13 UNL     1      25.639   0.445  52.181  1.00  0.00     0.152 C 
HETATM   29  C14 UNL     1      26.606   1.563  52.056  1.00  0.00    -0.004 C 
HETATM   30  C15 UNL     1      27.713   1.868  52.709  1.00  0.00     0.039 C 
HETATM   31  C16 UNL     1      28.305   1.109  53.808  1.00  0.00     0.114 C 
HETATM   32  F1  UNL     1      29.654   1.171  53.903  1.00  0.00    -0.206 F 
HETATM   33  C17 UNL     1      27.597   0.396  54.674  1.00  0.00     0.035 C 
HETATM   34  C18 UNL     1      26.155   0.132  54.838  1.00  0.00     0.155 C 
ENDBRANCH   8  27
TORSDOF 4
ENDMDL
MODEL 3
REMARK VINA RESULT:      -9.5      1.811      2.879
REMARK  4 active torsions:
REMARK  status: ('A' for Active; 'I' for Inactive)
REMARK    1  A    between atoms: C5_5  and  C6_6 
REMARK       I    between atoms: C6_6  and  N1_8 
REMARK    2  A    between atoms: N1_8  and  C7_9 
REMARK    3  A    between atoms: C12_16  and  N4_17 
REMARK    4  A    between atoms: N5_31  and  O2_32 
ROOT
HETATM    1  C7  UNL     1      22.785   3.693  52.230  1.00  0.00     0.035 A 
HETATM    2  C8  UNL     1      21.431   3.442  52.230  1.00  0.00     0.032 A 
HETATM    3  C9  UNL     1      20.854   2.224  52.514  1.00  0.00     0.035 A 
HETATM    4  C10 UNL     1      21.682   1.167  52.824  1.00  0.00     0.072 A 
HETATM    5  N2  UNL     1      21.204  -0.067  53.121  1.00  0.00    -0.241 NA
HETATM    6  C11 UNL     1      22.053  -1.064  53.422  1.00  0.00     0.236 A 
HETATM    7  N3  UNL     1      23.397  -0.851  53.432  1.00  0.00    -0.224 NA
HETATM    8  C12 UNL     1      23.917   0.378  53.137  1.00  0.00     0.140 A 
HETATM    9  C19 UNL     1      23.035   1.391  52.831  1.00  0.00     0.041 A 
HETATM   10  C20 UNL     1      23.580   2.616  52.544  1.00  0.00     0.047 A 
ENDROOT
BRANCH   1  11
HETATM   11  N1  UNL     1      23.403   4.932  51.943  1.00  0.00    -0.327 N 
HETATM   12  C6  UNL     1      24.149   5.371  50.820  1.00  0.00     0.226 C 
HETATM   13  O1  UNL     1      24.301   4.526  49.901  1.00  0.00    -0.273 OA
HETATM   14  H10 UNL     1      23.333   5.705  52.654  1.00  0.00     0.169 HD
BRANCH  12  15
HETATM   15  C5  UNL     1      24.725   6.718  50.694  1.00  0.00     0.083 C 
HETATM   16  C4  UNL     1      25.953   6.794  49.873  1.00  0.00     0.046 C 
HETATM   17  C2  UNL     1      26.119   8.041  49.083  1.00  0.00     0.048 C 
HETATM   18  C1  UNL     1      27.032   7.780  47.876  1.00  0.00     0.040 C 
HETATM   19  C3  UNL     1      26.891   9.071  49.921  1.00  0.00     0.040 C 
HETATM   20  N5  UNL     1      24.960   8.686  48.609  1.00  0.00    -0.278 N 
HETATM   21  C22 UNL     1      23.695   8.107  48.870  1.00  0.00     0.048 C 
HETATM   22  C21 UNL     1      23.641   7.667  50.315  1.00  0.00     0.046 C 
HETATM   23  C23 UNL     1      22.640   9.185  48.700  1.00  0.00     0.040 C 
HETATM   24  C24 UNL     1      23.326   6.986  47.926  1.00  0.00     0.040 C 
BRANCH  20  25
HETATM   25  O2  UNL     1      24.976  10.019  48.575  1.00  0.00    -0.291 OA
HETATM   26  H30 UNL     1      24.571  10.434  49.375  1.00  0.00     0.244 HD
ENDBRANCH  20  25
ENDBRANCH  12  15
ENDBRANCH   1  11
BRANCH   8  27
HETATM   27  N4  UNL     1      25.358   0.450  53.162  1.00  0.00    -0.358 N 
HETATM   28  C13 UNL     1      26.016   0.726  51.897  1.00  0.00     0.152 C 
HETATM   29  C14 UNL     1      27.185   1.597  52.170  1.00  0.00    -0.004 C 
HETATM   30  C15 UNL     1      28.083   1.615  53.139  1.00  0.00     0.039 C 
HETATM   31  C16 UNL     1      28.146   0.699  54.276  1.00  0.00     0.114 C 
HETATM   32  F1  UNL     1      29.386   0.447  54.756  1.00  0.00    -0.206 F 
HETATM   33  C17 UNL     1      27.079   0.134  54.825  1.00  0.00     0.035 C 
HETATM   34  C18 UNL     1      25.632   0.202  54.543  1.00  0.00     0.155 C 
ENDBRANCH   8  27
TORSDOF 4
ENDMDL
MODEL 4
REMARK VINA RESULT:      -9.3      3.981      7.455
REMARK  4 active torsions:
REMARK  status: ('A' for Active; 'I' for Inactive)
REMARK    1  A    between atoms: C5_5  and  C6_6 
REMARK       I    between atoms: C6_6  and  N1_8 
REMARK    2  A    between atoms: N1_8  and  C7_9 
REMARK    3  A    between atoms: C12_16  and  N4_17 
REMARK    4  A    between atoms: N5_31  and  O2_32 
ROOT
HETATM    1  C7  UNL     1      22.427  -0.167  53.959  1.00  0.00     0.035 A 
HETATM    2  C8  UNL     1      21.992  -1.296  54.615  1.00  0.00     0.032 A 
HETATM    3  C9  UNL     1      20.748  -1.867  54.464  1.00  0.00     0.035 A 
HETATM    4  C10 UNL     1      19.860  -1.274  53.591  1.00  0.00     0.072 A 
HETATM    5  N2  UNL     1      18.616  -1.769  53.374  1.00  0.00    -0.241 NA
HETATM    6  C11 UNL     1      17.790  -1.157  52.510  1.00  0.00     0.236 A 
HETATM    7  N3  UNL     1      18.188  -0.038  51.844  1.00  0.00    -0.224 NA
HETATM    8  C12 UNL     1      19.433   0.490  52.036  1.00  0.00     0.140 A 
HETATM    9  C19 UNL     1      20.270  -0.149  52.925  1.00  0.00     0.041 A 
HETATM   10  C20 UNL     1      21.516   0.397  53.098  1.00  0.00     0.047 A 
ENDROOT
BRANCH   1  11
HETATM   11  N1  UNL     1      23.697   0.440  54.096  1.00  0.00    -0.327 N 
HETATM   12  C6  UNL     1      24.919  -0.048  54.624  1.00  0.00     0.226 C 
HETATM   13  O1  UNL     1      24.895  -1.230  55.053  1.00  0.00    -0.273 OA
HETATM   14  H10 UNL     1      23.817   1.432  53.766  1.00  0.00     0.169 HD
BRANCH  12  15
HETATM   15  C5  UNL     1      26.159   0.741  54.685  1.00  0.00     0.083 C 
HETATM   16  C4  UNL     1      27.402  -0.060  54.729  1.00  0.00     0.046 C 
HETATM   17  C2  UNL     1      28.571   0.534  54.031  1.00  0.00     0.048 C 
HETATM   18  C1  UNL     1      29.558  -0.571  53.625  1.00  0.00     0.040 C 
HETATM   19  C3  UNL     1      29.364   1.400  55.021  1.00  0.00     0.040 C 
HETATM   20  N5  UNL     1      28.331   1.329  52.893  1.00  0.00    -0.278 N 
HETATM   21  C22 UNL     1      27.001   1.501  52.442  1.00  0.00     0.048 C 
HETATM   22  C21 UNL     1      26.109   1.789  53.628  1.00  0.00     0.046 C 
HETATM   23  C23 UNL     1      26.960   2.731  51.553  1.00  0.00     0.040 C 
HETATM   24  C24 UNL     1      26.479   0.349  51.613  1.00  0.00     0.040 C 
BRANCH  20  25
HETATM   25  O2  UNL     1      29.133   2.378  52.704  1.00  0.00    -0.291 OA
HETATM   26  H30 UNL     1      28.689   3.244  52.880  1.00  0.00     0.244 HD
ENDBRANCH  20  25
ENDBRANCH  12  15
ENDBRANCH   1  11
BRANCH   8  27
HETATM   27  N4  UNL     1      19.708   1.690  51.283  1.00  0.00    -0.358 N 
HETATM   28  C13 UNL     1      19.447   2.951  51.954  1.00  0.00     0.152 C 
HETATM   29  C14 UNL     1      20.497   3.914  51.541  1.00  0.00    -0.004 C 
HETATM   30  C15 UNL     1      21.091   4.152  50.385  1.00  0.00     0.039 C 
HETATM   31  C16 UNL     1      20.833   3.463  49.123  1.00  0.00     0.114 C 
HETATM   32  F1  UNL     1      21.010   4.205  48.005  1.00  0.00    -0.206 F 
HETATM   33  C17 UNL     1      20.449   2.196  49.042  1.00  0.00     0.035 C 
HETATM   34  C18 UNL     1      20.176   1.149  50.045  1.00  0.00     0.155 C 
ENDBRANCH   8  27
TORSDOF 4
ENDMDL
MODEL 5
REMARK VINA RESULT:      -9.3      4.566      8.807
REMARK  4 active torsions:
REMARK  status: ('A' for Active; 'I' for Inactive)
REMARK    1  A    between atoms: C5_5  and  C6_6 
REMARK       I    between atoms: C6_6  and  N1_8 
REMARK    2  A    between atoms: N1_8  and  C7_9 
REMARK    3  A    between atoms: C12_16  and  N4_17 
REMARK    4  A    between atoms: N5_31  and  O2_32 
ROOT
HETATM    1  C7  UNL     1      27.604   5.612  48.607  1.00  0.00     0.035 A 
HETATM    2  C8  UNL     1      26.889   6.755  48.330  1.00  0.00     0.032 A 
HETATM    3  C9  UNL     1      27.387   7.859  47.677  1.00  0.00     0.035 A 
HETATM    4  C10 UNL     1      28.702   7.834  47.261  1.00  0.00     0.072 A 
HETATM    5  N2  UNL     1      29.276   8.873  46.606  1.00  0.00    -0.241 NA
HETATM    6  C11 UNL     1      30.560   8.796  46.216  1.00  0.00     0.236 A 
HETATM    7  N3  UNL     1      31.297   7.681  46.474  1.00  0.00    -0.224 NA
HETATM    8  C12 UNL     1      30.753   6.614  47.131  1.00  0.00     0.140 A 
HETATM    9  C19 UNL     1      29.436   6.706  47.523  1.00  0.00     0.041 A 
HETATM   10  C20 UNL     1      28.911   5.621  48.177  1.00  0.00     0.047 A 
ENDROOT
BRANCH   1  11
HETATM   11  N1  UNL     1      27.118   4.464  49.276  1.00  0.00    -0.327 N 
HETATM   12  C6  UNL     1      25.799   3.998  49.502  1.00  0.00     0.226 C 
HETATM   13  O1  UNL     1      24.879   4.715  49.033  1.00  0.00    -0.273 OA
HETATM   14  H10 UNL     1      27.815   3.802  49.704  1.00  0.00     0.169 HD
BRANCH  12  15
HETATM   15  C5  UNL     1      25.481   2.761  50.231  1.00  0.00     0.083 C 
HETATM   16  C4  UNL     1      26.318   2.512  51.426  1.00  0.00     0.046 C 
HETATM   17  C2  UNL     1      25.632   1.842  52.560  1.00  0.00     0.048 C 
HETATM   18  C1  UNL     1      26.350   2.169  53.877  1.00  0.00     0.040 C 
HETATM   19  C3  UNL     1      25.787   0.321  52.416  1.00  0.00     0.040 C 
HETATM   20  N5  UNL     1      24.259   2.095  52.749  1.00  0.00    -0.278 N 
HETATM   21  C22 UNL     1      23.600   3.000  51.882  1.00  0.00     0.048 C 
HETATM   22  C21 UNL     1      24.009   2.706  50.457  1.00  0.00     0.046 C 
HETATM   23  C23 UNL     1      22.108   2.737  51.973  1.00  0.00     0.040 C 
HETATM   24  C24 UNL     1      23.808   4.454  52.237  1.00  0.00     0.040 C 
BRANCH  20  25
HETATM   25  O2  UNL     1      23.508   1.085  53.189  1.00  0.00    -0.291 OA
HETATM   26  H30 UNL     1      23.748   0.790  54.102  1.00  0.00     0.244 HD
ENDBRANCH  20  25
ENDBRANCH  12  15
ENDBRANCH   1  11
BRANCH   8  27
HETATM   27  N4  UNL     1      31.658   5.512  47.355  1.00  0.00    -0.358 N 
HETATM   28  C13 UNL     1      31.181   4.194  46.977  1.00  0.00     0.152 C 
HETATM   29  C14 UNL     1      32.330   3.432  46.428  1.00  0.00    -0.004 C 
HETATM   30  C15 UNL     1      33.601   3.350  46.779  1.00  0.00     0.039 C 
HETATM   31  C16 UNL     1      34.238   4.051  47.891  1.00  0.00     0.114 C 
HETATM   32  F1  UNL     1      35.273   3.404  48.475  1.00  0.00    -0.206 F 
HETATM   33  C17 UNL     1      33.852   5.243  48.326  1.00  0.00     0.035 C 
HETATM   34  C18 UNL     1      32.790   6.182  47.917  1.00  0.00     0.155 C 
ENDBRANCH   8  27
TORSDOF 4
ENDMDL
MODEL 6
REMARK VINA RESULT:      -9.2      2.843      7.989
REMARK  4 active torsions:
REMARK  status: ('A' for Active; 'I' for Inactive)
REMARK    1  A    between atoms: C5_5  and  C6_6 
REMARK       I    between atoms: C6_6  and  N1_8 
REMARK    2  A    between atoms: N1_8  and  C7_9 
REMARK    3  A    between atoms: C12_16  and  N4_17 
REMARK    4  A    between atoms: N5_31  and  O2_32 
ROOT
HETATM    1  C7  UNL     1      23.252   3.024  49.853  1.00  0.00     0.035 A 
HETATM    2  C8  UNL     1      22.139   2.629  49.147  1.00  0.00     0.032 A 
HETATM    3  C9  UNL     1      21.591   3.316  48.087  1.00  0.00     0.035 A 
HETATM    4  C10 UNL     1      22.192   4.492  47.691  1.00  0.00     0.072 A 
HETATM    5  N2  UNL     1      21.726   5.233  46.655  1.00  0.00    -0.241 NA
HETATM    6  C11 UNL     1      22.352   6.369  46.305  1.00  0.00     0.236 A 
HETATM    7  N3  UNL     1      23.456   6.789  46.982  1.00  0.00    -0.224 NA
HETATM    8  C12 UNL     1      23.955   6.070  48.031  1.00  0.00     0.140 A 
HETATM    9  C19 UNL     1      23.304   4.907  48.378  1.00  0.00     0.041 A 
HETATM   10  C20 UNL     1      23.826   4.200  49.430  1.00  0.00     0.047 A 
ENDROOT
BRANCH   1  11
HETATM   11  N1  UNL     1      23.835   2.338  50.944  1.00  0.00    -0.327 N 
HETATM   12  C6  UNL     1      23.880   2.642  52.328  1.00  0.00     0.226 C 
HETATM   13  O1  UNL     1      23.305   3.706  52.672  1.00  0.00    -0.273 OA
HETATM   14  H10 UNL     1      24.341   1.435  50.755  1.00  0.00     0.169 HD
BRANCH  12  15
HETATM   15  C5  UNL     1      24.543   1.796  53.332  1.00  0.00     0.083 C 
HETATM   16  C4  UNL     1      24.658   0.368  52.962  1.00  0.00     0.046 C 
HETATM   17  C2  UNL     1      25.884  -0.320  53.439  1.00  0.00     0.048 C 
HETATM   18  C1  UNL     1      26.190  -1.530  52.543  1.00  0.00     0.040 C 
HETATM   19  C3  UNL     1      25.613  -0.935  54.820  1.00  0.00     0.040 C 
HETATM   20  N5  UNL     1      27.068   0.435  53.553  1.00  0.00    -0.278 N 
HETATM   21  C22 UNL     1      27.052   1.800  53.178  1.00  0.00     0.048 C 
HETATM   22  C21 UNL     1      25.814   2.455  53.745  1.00  0.00     0.046 C 
HETATM   23  C23 UNL     1      28.244   2.480  53.826  1.00  0.00     0.040 C 
HETATM   24  C24 UNL     1      27.177   2.029  51.689  1.00  0.00     0.040 C 
BRANCH  20  25
HETATM   25  O2  UNL     1      27.886   0.135  54.562  1.00  0.00    -0.291 OA
HETATM   26  H30 UNL     1      27.517   0.375  55.447  1.00  0.00     0.244 HD
ENDBRANCH  20  25
ENDBRANCH  12  15
ENDBRANCH   1  11
BRANCH   8  27
HETATM   27  N4  UNL     1      25.113   6.649  48.668  1.00  0.00    -0.358 N 
HETATM   28  C13 UNL     1      26.369   5.941  48.496  1.00  0.00     0.152 C 
HETATM   29  C14 UNL     1      27.449   6.950  48.372  1.00  0.00    -0.004 C 
HETATM   30  C15 UNL     1      27.678   8.099  48.983  1.00  0.00     0.039 C 
HETATM   31  C16 UNL     1      26.849   8.705  50.022  1.00  0.00     0.114 C 
HETATM   32  F1  UNL     1      27.510   9.460  50.931  1.00  0.00    -0.206 F 
HETATM   33  C17 UNL     1      25.535   8.546  50.100  1.00  0.00     0.035 C 
HETATM   34  C18 UNL     1      24.549   7.807  49.289  1.00  0.00     0.155 C 
ENDBRANCH   8  27
TORSDOF 4
ENDMDL
MODEL 7
REMARK VINA RESULT:      -9.0      4.081      8.810
REMARK  4 active torsions:
REMARK  status: ('A' for Active; 'I' for Inactive)
REMARK    1  A    between atoms: C5_5  and  C6_6 
REMARK       I    between atoms: C6_6  and  N1_8 
REMARK    2  A    between atoms: N1_8  and  C7_9 
REMARK    3  A    between atoms: C12_16  and  N4_17 
REMARK    4  A    between atoms: N5_31  and  O2_32 
ROOT
HETATM    1  C7  UNL     1      25.005   3.332  49.754  1.00  0.00     0.035 A 
HETATM    2  C8  UNL     1      26.375   3.285  49.626  1.00  0.00     0.032 A 
HETATM    3  C9  UNL     1      27.159   4.309  49.146  1.00  0.00     0.035 A 
HETATM    4  C10 UNL     1      26.540   5.479  48.760  1.00  0.00     0.072 A 
HETATM    5  N2  UNL     1      27.231   6.543  48.280  1.00  0.00    -0.241 NA
HETATM    6  C11 UNL     1      26.581   7.663  47.923  1.00  0.00     0.236 A 
HETATM    7  N3  UNL     1      25.227   7.744  48.036  1.00  0.00    -0.224 NA
HETATM    8  C12 UNL     1      24.496   6.694  48.515  1.00  0.00     0.140 A 
HETATM    9  C19 UNL     1      25.176   5.553  48.878  1.00  0.00     0.041 A 
HETATM   10  C20 UNL     1      24.422   4.514  49.360  1.00  0.00     0.047 A 
ENDROOT
BRANCH   1  11
HETATM   11  N1  UNL     1      24.176   2.296  50.243  1.00  0.00    -0.327 N 
HETATM   12  C6  UNL     1      23.758   1.969  51.558  1.00  0.00     0.226 C 
HETATM   13  O1  UNL     1      24.188   2.721  52.470  1.00  0.00    -0.273 OA
HETATM   14  H10 UNL     1      23.768   1.613  49.554  1.00  0.00     0.169 HD
BRANCH  12  15
HETATM   15  C5  UNL     1      22.879   0.835  51.880  1.00  0.00     0.083 C 
HETATM   16  C4  UNL     1      22.530   0.708  53.312  1.00  0.00     0.046 C 
HETATM   17  C2  UNL     1      21.166   0.193  53.596  1.00  0.00     0.048 C 
HETATM   18  C1  UNL     1      20.708   0.656  54.986  1.00  0.00     0.040 C 
HETATM   19  C3  UNL     1      21.217  -1.338  53.707  1.00  0.00     0.040 C 
HETATM   20  N5  UNL     1      20.137   0.502  52.684  1.00  0.00    -0.278 N 
HETATM   21  C22 UNL     1      20.432   1.314  51.563  1.00  0.00     0.048 C 
HETATM   22  C21 UNL     1      21.725   0.844  50.938  1.00  0.00     0.046 C 
HETATM   23  C23 UNL     1      19.342   1.101  50.528  1.00  0.00     0.040 C 
HETATM   24  C24 UNL     1      20.459   2.794  51.866  1.00  0.00     0.040 C 
BRANCH  20  25
HETATM   25  O2  UNL     1      19.206  -0.431  52.478  1.00  0.00    -0.291 OA
HETATM   26  H30 UNL     1      19.581  -1.340  52.381  1.00  0.00     0.244 HD
ENDBRANCH  20  25
ENDBRANCH  12  15
ENDBRANCH   1  11
BRANCH   8  27
HETATM   27  N4  UNL     1      23.070   6.914  48.556  1.00  0.00    -0.358 N 
HETATM   28  C13 UNL     1      22.287   6.289  47.506  1.00  0.00     0.152 C 
HETATM   29  C14 UNL     1      21.004   5.840  48.098  1.00  0.00    -0.004 C 
HETATM   30  C15 UNL     1      20.187   6.381  48.985  1.00  0.00     0.039 C 
HETATM   31  C16 UNL     1      20.368   7.667  49.655  1.00  0.00     0.114 C 
HETATM   32  F1  UNL     1      19.229   8.321  49.983  1.00  0.00    -0.206 F 
HETATM   33  C17 UNL     1      21.554   8.188  49.936  1.00  0.00     0.035 C 
HETATM   34  C18 UNL     1      22.943   7.739  49.717  1.00  0.00     0.155 C 
ENDBRANCH   8  27
TORSDOF 4
ENDMDL
MODEL 8
REMARK VINA RESULT:      -8.9      3.936      6.931
REMARK  4 active torsions:
REMARK  status: ('A' for Active; 'I' for Inactive)
REMARK    1  A    between atoms: C5_5  and  C6_6 
REMARK       I    between atoms: C6_6  and  N1_8 
REMARK    2  A    between atoms: N1_8  and  C7_9 
REMARK    3  A    between atoms: C12_16  and  N4_17 
REMARK    4  A    between atoms: N5_31  and  O2_32 
ROOT
HETATM    1  C7  UNL     1      25.704   7.434  49.997  1.00  0.00     0.035 A 
HETATM    2  C8  UNL     1      24.758   8.422  49.845  1.00  0.00     0.032 A 
HETATM    3  C9  UNL     1      23.413   8.274  50.099  1.00  0.00     0.035 A 
HETATM    4  C10 UNL     1      22.964   7.048  50.541  1.00  0.00     0.072 A 
HETATM    5  N2  UNL     1      21.658   6.810  50.821  1.00  0.00    -0.241 NA
HETATM    6  C11 UNL     1      21.272   5.599  51.255  1.00  0.00     0.236 A 
HETATM    7  N3  UNL     1      22.180   4.598  51.416  1.00  0.00    -0.224 NA
HETATM    8  C12 UNL     1      23.505   4.799  51.144  1.00  0.00     0.140 A 
HETATM    9  C19 UNL     1      23.886   6.046  50.702  1.00  0.00     0.041 A 
HETATM   10  C20 UNL     1      25.220   6.225  50.439  1.00  0.00     0.047 A 
ENDROOT
BRANCH   1  11
HETATM   11  N1  UNL     1      27.090   7.558  49.743  1.00  0.00    -0.327 N 
HETATM   12  C6  UNL     1      27.822   7.594  48.530  1.00  0.00     0.226 C 
HETATM   13  O1  UNL     1      27.141   7.501  47.478  1.00  0.00    -0.273 OA
HETATM   14  H10 UNL     1      27.744   7.641  50.564  1.00  0.00     0.169 HD
BRANCH  12  15
HETATM   15  C5  UNL     1      29.285   7.731  48.460  1.00  0.00     0.083 C 
HETATM   16  C4  UNL     1      29.866   7.500  47.119  1.00  0.00     0.046 C 
HETATM   17  C2  UNL     1      31.054   8.326  46.786  1.00  0.00     0.048 C 
HETATM   18  C1  UNL     1      31.192   8.457  45.262  1.00  0.00     0.040 C 
HETATM   19  C3  UNL     1      32.326   7.579  47.215  1.00  0.00     0.040 C 
HETATM   20  N5  UNL     1      31.138   9.622  47.333  1.00  0.00    -0.278 N 
HETATM   21  C22 UNL     1      30.078  10.095  48.144  1.00  0.00     0.048 C 
HETATM   22  C21 UNL     1      29.676   9.011  49.116  1.00  0.00     0.046 C 
HETATM   23  C23 UNL     1      30.601  11.255  48.972  1.00  0.00     0.040 C 
HETATM   24  C24 UNL     1      28.894  10.619  47.363  1.00  0.00     0.040 C 
BRANCH  20  25
HETATM   25  O2  UNL     1      32.350  10.063  47.672  1.00  0.00    -0.291 OA
HETATM   26  H30 UNL     1      32.800  10.561  46.946  1.00  0.00     0.244 HD
ENDBRANCH  20  25
ENDBRANCH  12  15
ENDBRANCH   1  11
BRANCH   8  27
HETATM   27  N4  UNL     1      24.347   3.643  51.337  1.00  0.00    -0.358 N 
HETATM   28  C13 UNL     1      25.020   3.126  50.159  1.00  0.00     0.152 C 
HETATM   29  C14 UNL     1      26.366   2.658  50.570  1.00  0.00    -0.004 C 
HETATM   30  C15 UNL     1      26.804   2.014  51.637  1.00  0.00     0.039 C 
HETATM   31  C16 UNL     1      25.996   1.569  52.770  1.00  0.00     0.114 C 
HETATM   32  F1  UNL     1      26.427   0.446  53.391  1.00  0.00    -0.206 F 
HETATM   33  C17 UNL     1      24.907   2.199  53.189  1.00  0.00     0.035 C 
HETATM   34  C18 UNL     1      24.196   3.411  52.740  1.00  0.00     0.155 C 
ENDBRANCH   8  27
TORSDOF 4
ENDMDL
MODEL 9
REMARK VINA RESULT:      -8.9      7.420     11.500
REMARK  4 active torsions:
REMARK  status: ('A' for Active; 'I' for Inactive)
REMARK    1  A    between atoms: C5_5  and  C6_6 
REMARK       I    between atoms: C6_6  and  N1_8 
REMARK    2  A    between atoms: N1_8  and  C7_9 
REMARK    3  A    between atoms: C12_16  and  N4_17 
REMARK    4  A    between atoms: N5_31  and  O2_32 
ROOT
HETATM    1  C7  UNL     1      30.492   9.270  48.779  1.00  0.00     0.035 A 
HETATM    2  C8  UNL     1      31.219  10.439  48.764  1.00  0.00     0.032 A 
HETATM    3  C9  UNL     1      30.680  11.703  48.683  1.00  0.00     0.035 A 
HETATM    4  C10 UNL     1      29.308  11.824  48.611  1.00  0.00     0.072 A 
HETATM    5  N2  UNL     1      28.689  13.027  48.534  1.00  0.00    -0.241 NA
HETATM    6  C11 UNL     1      27.348  13.092  48.472  1.00  0.00     0.236 A 
HETATM    7  N3  UNL     1      26.598  11.956  48.485  1.00  0.00    -0.224 NA
HETATM    8  C12 UNL     1      27.186  10.725  48.561  1.00  0.00     0.140 A 
HETATM    9  C19 UNL     1      28.561  10.674  48.625  1.00  0.00     0.041 A 
HETATM   10  C20 UNL     1      29.128   9.429  48.707  1.00  0.00     0.047 A 
ENDROOT
BRANCH   1  11
HETATM   11  N1  UNL     1      31.020   7.960  48.861  1.00  0.00    -0.327 N 
HETATM   12  C6  UNL     1      31.428   7.048  47.856  1.00  0.00     0.226 C 
HETATM   13  O1  UNL     1      31.311   7.453  46.671  1.00  0.00    -0.273 OA
HETATM   14  H10 UNL     1      31.153   7.533  49.814  1.00  0.00     0.169 HD
BRANCH  12  15
HETATM   15  C5  UNL     1      31.961   5.706  48.135  1.00  0.00     0.083 C 
HETATM   16  C4  UNL     1      32.214   4.877  46.936  1.00  0.00     0.046 C 
HETATM   17  C2  UNL     1      33.380   3.962  47.024  1.00  0.00     0.048 C 
HETATM   18  C1  UNL     1      33.896   3.631  45.616  1.00  0.00     0.040 C 
HETATM   19  C3  UNL     1      32.918   2.608  47.582  1.00  0.00     0.040 C 
HETATM   20  N5  UNL     1      34.485   4.367  47.798  1.00  0.00    -0.278 N 
HETATM   21  C22 UNL     1      34.457   5.635  48.426  1.00  0.00     0.048 C 
HETATM   22  C21 UNL     1      33.108   5.835  49.077  1.00  0.00     0.046 C 
HETATM   23  C23 UNL     1      35.486   5.630  49.542  1.00  0.00     0.040 C 
HETATM   24  C24 UNL     1      34.814   6.783  47.511  1.00  0.00     0.040 C 
BRANCH  20  25
HETATM   25  O2  UNL     1      35.140   3.418  48.468  1.00  0.00    -0.291 OA
HETATM   26  H30 UNL     1      35.850   3.776  49.055  1.00  0.00     0.244 HD
ENDBRANCH  20  25
ENDBRANCH  12  15
ENDBRANCH   1  11
BRANCH   8  27
HETATM   27  N4  UNL     1      26.269   9.611  48.541  1.00  0.00    -0.358 N 
HETATM   28  C13 UNL     1      25.859   9.133  47.232  1.00  0.00     0.152 C 
HETATM   29  C14 UNL     1      25.737   7.656  47.302  1.00  0.00    -0.004 C 
HETATM   30  C15 UNL     1      25.272   6.838  48.229  1.00  0.00     0.039 C 
HETATM   31  C16 UNL     1      24.715   7.224  49.523  1.00  0.00     0.114 C 
HETATM   32  F1  UNL     1      23.758   6.404  50.017  1.00  0.00    -0.206 F 
HETATM   33  C17 UNL     1      25.098   8.301  50.196  1.00  0.00     0.035 C 
HETATM   34  C18 UNL     1      26.086   9.366  49.937  1.00  0.00     0.155 C 
ENDBRANCH   8  27
TORSDOF 4
ENDMDL
