MODEL 1
REMARK VINA RESULT:     -10.3      0.000      0.000
REMARK  1 active torsions:
REMARK  status: ('A' for Active; 'I' for Inactive)
REMARK    1  A    between atoms: C2_4  and  C3_5 
REMARK       I    between atoms: C3_5  and  N3_6 
ROOT
HETATM    1  C1  UNL     1      25.230  -1.526  55.134  1.00  0.00     0.180 C 
HETATM    2  N1  UNL     1      26.081  -0.455  54.662  1.00  0.00    -0.271 N 
HETATM    3  N2  UNL     1      27.363  -0.350  54.948  1.00  0.00    -0.166 NA
HETATM    4  C2  UNL     1      27.884   0.747  54.372  1.00  0.00     0.153 A 
HETATM    5  C4  UNL     1      26.802   1.287  53.718  1.00  0.00     0.009 A 
HETATM    6  C5  UNL     1      25.632   0.559  53.873  1.00  0.00     0.090 A 
HETATM    7  C6  UNL     1      24.301   0.876  53.330  1.00  0.00     0.094 C 
HETATM    8  N4  UNL     1      23.385  -0.026  53.636  1.00  0.00    -0.246 NA
HETATM    9  C7  UNL     1      22.056   0.083  53.221  1.00  0.00     0.058 A 
HETATM   10  C8  UNL     1      20.888  -0.171  53.908  1.00  0.00     0.031 A 
HETATM   11  C9  UNL     1      19.652   0.045  53.334  1.00  0.00     0.003 A 
HETATM   12  C10 UNL     1      19.432   0.519  52.063  1.00  0.00     0.017 A 
HETATM   13  C11 UNL     1      20.584   0.779  51.364  1.00  0.00     0.034 A 
HETATM   14  C12 UNL     1      21.851   0.556  51.943  1.00  0.00     0.048 A 
HETATM   15  C13 UNL     1      20.658   1.358  50.048  1.00  0.00     0.253 C 
HETATM   16  O2  UNL     1      21.001   2.503  50.403  1.00  0.00    -0.267 OA
HETATM   17  N5  UNL     1      20.734   1.933  48.787  1.00  0.00    -0.348 N 
HETATM   18  C14 UNL     1      21.671   1.517  47.717  1.00  0.00     0.128 C 
HETATM   19  C15 UNL     1      22.485   2.666  47.218  1.00  0.00     0.045 C 
HETATM   20  C16 UNL     1      22.266   3.970  47.924  1.00  0.00     0.085 C 
HETATM   21  C17 UNL     1      20.876   4.314  48.312  1.00  0.00     0.045 C 
HETATM   22  C18 UNL     1      19.988   3.091  48.213  1.00  0.00     0.128 C 
HETATM   23  N6  UNL     1      23.219   4.183  48.982  1.00  0.00    -0.380 N 
HETATM   24  C19 UNL     1      23.511   4.501  50.327  1.00  0.00     0.202 C 
HETATM   25  N7  UNL     1      23.650   4.320  51.549  1.00  0.00    -0.256 NA
HETATM   26  C20 UNL     1      23.465   3.181  52.357  1.00  0.00     0.127 C 
HETATM   27  C21 UNL     1      24.305   2.143  52.545  1.00  0.00    -0.009 C 
HETATM   28  C22 UNL     1      25.612   2.266  51.799  1.00  0.00     0.047 C 
HETATM   29  C23 UNL     1      26.714   2.522  52.854  1.00  0.00     0.048 C 
HETATM   30  H19 UNL     1      24.220   4.049  48.655  1.00  0.00     0.160 HD
ENDROOT
BRANCH   4  31
HETATM   31  C3  UNL     1      29.224   1.322  54.365  1.00  0.00     0.270 C 
HETATM   32  N3  UNL     1      30.120   0.637  53.504  1.00  0.00    -0.365 N 
HETATM   33  H4  UNL     1      30.411   1.281  52.719  1.00  0.00     0.159 HD
HETATM   34  H5  UNL     1      30.383  -0.371  53.721  1.00  0.00     0.159 HD
HETATM   35  O1  UNL     1      29.514   2.328  55.069  1.00  0.00    -0.266 OA
ENDBRANCH   4  31
TORSDOF 1
ENDMDL
MODEL 2
REMARK VINA RESULT:      -9.9      2.663      6.259
REMARK  1 active torsions:
REMARK  status: ('A' for Active; 'I' for Inactive)
REMARK    1  A    between atoms: C2_4  and  C3_5 
REMARK       I    between atoms: C3_5  and  N3_6 
ROOT
HETATM    1  C1  UNL     1      22.314  -1.427  54.788  1.00  0.00     0.180 C 
HETATM    2  N1  UNL     1      21.106  -1.145  54.042  1.00  0.00    -0.271 N 
HETATM    3  N2  UNL     1      19.924  -1.650  54.332  1.00  0.00    -0.166 NA
HETATM    4  C2  UNL     1      19.000  -1.212  53.460  1.00  0.00     0.153 A 
HETATM    5  C4  UNL     1      19.732  -0.401  52.626  1.00  0.00     0.009 A 
HETATM    6  C5  UNL     1      21.077  -0.327  52.955  1.00  0.00     0.090 A 
HETATM    7  C6  UNL     1      22.131   0.425  52.254  1.00  0.00     0.094 C 
HETATM    8  N4  UNL     1      23.318   0.313  52.823  1.00  0.00    -0.246 NA
HETATM    9  C7  UNL     1      24.455   0.947  52.318  1.00  0.00     0.058 A 
HETATM   10  C8  UNL     1      25.746   0.480  52.186  1.00  0.00     0.031 A 
HETATM   11  C9  UNL     1      26.737   1.250  51.611  1.00  0.00     0.003 A 
HETATM   12  C10 UNL     1      26.575   2.523  51.118  1.00  0.00     0.017 A 
HETATM   13  C11 UNL     1      25.296   3.004  51.240  1.00  0.00     0.034 A 
HETATM   14  C12 UNL     1      24.279   2.223  51.831  1.00  0.00     0.048 A 
HETATM   15  C13 UNL     1      24.819   4.266  50.738  1.00  0.00     0.253 C 
HETATM   16  O2  UNL     1      24.209   3.817  49.748  1.00  0.00    -0.267 OA
HETATM   17  N5  UNL     1      24.352   5.474  50.241  1.00  0.00    -0.348 N 
HETATM   18  C14 UNL     1      23.416   6.381  50.946  1.00  0.00     0.128 C 
HETATM   19  C15 UNL     1      22.216   6.692  50.115  1.00  0.00     0.045 C 
HETATM   20  C16 UNL     1      22.143   5.990  48.792  1.00  0.00     0.085 C 
HETATM   21  C17 UNL     1      23.406   5.834  48.029  1.00  0.00     0.045 C 
HETATM   22  C18 UNL     1      24.594   6.128  48.920  1.00  0.00     0.128 C 
HETATM   23  N6  UNL     1      21.371   4.777  48.863  1.00  0.00    -0.380 N 
HETATM   24  C19 UNL     1      21.234   3.391  48.623  1.00  0.00     0.202 C 
HETATM   25  N7  UNL     1      21.373   2.170  48.813  1.00  0.00    -0.256 NA
HETATM   26  C20 UNL     1      22.036   1.447  49.823  1.00  0.00     0.127 C 
HETATM   27  C21 UNL     1      21.602   1.154  51.066  1.00  0.00    -0.009 C 
HETATM   28  C22 UNL     1      20.210   1.660  51.367  1.00  0.00     0.047 C 
HETATM   29  C23 UNL     1      19.285   0.422  51.442  1.00  0.00     0.048 C 
HETATM   30  H19 UNL     1      20.418   4.932  49.305  1.00  0.00     0.160 HD
ENDROOT
BRANCH   4  31
HETATM   31  C3  UNL     1      17.568  -1.455  53.326  1.00  0.00     0.270 C 
HETATM   32  N3  UNL     1      17.221  -2.825  53.461  1.00  0.00    -0.365 N 
HETATM   33  H4  UNL     1      16.627  -2.951  54.325  1.00  0.00     0.159 HD
HETATM   34  H5  UNL     1      17.568  -3.524  52.737  1.00  0.00     0.159 HD
HETATM   35  O1  UNL     1      16.755  -0.515  53.113  1.00  0.00    -0.266 OA
ENDBRANCH   4  31
TORSDOF 1
ENDMDL
MODEL 3
REMARK VINA RESULT:      -9.5      2.725      5.667
REMARK  1 active torsions:
REMARK  status: ('A' for Active; 'I' for Inactive)
REMARK    1  A    between atoms: C2_4  and  C3_5 
REMARK       I    between atoms: C3_5  and  N3_6 
ROOT
HETATM    1  C1  UNL     1      26.096   0.689  53.517  1.00  0.00     0.180 C 
HETATM    2  N1  UNL     1      24.666   0.469  53.478  1.00  0.00    -0.271 N 
HETATM    3  N2  UNL     1      24.030  -0.388  54.251  1.00  0.00    -0.166 NA
HETATM    4  C2  UNL     1      22.713  -0.373  53.982  1.00  0.00     0.153 A 
HETATM    5  C4  UNL     1      22.619   0.566  52.983  1.00  0.00     0.009 A 
HETATM    6  C5  UNL     1      23.835   1.129  52.627  1.00  0.00     0.090 A 
HETATM    7  C6  UNL     1      24.085   2.136  51.583  1.00  0.00     0.094 C 
HETATM    8  N4  UNL     1      25.354   2.492  51.493  1.00  0.00    -0.246 NA
HETATM    9  C7  UNL     1      25.806   3.434  50.567  1.00  0.00     0.058 A 
HETATM   10  C8  UNL     1      26.941   3.434  49.783  1.00  0.00     0.031 A 
HETATM   11  C9  UNL     1      27.194   4.446  48.880  1.00  0.00     0.003 A 
HETATM   12  C10 UNL     1      26.388   5.537  48.654  1.00  0.00     0.017 A 
HETATM   13  C11 UNL     1      25.254   5.554  49.426  1.00  0.00     0.034 A 
HETATM   14  C12 UNL     1      24.991   4.524  50.354  1.00  0.00     0.048 A 
HETATM   15  C13 UNL     1      24.194   6.524  49.344  1.00  0.00     0.253 C 
HETATM   16  O2  UNL     1      23.376   5.808  48.732  1.00  0.00    -0.267 OA
HETATM   17  N5  UNL     1      23.162   7.448  49.255  1.00  0.00    -0.348 N 
HETATM   18  C14 UNL     1      22.440   8.032  50.410  1.00  0.00     0.128 C 
HETATM   19  C15 UNL     1      20.964   7.834  50.297  1.00  0.00     0.045 C 
HETATM   20  C16 UNL     1      20.506   7.039  49.112  1.00  0.00     0.085 C 
HETATM   21  C17 UNL     1      21.204   7.265  47.823  1.00  0.00     0.045 C 
HETATM   22  C18 UNL     1      22.492   8.028  48.053  1.00  0.00     0.128 C 
HETATM   23  N6  UNL     1      20.335   5.644  49.427  1.00  0.00    -0.380 N 
HETATM   24  C19 UNL     1      20.584   4.282  49.148  1.00  0.00     0.202 C 
HETATM   25  N7  UNL     1      21.207   3.206  49.126  1.00  0.00    -0.256 NA
HETATM   26  C20 UNL     1      22.479   2.847  49.613  1.00  0.00     0.127 C 
HETATM   27  C21 UNL     1      22.833   2.530  50.876  1.00  0.00    -0.009 C 
HETATM   28  C22 UNL     1      21.686   2.547  51.859  1.00  0.00     0.047 C 
HETATM   29  C23 UNL     1      21.403   1.077  52.249  1.00  0.00     0.048 C 
HETATM   30  H19 UNL     1      19.730   5.497  50.287  1.00  0.00     0.160 HD
ENDROOT
BRANCH   4  31
HETATM   31  C3  UNL     1      21.580  -1.108  54.533  1.00  0.00     0.270 C 
HETATM   32  N3  UNL     1      20.409  -0.316  54.657  1.00  0.00    -0.365 N 
HETATM   33  H4  UNL     1      19.663  -0.693  54.011  1.00  0.00     0.159 HD
HETATM   34  H5  UNL     1      20.406   0.506  55.331  1.00  0.00     0.159 HD
HETATM   35  O1  UNL     1      21.675  -2.324  54.853  1.00  0.00    -0.266 OA
ENDBRANCH   4  31
TORSDOF 1
ENDMDL
MODEL 4
REMARK VINA RESULT:      -9.4      3.017      4.489
REMARK  1 active torsions:
REMARK  status: ('A' for Active; 'I' for Inactive)
REMARK    1  A    between atoms: C2_4  and  C3_5 
REMARK       I    between atoms: C3_5  and  N3_6 
ROOT
HETATM    1  C1  UNL     1      26.507   0.968  51.595  1.00  0.00     0.180 C 
HETATM    2  N1  UNL     1      26.043   2.200  50.994  1.00  0.00    -0.271 N 
HETATM    3  N2  UNL     1      26.815   3.033  50.325  1.00  0.00    -0.166 NA
HETATM    4  C2  UNL     1      26.103   4.088  49.893  1.00  0.00     0.153 A 
HETATM    5  C4  UNL     1      24.841   3.812  50.361  1.00  0.00     0.009 A 
HETATM    6  C5  UNL     1      24.751   2.623  51.068  1.00  0.00     0.090 A 
HETATM    7  C6  UNL     1      23.560   2.055  51.720  1.00  0.00     0.094 C 
HETATM    8  N4  UNL     1      23.789   0.892  52.303  1.00  0.00    -0.246 NA
HETATM    9  C7  UNL     1      22.794   0.182  52.978  1.00  0.00     0.058 A 
HETATM   10  C8  UNL     1      22.851  -0.507  54.172  1.00  0.00     0.031 A 
HETATM   11  C9  UNL     1      21.733  -1.113  54.708  1.00  0.00     0.003 A 
HETATM   12  C10 UNL     1      20.476  -1.111  54.151  1.00  0.00     0.017 A 
HETATM   13  C11 UNL     1      20.401  -0.429  52.963  1.00  0.00     0.034 A 
HETATM   14  C12 UNL     1      21.541   0.190  52.406  1.00  0.00     0.048 A 
HETATM   15  C13 UNL     1      19.202  -0.192  52.202  1.00  0.00     0.253 C 
HETATM   16  O2  UNL     1      19.049   1.003  52.525  1.00  0.00    -0.267 OA
HETATM   17  N5  UNL     1      18.045   0.053  51.476  1.00  0.00    -0.348 N 
HETATM   18  C14 UNL     1      17.938  -0.010  49.999  1.00  0.00     0.128 C 
HETATM   19  C15 UNL     1      17.397   1.260  49.430  1.00  0.00     0.045 C 
HETATM   20  C16 UNL     1      17.145   2.358  50.418  1.00  0.00     0.085 C 
HETATM   21  C17 UNL     1      16.579   1.977  51.736  1.00  0.00     0.045 C 
HETATM   22  C18 UNL     1      16.692   0.480  51.939  1.00  0.00     0.128 C 
HETATM   23  N6  UNL     1      18.258   3.265  50.520  1.00  0.00    -0.380 N 
HETATM   24  C19 UNL     1      19.205   3.965  51.300  1.00  0.00     0.202 C 
HETATM   25  N7  UNL     1      20.241   4.149  51.964  1.00  0.00    -0.256 NA
HETATM   26  C20 UNL     1      21.302   3.288  52.306  1.00  0.00     0.127 C 
HETATM   27  C21 UNL     1      22.363   2.928  51.555  1.00  0.00    -0.009 C 
HETATM   28  C22 UNL     1      22.397   3.572  50.189  1.00  0.00     0.047 C 
HETATM   29  C23 UNL     1      23.558   4.593  50.198  1.00  0.00     0.048 C 
HETATM   30  H19 UNL     1      18.574   3.623  49.572  1.00  0.00     0.160 HD
ENDROOT
BRANCH   4  31
HETATM   31  C3  UNL     1      26.457   5.275  49.123  1.00  0.00     0.270 C 
HETATM   32  N3  UNL     1      27.858   5.492  49.046  1.00  0.00    -0.365 N 
HETATM   33  H4  UNL     1      28.172   5.392  48.043  1.00  0.00     0.159 HD
HETATM   34  H5  UNL     1      28.400   5.713  49.935  1.00  0.00     0.159 HD
HETATM   35  O1  UNL     1      25.576   6.006  48.595  1.00  0.00    -0.266 OA
ENDBRANCH   4  31
TORSDOF 1
ENDMDL
MODEL 5
REMARK VINA RESULT:      -9.3      3.135      6.650
REMARK  1 active torsions:
REMARK  status: ('A' for Active; 'I' for Inactive)
REMARK    1  A    between atoms: C2_4  and  C3_5 
REMARK       I    between atoms: C3_5  and  N3_6 
ROOT
HETATM    1  C1  UNL     1      28.140   5.103  48.564  1.00  0.00     0.180 C 
HETATM    2  N1  UNL     1      26.977   5.963  48.523  1.00  0.00    -0.271 N 
HETATM    3  N2  UNL     1      26.889   7.051  47.784  1.00  0.00    -0.166 NA
HETATM    4  C2  UNL     1      25.694   7.641  47.960  1.00  0.00     0.153 A 
HETATM    5  C4  UNL     1      25.078   6.812  48.866  1.00  0.00     0.009 A 
HETATM    6  C5  UNL     1      25.854   5.731  49.255  1.00  0.00     0.090 A 
HETATM    7  C6  UNL     1      25.505   4.680  50.224  1.00  0.00     0.094 C 
HETATM    8  N4  UNL     1      26.451   3.769  50.370  1.00  0.00    -0.246 NA
HETATM    9  C7  UNL     1      26.322   2.684  51.240  1.00  0.00     0.058 A 
HETATM   10  C8  UNL     1      27.243   2.121  52.097  1.00  0.00     0.031 A 
HETATM   11  C9  UNL     1      26.909   1.068  52.925  1.00  0.00     0.003 A 
HETATM   12  C10 UNL     1      25.672   0.472  53.000  1.00  0.00     0.017 A 
HETATM   13  C11 UNL     1      24.742   1.020  52.155  1.00  0.00     0.034 A 
HETATM   14  C12 UNL     1      25.079   2.094  51.302  1.00  0.00     0.048 A 
HETATM   15  C13 UNL     1      23.352   0.655  52.080  1.00  0.00     0.253 C 
HETATM   16  O2  UNL     1      22.900   1.642  52.693  1.00  0.00    -0.267 OA
HETATM   17  N5  UNL     1      22.007   0.317  52.018  1.00  0.00    -0.348 N 
HETATM   18  C14 UNL     1      21.218   0.189  50.771  1.00  0.00     0.128 C 
HETATM   19  C15 UNL     1      19.996   1.048  50.799  1.00  0.00     0.045 C 
HETATM   20  C16 UNL     1      19.840   1.913  52.013  1.00  0.00     0.085 C 
HETATM   21  C17 UNL     1      20.222   1.330  53.323  1.00  0.00     0.045 C 
HETATM   22  C18 UNL     1      21.028   0.065  53.117  1.00  0.00     0.128 C 
HETATM   23  N6  UNL     1      20.364   3.238  51.808  1.00  0.00    -0.380 N 
HETATM   24  C19 UNL     1      21.184   4.312  52.220  1.00  0.00     0.202 C 
HETATM   25  N7  UNL     1      22.227   4.970  52.376  1.00  0.00    -0.256 NA
HETATM   26  C20 UNL     1      23.563   4.714  52.010  1.00  0.00     0.127 C 
HETATM   27  C21 UNL     1      24.148   4.885  50.807  1.00  0.00    -0.009 C 
HETATM   28  C22 UNL     1      23.228   5.449  49.749  1.00  0.00     0.047 C 
HETATM   29  C23 UNL     1      23.696   6.896  49.469  1.00  0.00     0.048 C 
HETATM   30  H19 UNL     1      19.985   3.688  50.925  1.00  0.00     0.160 HD
ENDROOT
BRANCH   4  31
HETATM   31  C3  UNL     1      25.090   8.844  47.398  1.00  0.00     0.270 C 
HETATM   32  N3  UNL     1      25.449  10.027  48.097  1.00  0.00    -0.365 N 
HETATM   33  H4  UNL     1      26.015  10.650  47.459  1.00  0.00     0.159 HD
HETATM   34  H5  UNL     1      25.136  10.151  49.106  1.00  0.00     0.159 HD
HETATM   35  O1  UNL     1      24.331   8.793  46.392  1.00  0.00    -0.266 OA
ENDBRANCH   4  31
TORSDOF 1
ENDMDL
MODEL 6
REMARK VINA RESULT:      -9.2      2.926      7.362
REMARK  1 active torsions:
REMARK  status: ('A' for Active; 'I' for Inactive)
REMARK    1  A    between atoms: C2_4  and  C3_5 
REMARK       I    between atoms: C3_5  and  N3_6 
ROOT
HETATM    1  C1  UNL     1      18.311  -1.469  53.832  1.00  0.00     0.180 C 
HETATM    2  N1  UNL     1      17.761  -0.888  52.626  1.00  0.00    -0.271 N 
HETATM    3  N2  UNL     1      16.496  -0.988  52.268  1.00  0.00    -0.166 NA
HETATM    4  C2  UNL     1      16.288  -0.353  51.102  1.00  0.00     0.153 A 
HETATM    5  C4  UNL     1      17.536   0.134  50.796  1.00  0.00     0.009 A 
HETATM    6  C5  UNL     1      18.507  -0.182  51.734  1.00  0.00     0.090 A 
HETATM    7  C6  UNL     1      19.938   0.161  51.693  1.00  0.00     0.094 C 
HETATM    8  N4  UNL     1      20.607  -0.266  52.749  1.00  0.00    -0.246 NA
HETATM    9  C7  UNL     1      21.977  -0.047  52.909  1.00  0.00     0.058 A 
HETATM   10  C8  UNL     1      22.963  -0.893  53.372  1.00  0.00     0.031 A 
HETATM   11  C9  UNL     1      24.286  -0.505  53.412  1.00  0.00     0.003 A 
HETATM   12  C10 UNL     1      24.774   0.718  53.014  1.00  0.00     0.017 A 
HETATM   13  C11 UNL     1      23.807   1.573  52.549  1.00  0.00     0.034 A 
HETATM   14  C12 UNL     1      22.451   1.184  52.510  1.00  0.00     0.048 A 
HETATM   15  C13 UNL     1      24.036   2.880  51.992  1.00  0.00     0.253 C 
HETATM   16  O2  UNL     1      23.876   2.568  50.795  1.00  0.00    -0.267 OA
HETATM   17  N5  UNL     1      24.255   4.134  51.438  1.00  0.00    -0.348 N 
HETATM   18  C14 UNL     1      23.417   5.331  51.683  1.00  0.00     0.128 C 
HETATM   19  C15 UNL     1      22.923   5.931  50.408  1.00  0.00     0.045 C 
HETATM   20  C16 UNL     1      23.289   5.190  49.158  1.00  0.00     0.085 C 
HETATM   21  C17 UNL     1      24.650   4.602  49.084  1.00  0.00     0.045 C 
HETATM   22  C18 UNL     1      25.287   4.584  50.458  1.00  0.00     0.128 C 
HETATM   23  N6  UNL     1      22.255   4.278  48.744  1.00  0.00    -0.380 N 
HETATM   24  C19 UNL     1      21.841   2.986  48.349  1.00  0.00     0.202 C 
HETATM   25  N7  UNL     1      21.497   1.798  48.476  1.00  0.00    -0.256 NA
HETATM   26  C20 UNL     1      21.339   0.983  49.614  1.00  0.00     0.127 C 
HETATM   27  C21 UNL     1      20.294   0.927  50.465  1.00  0.00    -0.009 C 
HETATM   28  C22 UNL     1      19.156   1.853  50.104  1.00  0.00     0.047 C 
HETATM   29  C23 UNL     1      17.987   0.965  49.618  1.00  0.00     0.048 C 
HETATM   30  H19 UNL     1      21.304   4.747  48.687  1.00  0.00     0.160 HD
ENDROOT
BRANCH   4  31
HETATM   31  C3  UNL     1      15.101  -0.159  50.277  1.00  0.00     0.270 C 
HETATM   32  N3  UNL     1      14.785  -1.290  49.479  1.00  0.00    -0.365 N 
HETATM   33  H4  UNL     1      13.858  -1.689  49.791  1.00  0.00     0.159 HD
HETATM   34  H5  UNL     1      15.460  -1.592  48.715  1.00  0.00     0.159 HD
HETATM   35  O1  UNL     1      14.450   0.921  50.302  1.00  0.00    -0.266 OA
ENDBRANCH   4  31
TORSDOF 1
ENDMDL
MODEL 7
REMARK VINA RESULT:      -8.9      7.991      9.871
REMARK  1 active torsions:
REMARK  status: ('A' for Active; 'I' for Inactive)
REMARK    1  A    between atoms: C2_4  and  C3_5 
REMARK       I    between atoms: C3_5  and  N3_6 
ROOT
HETATM    1  C1  UNL     1      32.024   4.388  47.613  1.00  0.00     0.180 C 
HETATM    2  N1  UNL     1      32.587   5.718  47.706  1.00  0.00    -0.271 N 
HETATM    3  N2  UNL     1      33.871   5.988  47.579  1.00  0.00    -0.166 NA
HETATM    4  C2  UNL     1      34.089   7.306  47.719  1.00  0.00     0.153 A 
HETATM    5  C4  UNL     1      32.826   7.800  47.939  1.00  0.00     0.009 A 
HETATM    6  C5  UNL     1      31.836   6.829  47.941  1.00  0.00     0.090 A 
HETATM    7  C6  UNL     1      30.395   7.018  48.173  1.00  0.00     0.094 C 
HETATM    8  N4  UNL     1      29.702   5.897  48.091  1.00  0.00    -0.246 NA
HETATM    9  C7  UNL     1      28.319   5.853  48.278  1.00  0.00     0.058 A 
HETATM   10  C8  UNL     1      27.543   4.938  48.958  1.00  0.00     0.031 A 
HETATM   11  C9  UNL     1      26.177   5.094  49.074  1.00  0.00     0.003 A 
HETATM   12  C10 UNL     1      25.444   6.133  48.552  1.00  0.00     0.017 A 
HETATM   13  C11 UNL     1      26.199   7.056  47.873  1.00  0.00     0.034 A 
HETATM   14  C12 UNL     1      27.596   6.899  47.747  1.00  0.00     0.048 A 
HETATM   15  C13 UNL     1      25.714   8.283  47.298  1.00  0.00     0.253 C 
HETATM   16  O2  UNL     1      26.155   9.050  48.177  1.00  0.00    -0.267 OA
HETATM   17  N5  UNL     1      25.253   9.475  46.758  1.00  0.00    -0.348 N 
HETATM   18  C14 UNL     1      25.670  10.035  45.451  1.00  0.00     0.128 C 
HETATM   19  C15 UNL     1      26.187  11.430  45.587  1.00  0.00     0.045 C 
HETATM   20  C16 UNL     1      26.258  11.960  46.987  1.00  0.00     0.085 C 
HETATM   21  C17 UNL     1      25.148  11.615  47.909  1.00  0.00     0.045 C 
HETATM   22  C18 UNL     1      24.318  10.490  47.327  1.00  0.00     0.128 C 
HETATM   23  N6  UNL     1      27.560  11.774  47.574  1.00  0.00    -0.380 N 
HETATM   24  C19 UNL     1      28.377  11.320  48.633  1.00  0.00     0.202 C 
HETATM   25  N7  UNL     1      29.011  10.511  49.332  1.00  0.00    -0.256 NA
HETATM   26  C20 UNL     1      29.195   9.118  49.226  1.00  0.00     0.127 C 
HETATM   27  C21 UNL     1      30.054   8.446  48.433  1.00  0.00    -0.009 C 
HETATM   28  C22 UNL     1      30.934   9.334  47.585  1.00  0.00     0.047 C 
HETATM   29  C23 UNL     1      32.368   9.223  48.152  1.00  0.00     0.048 C 
HETATM   30  H19 UNL     1      28.338  12.138  46.950  1.00  0.00     0.160 HD
ENDROOT
BRANCH   4  31
HETATM   31  C3  UNL     1      35.298   8.122  47.671  1.00  0.00     0.270 C 
HETATM   32  N3  UNL     1      36.278   7.722  48.617  1.00  0.00    -0.365 N 
HETATM   33  H4  UNL     1      37.131   7.367  48.106  1.00  0.00     0.159 HD
HETATM   34  H5  UNL     1      36.067   7.815  49.655  1.00  0.00     0.159 HD
HETATM   35  O1  UNL     1      35.418   9.076  46.855  1.00  0.00    -0.266 OA
ENDBRANCH   4  31
TORSDOF 1
ENDMDL
MODEL 8
REMARK VINA RESULT:      -8.8      2.827      5.370
REMARK  1 active torsions:
REMARK  status: ('A' for Active; 'I' for Inactive)
REMARK    1  A    between atoms: C2_4  and  C3_5 
REMARK       I    between atoms: C3_5  and  N3_6 
ROOT
HETATM    1  C1  UNL     1      25.345   1.502  51.740  1.00  0.00     0.180 C 
HETATM    2  N1  UNL     1      24.486   0.734  52.616  1.00  0.00    -0.271 N 
HETATM    3  N2  UNL     1      24.905   0.098  53.691  1.00  0.00    -0.166 NA
HETATM    4  C2  UNL     1      23.881  -0.528  54.295  1.00  0.00     0.153 A 
HETATM    5  C4  UNL     1      22.815  -0.210  53.488  1.00  0.00     0.009 A 
HETATM    6  C5  UNL     1      23.149   0.590  52.406  1.00  0.00     0.090 A 
HETATM    7  C6  UNL     1      22.255   1.081  51.345  1.00  0.00     0.094 C 
HETATM    8  N4  UNL     1      22.868   1.843  50.457  1.00  0.00    -0.246 NA
HETATM    9  C7  UNL     1      22.204   2.411  49.368  1.00  0.00     0.058 A 
HETATM   10  C8  UNL     1      22.602   2.541  48.055  1.00  0.00     0.031 A 
HETATM   11  C9  UNL     1      21.774   3.097  47.101  1.00  0.00     0.003 A 
HETATM   12  C10 UNL     1      20.504   3.573  47.324  1.00  0.00     0.017 A 
HETATM   13  C11 UNL     1      20.090   3.452  48.626  1.00  0.00     0.034 A 
HETATM   14  C12 UNL     1      20.934   2.888  49.608  1.00  0.00     0.048 A 
HETATM   15  C13 UNL     1      18.784   3.787  49.130  1.00  0.00     0.253 C 
HETATM   16  O2  UNL     1      18.351   2.622  49.225  1.00  0.00    -0.267 OA
HETATM   17  N5  UNL     1      17.520   4.094  49.615  1.00  0.00    -0.348 N 
HETATM   18  C14 UNL     1      17.244   4.760  50.910  1.00  0.00     0.128 C 
HETATM   19  C15 UNL     1      16.305   3.961  51.753  1.00  0.00     0.045 C 
HETATM   20  C16 UNL     1      15.891   2.637  51.186  1.00  0.00     0.085 C 
HETATM   21  C17 UNL     1      15.629   2.568  49.727  1.00  0.00     0.045 C 
HETATM   22  C18 UNL     1      16.174   3.803  49.040  1.00  0.00     0.128 C 
HETATM   23  N6  UNL     1      16.716   1.558  51.665  1.00  0.00    -0.380 N 
HETATM   24  C19 UNL     1      17.527   0.428  51.417  1.00  0.00     0.202 C 
HETATM   25  N7  UNL     1      18.548  -0.211  51.113  1.00  0.00    -0.256 NA
HETATM   26  C20 UNL     1      19.841   0.206  50.738  1.00  0.00     0.127 C 
HETATM   27  C21 UNL     1      20.853   0.610  51.533  1.00  0.00    -0.009 C 
HETATM   28  C22 UNL     1      20.530   0.571  53.008  1.00  0.00     0.047 C 
HETATM   29  C23 UNL     1      21.357  -0.583  53.622  1.00  0.00     0.048 C 
HETATM   30  H19 UNL     1      16.795   1.552  52.723  1.00  0.00     0.160 HD
ENDROOT
BRANCH   4  31
HETATM   31  C3  UNL     1      23.792  -1.355  55.493  1.00  0.00     0.270 C 
HETATM   32  N3  UNL     1      24.998  -1.383  56.242  1.00  0.00    -0.365 N 
HETATM   33  H4  UNL     1      24.835  -0.930  57.182  1.00  0.00     0.159 HD
HETATM   34  H5  UNL     1      25.867  -1.821  55.813  1.00  0.00     0.159 HD
HETATM   35  O1  UNL     1      22.731  -1.966  55.796  1.00  0.00    -0.266 OA
ENDBRANCH   4  31
TORSDOF 1
ENDMDL
MODEL 9
REMARK VINA RESULT:      -8.3      7.239     10.666
REMARK  1 active torsions:
REMARK  status: ('A' for Active; 'I' for Inactive)
REMARK    1  A    between atoms: C2_4  and  C3_5 
REMARK       I    between atoms: C3_5  and  N3_6 
ROOT
HETATM    1  C1  UNL     1      26.785   3.527  49.787  1.00  0.00     0.180 C 
HETATM    2  N1  UNL     1      25.787   4.504  49.409  1.00  0.00    -0.271 N 
HETATM    3  N2  UNL     1      24.497   4.374  49.647  1.00  0.00    -0.166 NA
HETATM    4  C2  UNL     1      23.823   5.436  49.176  1.00  0.00     0.153 A 
HETATM    5  C4  UNL     1      24.821   6.212  48.637  1.00  0.00     0.009 A 
HETATM    6  C5  UNL     1      26.088   5.661  48.759  1.00  0.00     0.090 A 
HETATM    7  C6  UNL     1      27.359   6.218  48.268  1.00  0.00     0.094 C 
HETATM    8  N4  UNL     1      28.405   5.465  48.557  1.00  0.00    -0.246 NA
HETATM    9  C7  UNL     1      29.705   5.810  48.182  1.00  0.00     0.058 A 
HETATM   10  C8  UNL     1      30.722   5.025  47.680  1.00  0.00     0.031 A 
HETATM   11  C9  UNL     1      31.939   5.566  47.319  1.00  0.00     0.003 A 
HETATM   12  C10 UNL     1      32.283   6.894  47.409  1.00  0.00     0.017 A 
HETATM   13  C11 UNL     1      31.283   7.691  47.905  1.00  0.00     0.034 A 
HETATM   14  C12 UNL     1      30.037   7.144  48.281  1.00  0.00     0.048 A 
HETATM   15  C13 UNL     1      31.331   9.124  48.030  1.00  0.00     0.253 C 
HETATM   16  O2  UNL     1      30.610   9.388  47.048  1.00  0.00    -0.267 OA
HETATM   17  N5  UNL     1      31.368  10.507  48.135  1.00  0.00    -0.348 N 
HETATM   18  C14 UNL     1      30.839  11.288  49.278  1.00  0.00     0.128 C 
HETATM   19  C15 UNL     1      29.860  12.325  48.833  1.00  0.00     0.045 C 
HETATM   20  C16 UNL     1      29.543  12.331  47.368  1.00  0.00     0.085 C 
HETATM   21  C17 UNL     1      30.662  12.086  46.425  1.00  0.00     0.045 C 
HETATM   22  C18 UNL     1      31.860  11.532  47.168  1.00  0.00     0.128 C 
HETATM   23  N6  UNL     1      28.366  11.561  47.063  1.00  0.00    -0.380 N 
HETATM   24  C19 UNL     1      27.714  10.558  46.311  1.00  0.00     0.202 C 
HETATM   25  N7  UNL     1      27.373   9.411  45.973  1.00  0.00    -0.256 NA
HETATM   26  C20 UNL     1      27.696   8.143  46.495  1.00  0.00     0.127 C 
HETATM   27  C21 UNL     1      27.165   7.519  47.566  1.00  0.00    -0.009 C 
HETATM   28  C22 UNL     1      26.068   8.300  48.252  1.00  0.00     0.047 C 
HETATM   29  C23 UNL     1      24.740   7.561  47.964  1.00  0.00     0.048 C 
HETATM   30  H19 UNL     1      27.538  11.835  47.669  1.00  0.00     0.160 HD
ENDROOT
BRANCH   4  31
HETATM   31  C3  UNL     1      22.409   5.793  49.174  1.00  0.00     0.270 C 
HETATM   32  N3  UNL     1      22.036   6.598  50.282  1.00  0.00    -0.365 N 
HETATM   33  H4  UNL     1      21.734   7.549  49.936  1.00  0.00     0.159 HD
HETATM   34  H5  UNL     1      22.094   6.192  51.263  1.00  0.00     0.159 HD
HETATM   35  O1  UNL     1      21.631   5.403  48.260  1.00  0.00    -0.266 OA
ENDBRANCH   4  31
TORSDOF 1
ENDMDL
