MODEL 1
REMARK VINA RESULT:      -7.5      0.000      0.000
REMARK  2 active torsions:
REMARK  status: ('A' for Active; 'I' for Inactive)
REMARK    1  A    between atoms: C12_14  and  C13_15 
REMARK    2  A    between atoms: C13_15  and  C14_16 
ROOT
HETATM    1  C1  UNL     1      27.510   5.050  48.583  1.00  0.00     0.018 C 
HETATM    2  C2  UNL     1      26.879   4.394  49.371  1.00  0.00    -0.078 C 
HETATM    3  C3  UNL     1      26.129   3.610  50.280  1.00  0.00     0.017 A 
HETATM    4  C4  UNL     1      26.578   2.396  50.750  1.00  0.00     0.021 A 
HETATM    5  C5  UNL     1      25.980   1.521  51.625  1.00  0.00     0.012 A 
HETATM    6  C6  UNL     1      24.760   1.917  52.097  1.00  0.00    -0.018 A 
HETATM    7  C7  UNL     1      24.236   3.111  51.681  1.00  0.00    -0.008 A 
HETATM    8  C8  UNL     1      24.890   3.941  50.802  1.00  0.00     0.034 A 
HETATM    9  C9  UNL     1      22.950   3.703  52.046  1.00  0.00     0.130 C 
HETATM   10  N1  UNL     1      21.748   3.982  52.302  1.00  0.00    -0.254 NA
HETATM   11  C10 UNL     1      20.560   3.256  52.246  1.00  0.00     0.226 C 
HETATM   12  N2  UNL     1      20.083   2.028  51.930  1.00  0.00    -0.280 NA
HETATM   13  C11 UNL     1      21.260   1.219  51.507  1.00  0.00     0.182 C 
HETATM   14  C12 UNL     1      21.893   0.732  52.771  1.00  0.00     0.144 C 
HETATM   15  O1  UNL     1      23.141   0.167  52.404  1.00  0.00    -0.374 OA
HETATM   16  C15 UNL     1      24.112   0.954  53.071  1.00  0.00     0.151 C 
HETATM   17  C16 UNL     1      25.101   0.155  53.840  1.00  0.00     0.045 C 
ENDROOT
BRANCH  14  18
HETATM   18  C13 UNL     1      21.048  -0.278  53.479  1.00  0.00     0.065 C 
BRANCH  18  19
HETATM   19  C14 UNL     1      21.423  -0.513  54.880  1.00  0.00     0.224 C 
HETATM   20  F1  UNL     1      22.337  -1.491  55.081  1.00  0.00    -0.255 F 
ENDBRANCH  18  19
ENDBRANCH  14  18
TORSDOF 2
ENDMDL
MODEL 2
REMARK VINA RESULT:      -7.4      2.485      3.751
REMARK  2 active torsions:
REMARK  status: ('A' for Active; 'I' for Inactive)
REMARK    1  A    between atoms: C12_14  and  C13_15 
REMARK    2  A    between atoms: C13_15  and  C14_16 
ROOT
HETATM    1  C1  UNL     1      28.101   6.846  47.990  1.00  0.00     0.018 C 
HETATM    2  C2  UNL     1      27.342   6.028  48.440  1.00  0.00    -0.078 C 
HETATM    3  C3  UNL     1      26.446   5.079  48.989  1.00  0.00     0.017 A 
HETATM    4  C4  UNL     1      25.080   5.199  48.867  1.00  0.00     0.021 A 
HETATM    5  C5  UNL     1      24.084   4.376  49.335  1.00  0.00     0.012 A 
HETATM    6  C6  UNL     1      24.517   3.276  50.022  1.00  0.00    -0.018 A 
HETATM    7  C7  UNL     1      25.860   3.077  50.191  1.00  0.00    -0.008 A 
HETATM    8  C8  UNL     1      26.805   3.943  49.695  1.00  0.00     0.034 A 
HETATM    9  C9  UNL     1      26.523   1.987  50.905  1.00  0.00     0.130 C 
HETATM   10  N1  UNL     1      26.928   1.103  51.706  1.00  0.00    -0.254 NA
HETATM   11  C10 UNL     1      26.545   0.722  52.990  1.00  0.00     0.226 C 
HETATM   12  N2  UNL     1      25.660   1.032  53.968  1.00  0.00    -0.280 NA
HETATM   13  C11 UNL     1      24.846   2.168  53.449  1.00  0.00     0.182 C 
HETATM   14  C12 UNL     1      23.793   1.549  52.586  1.00  0.00     0.144 C 
HETATM   15  O1  UNL     1      23.163   2.617  51.896  1.00  0.00    -0.374 OA
HETATM   16  C15 UNL     1      23.414   2.366  50.523  1.00  0.00     0.151 C 
HETATM   17  C16 UNL     1      22.193   2.413  49.676  1.00  0.00     0.045 C 
ENDROOT
BRANCH  14  18
HETATM   18  C13 UNL     1      22.790   0.773  53.377  1.00  0.00     0.065 C 
BRANCH  18  19
HETATM   19  C14 UNL     1      22.294  -0.439  52.713  1.00  0.00     0.224 C 
HETATM   20  F1  UNL     1      21.482  -0.230  51.651  1.00  0.00    -0.255 F 
ENDBRANCH  18  19
ENDBRANCH  14  18
TORSDOF 2
ENDMDL
MODEL 3
REMARK VINA RESULT:      -7.3      2.478      3.565
REMARK  2 active torsions:
REMARK  status: ('A' for Active; 'I' for Inactive)
REMARK    1  A    between atoms: C12_14  and  C13_15 
REMARK    2  A    between atoms: C13_15  and  C14_16 
ROOT
HETATM    1  C1  UNL     1      29.679  -0.011  53.457  1.00  0.00     0.018 C 
HETATM    2  C2  UNL     1      28.481   0.099  53.467  1.00  0.00    -0.078 C 
HETATM    3  C3  UNL     1      27.071   0.222  53.455  1.00  0.00     0.017 A 
HETATM    4  C4  UNL     1      26.236  -0.861  53.611  1.00  0.00     0.021 A 
HETATM    5  C5  UNL     1      24.862  -0.913  53.624  1.00  0.00     0.012 A 
HETATM    6  C6  UNL     1      24.236   0.290  53.457  1.00  0.00    -0.018 A 
HETATM    7  C7  UNL     1      24.989   1.421  53.294  1.00  0.00    -0.008 A 
HETATM    8  C8  UNL     1      26.364   1.401  53.292  1.00  0.00     0.034 A 
HETATM    9  C9  UNL     1      24.520   2.789  53.082  1.00  0.00     0.130 C 
HETATM   10  N1  UNL     1      23.967   3.862  52.721  1.00  0.00    -0.254 NA
HETATM   11  C10 UNL     1      23.003   4.171  51.764  1.00  0.00     0.226 C 
HETATM   12  N2  UNL     1      22.227   3.593  50.816  1.00  0.00    -0.280 NA
HETATM   13  C11 UNL     1      22.549   2.138  50.845  1.00  0.00     0.182 C 
HETATM   14  C12 UNL     1      21.741   1.566  51.966  1.00  0.00     0.144 C 
HETATM   15  O1  UNL     1      22.210   0.242  52.164  1.00  0.00    -0.374 OA
HETATM   16  C15 UNL     1      22.722   0.228  53.486  1.00  0.00     0.151 C 
HETATM   17  C16 UNL     1      22.203  -0.893  54.314  1.00  0.00     0.045 C 
ENDROOT
BRANCH  14  18
HETATM   18  C13 UNL     1      20.275   1.564  51.669  1.00  0.00     0.065 C 
BRANCH  18  19
HETATM   19  C14 UNL     1      19.722   0.244  51.338  1.00  0.00     0.224 C 
HETATM   20  F1  UNL     1      19.172  -0.432  52.374  1.00  0.00    -0.255 F 
ENDBRANCH  18  19
ENDBRANCH  14  18
TORSDOF 2
ENDMDL
MODEL 4
REMARK VINA RESULT:      -7.1      2.464      5.992
REMARK  2 active torsions:
REMARK  status: ('A' for Active; 'I' for Inactive)
REMARK    1  A    between atoms: C12_14  and  C13_15 
REMARK    2  A    between atoms: C13_15  and  C14_16 
ROOT
HETATM    1  C1  UNL     1      16.399  -0.745  52.342  1.00  0.00     0.018 C 
HETATM    2  C2  UNL     1      17.586  -0.551  52.345  1.00  0.00    -0.078 C 
HETATM    3  C3  UNL     1      18.980  -0.301  52.358  1.00  0.00     0.017 A 
HETATM    4  C4  UNL     1      19.758  -0.525  53.471  1.00  0.00     0.021 A 
HETATM    5  C5  UNL     1      21.108  -0.337  53.647  1.00  0.00     0.012 A 
HETATM    6  C6  UNL     1      21.773   0.142  52.554  1.00  0.00    -0.018 A 
HETATM    7  C7  UNL     1      21.078   0.393  51.403  1.00  0.00    -0.008 A 
HETATM    8  C8  UNL     1      19.724   0.182  51.295  1.00  0.00     0.034 A 
HETATM    9  C9  UNL     1      21.592   0.922  50.141  1.00  0.00     0.130 C 
HETATM   10  N1  UNL     1      22.145   1.556  49.202  1.00  0.00    -0.254 NA
HETATM   11  C10 UNL     1      22.953   2.689  49.153  1.00  0.00     0.226 C 
HETATM   12  N2  UNL     1      23.521   3.621  49.955  1.00  0.00    -0.280 NA
HETATM   13  C11 UNL     1      23.116   3.276  51.347  1.00  0.00     0.182 C 
HETATM   14  C12 UNL     1      24.062   2.206  51.791  1.00  0.00     0.144 C 
HETATM   15  O1  UNL     1      23.548   1.698  53.012  1.00  0.00    -0.374 OA
HETATM   16  C15 UNL     1      23.264   0.334  52.751  1.00  0.00     0.151 C 
HETATM   17  C16 UNL     1      23.840  -0.597  53.757  1.00  0.00     0.045 C 
ENDROOT
BRANCH  14  18
HETATM   18  C13 UNL     1      25.453   2.717  51.981  1.00  0.00     0.065 C 
BRANCH  18  19
HETATM   19  C14 UNL     1      26.497   1.893  51.358  1.00  0.00     0.224 C 
HETATM   20  F1  UNL     1      26.401   0.563  51.584  1.00  0.00    -0.255 F 
ENDBRANCH  18  19
ENDBRANCH  14  18
TORSDOF 2
ENDMDL
MODEL 5
REMARK VINA RESULT:      -7.0      2.704      4.248
REMARK  2 active torsions:
REMARK  status: ('A' for Active; 'I' for Inactive)
REMARK    1  A    between atoms: C12_14  and  C13_15 
REMARK    2  A    between atoms: C13_15  and  C14_16 
ROOT
HETATM    1  C1  UNL     1      28.656   0.256  54.951  1.00  0.00     0.018 C 
HETATM    2  C2  UNL     1      27.627   0.416  54.348  1.00  0.00    -0.078 C 
HETATM    3  C3  UNL     1      26.409   0.618  53.655  1.00  0.00     0.017 A 
HETATM    4  C4  UNL     1      26.214   1.682  52.804  1.00  0.00     0.021 A 
HETATM    5  C5  UNL     1      25.106   2.019  52.063  1.00  0.00     0.012 A 
HETATM    6  C6  UNL     1      24.043   1.170  52.193  1.00  0.00    -0.018 A 
HETATM    7  C7  UNL     1      24.149   0.084  53.019  1.00  0.00    -0.008 A 
HETATM    8  C8  UNL     1      25.291  -0.195  53.732  1.00  0.00     0.034 A 
HETATM    9  C9  UNL     1      23.133  -0.925  53.311  1.00  0.00     0.130 C 
HETATM   10  N1  UNL     1      22.104  -1.592  53.602  1.00  0.00    -0.254 NA
HETATM   11  C10 UNL     1      20.802  -1.246  53.957  1.00  0.00     0.226 C 
HETATM   12  N2  UNL     1      20.013  -0.165  54.166  1.00  0.00    -0.280 NA
HETATM   13  C11 UNL     1      20.870   1.030  53.923  1.00  0.00     0.182 C 
HETATM   14  C12 UNL     1      20.879   1.227  52.441  1.00  0.00     0.144 C 
HETATM   15  O1  UNL     1      21.873   2.203  52.172  1.00  0.00    -0.374 OA
HETATM   16  C15 UNL     1      22.830   1.539  51.364  1.00  0.00     0.151 C 
HETATM   17  C16 UNL     1      23.179   2.281  50.124  1.00  0.00     0.045 C 
ENDROOT
BRANCH  14  18
HETATM   18  C13 UNL     1      19.552   1.673  51.917  1.00  0.00     0.065 C 
BRANCH  18  19
HETATM   19  C14 UNL     1      18.988   0.812  50.869  1.00  0.00     0.224 C 
HETATM   20  F1  UNL     1      18.681  -0.448  51.254  1.00  0.00    -0.255 F 
ENDBRANCH  18  19
ENDBRANCH  14  18
TORSDOF 2
ENDMDL
MODEL 6
REMARK VINA RESULT:      -7.0      3.188      5.993
REMARK  2 active torsions:
REMARK  status: ('A' for Active; 'I' for Inactive)
REMARK    1  A    between atoms: C12_14  and  C13_15 
REMARK    2  A    between atoms: C13_15  and  C14_16 
ROOT
HETATM    1  C1  UNL     1      20.508  -1.532  54.230  1.00  0.00     0.018 C 
HETATM    2  C2  UNL     1      21.325  -0.873  53.642  1.00  0.00    -0.078 C 
HETATM    3  C3  UNL     1      22.280  -0.078  52.962  1.00  0.00     0.017 A 
HETATM    4  C4  UNL     1      23.538   0.155  53.469  1.00  0.00     0.021 A 
HETATM    5  C5  UNL     1      24.571   0.894  52.942  1.00  0.00     0.012 A 
HETATM    6  C6  UNL     1      24.306   1.481  51.737  1.00  0.00    -0.018 A 
HETATM    7  C7  UNL     1      23.079   1.302  51.159  1.00  0.00    -0.008 A 
HETATM    8  C8  UNL     1      22.089   0.548  51.742  1.00  0.00     0.034 A 
HETATM    9  C9  UNL     1      22.592   1.855  49.897  1.00  0.00     0.130 C 
HETATM   10  N1  UNL     1      22.262   2.554  48.901  1.00  0.00    -0.254 NA
HETATM   11  C10 UNL     1      22.392   3.905  48.589  1.00  0.00     0.226 C 
HETATM   12  N2  UNL     1      22.867   5.068  49.096  1.00  0.00    -0.280 NA
HETATM   13  C11 UNL     1      23.431   4.740  50.436  1.00  0.00     0.182 C 
HETATM   14  C12 UNL     1      24.802   4.202  50.178  1.00  0.00     0.144 C 
HETATM   15  O1  UNL     1      25.259   3.664  51.409  1.00  0.00    -0.374 OA
HETATM   16  C15 UNL     1      25.454   2.283  51.156  1.00  0.00     0.151 C 
HETATM   17  C16 UNL     1      26.786   1.781  51.582  1.00  0.00     0.045 C 
ENDROOT
BRANCH  14  18
HETATM   18  C13 UNL     1      25.743   5.253  49.684  1.00  0.00     0.065 C 
BRANCH  18  19
HETATM   19  C14 UNL     1      26.919   4.733  48.973  1.00  0.00     0.224 C 
HETATM   20  F1  UNL     1      27.577   5.631  48.204  1.00  0.00    -0.255 F 
ENDBRANCH  18  19
ENDBRANCH  14  18
TORSDOF 2
ENDMDL
MODEL 7
REMARK VINA RESULT:      -7.0      2.053      3.172
REMARK  2 active torsions:
REMARK  status: ('A' for Active; 'I' for Inactive)
REMARK    1  A    between atoms: C12_14  and  C13_15 
REMARK    2  A    between atoms: C13_15  and  C14_16 
ROOT
HETATM    1  C1  UNL     1      26.462   2.830  50.818  1.00  0.00     0.018 C 
HETATM    2  C2  UNL     1      25.475   2.370  51.331  1.00  0.00    -0.078 C 
HETATM    3  C3  UNL     1      24.310   1.818  51.915  1.00  0.00     0.017 A 
HETATM    4  C4  UNL     1      24.310   0.590  52.537  1.00  0.00     0.021 A 
HETATM    5  C5  UNL     1      23.278  -0.083  53.148  1.00  0.00     0.012 A 
HETATM    6  C6  UNL     1      22.076   0.567  53.132  1.00  0.00    -0.018 A 
HETATM    7  C7  UNL     1      21.984   1.793  52.534  1.00  0.00    -0.008 A 
HETATM    8  C8  UNL     1      23.060   2.411  51.941  1.00  0.00     0.034 A 
HETATM    9  C9  UNL     1      20.798   2.636  52.392  1.00  0.00     0.130 C 
HETATM   10  N1  UNL     1      19.665   3.148  52.185  1.00  0.00    -0.254 NA
HETATM   11  C10 UNL     1      18.456   2.646  51.710  1.00  0.00     0.226 C 
HETATM   12  N2  UNL     1      17.887   1.501  51.262  1.00  0.00    -0.280 NA
HETATM   13  C11 UNL     1      18.951   0.459  51.313  1.00  0.00     0.182 C 
HETATM   14  C12 UNL     1      18.981  -0.020  52.729  1.00  0.00     0.144 C 
HETATM   15  O1  UNL     1      20.139  -0.830  52.854  1.00  0.00    -0.374 OA
HETATM   16  C15 UNL     1      20.945  -0.174  53.818  1.00  0.00     0.151 C 
HETATM   17  C16 UNL     1      21.415  -1.067  54.909  1.00  0.00     0.045 C 
ENDROOT
BRANCH  14  18
HETATM   18  C13 UNL     1      17.757  -0.795  53.096  1.00  0.00     0.065 C 
BRANCH  18  19
HETATM   19  C14 UNL     1      17.950  -2.250  53.155  1.00  0.00     0.224 C 
HETATM   20  F1  UNL     1      18.274  -2.744  54.372  1.00  0.00    -0.255 F 
ENDBRANCH  18  19
ENDBRANCH  14  18
TORSDOF 2
ENDMDL
MODEL 8
REMARK VINA RESULT:      -6.9      1.711      2.593
REMARK  2 active torsions:
REMARK  status: ('A' for Active; 'I' for Inactive)
REMARK    1  A    between atoms: C12_14  and  C13_15 
REMARK    2  A    between atoms: C13_15  and  C14_16 
ROOT
HETATM    1  C1  UNL     1      27.758   7.713  47.268  1.00  0.00     0.018 C 
HETATM    2  C2  UNL     1      27.271   6.873  47.980  1.00  0.00    -0.078 C 
HETATM    3  C3  UNL     1      26.687   5.878  48.799  1.00  0.00     0.017 A 
HETATM    4  C4  UNL     1      27.192   4.599  48.877  1.00  0.00     0.021 A 
HETATM    5  C5  UNL     1      26.749   3.527  49.615  1.00  0.00     0.012 A 
HETATM    6  C6  UNL     1      25.645   3.769  50.383  1.00  0.00    -0.018 A 
HETATM    7  C7  UNL     1      25.076   5.014  50.366  1.00  0.00    -0.008 A 
HETATM    8  C8  UNL     1      25.572   6.044  49.603  1.00  0.00     0.034 A 
HETATM    9  C9  UNL     1      23.891   5.469  51.090  1.00  0.00     0.130 C 
HETATM   10  N1  UNL     1      22.763   5.648  51.622  1.00  0.00    -0.254 NA
HETATM   11  C10 UNL     1      21.571   4.927  51.615  1.00  0.00     0.226 C 
HETATM   12  N2  UNL     1      21.020   3.796  51.110  1.00  0.00    -0.280 NA
HETATM   13  C11 UNL     1      22.084   3.140  50.298  1.00  0.00     0.182 C 
HETATM   14  C12 UNL     1      22.930   2.385  51.273  1.00  0.00     0.144 C 
HETATM   15  O1  UNL     1      24.078   1.955  50.559  1.00  0.00    -0.374 OA
HETATM   16  C15 UNL     1      25.170   2.587  51.204  1.00  0.00     0.151 C 
HETATM   17  C16 UNL     1      26.269   1.654  51.566  1.00  0.00     0.045 C 
ENDROOT
BRANCH  14  18
HETATM   18  C13 UNL     1      22.212   1.215  51.864  1.00  0.00     0.065 C 
BRANCH  18  19
HETATM   19  C14 UNL     1      22.827   0.673  53.083  1.00  0.00     0.224 C 
HETATM   20  F1  UNL     1      23.390  -0.551  52.956  1.00  0.00    -0.255 F 
ENDBRANCH  18  19
ENDBRANCH  14  18
TORSDOF 2
ENDMDL
MODEL 9
REMARK VINA RESULT:      -6.8      6.215      9.619
REMARK  2 active torsions:
REMARK  status: ('A' for Active; 'I' for Inactive)
REMARK    1  A    between atoms: C12_14  and  C13_15 
REMARK    2  A    between atoms: C13_15  and  C14_16 
ROOT
HETATM    1  C1  UNL     1      24.133   2.992  50.029  1.00  0.00     0.018 C 
HETATM    2  C2  UNL     1      24.913   3.803  49.602  1.00  0.00    -0.078 C 
HETATM    3  C3  UNL     1      25.836   4.763  49.121  1.00  0.00     0.017 A 
HETATM    4  C4  UNL     1      27.178   4.489  48.983  1.00  0.00     0.021 A 
HETATM    5  C5  UNL     1      28.195   5.299  48.536  1.00  0.00     0.012 A 
HETATM    6  C6  UNL     1      27.814   6.561  48.177  1.00  0.00    -0.018 A 
HETATM    7  C7  UNL     1      26.498   6.920  48.282  1.00  0.00    -0.008 A 
HETATM    8  C8  UNL     1      25.529   6.057  48.737  1.00  0.00     0.034 A 
HETATM    9  C9  UNL     1      25.893   8.214  47.973  1.00  0.00     0.130 C 
HETATM   10  N1  UNL     1      25.562   9.424  47.848  1.00  0.00    -0.254 NA
HETATM   11  C10 UNL     1      26.094  10.619  48.325  1.00  0.00     0.226 C 
HETATM   12  N2  UNL     1      27.110  11.100  49.082  1.00  0.00    -0.280 NA
HETATM   13  C11 UNL     1      27.892   9.913  49.533  1.00  0.00     0.182 C 
HETATM   14  C12 UNL     1      28.799   9.571  48.394  1.00  0.00     0.144 C 
HETATM   15  O1  UNL     1      29.375   8.312  48.705  1.00  0.00    -0.374 OA
HETATM   16  C15 UNL     1      28.938   7.444  47.673  1.00  0.00     0.151 C 
HETATM   17  C16 UNL     1      30.039   6.675  47.036  1.00  0.00     0.045 C 
ENDROOT
BRANCH  14  18
HETATM   18  C13 UNL     1      29.866  10.597  48.188  1.00  0.00     0.065 C 
BRANCH  18  19
HETATM   19  C14 UNL     1      30.669  10.893  49.381  1.00  0.00     0.224 C 
HETATM   20  F1  UNL     1      30.787  12.204  49.694  1.00  0.00    -0.255 F 
ENDBRANCH  18  19
ENDBRANCH  14  18
TORSDOF 2
ENDMDL
