MODEL 1
REMARK VINA RESULT:      -9.5      0.000      0.000
REMARK  3 active torsions:
REMARK  status: ('A' for Active; 'I' for Inactive)
REMARK    1  A    between atoms: C9_11  and  C10_12 
REMARK    2  A    between atoms: C13_15  and  N2_16 
REMARK    3  A    between atoms: N2_16  and  C14_17 
ROOT
HETATM    1  C10 UNL     1      25.891   2.867  50.160  1.00  0.00     0.029 C 
HETATM    2  C11 UNL     1      26.075   2.169  51.290  1.00  0.00     0.043 A 
HETATM    3  C12 UNL     1      25.060   1.203  51.774  1.00  0.00     0.137 A 
HETATM    4  C13 UNL     1      25.573   0.628  53.023  1.00  0.00     0.111 A 
HETATM    5  N3  UNL     1      26.712   0.908  53.604  1.00  0.00    -0.228 NA
HETATM    6  C20 UNL     1      27.594   1.860  53.026  1.00  0.00     0.235 A 
HETATM    7  N4  UNL     1      27.308   2.468  51.926  1.00  0.00    -0.246 NA
ENDROOT
BRANCH   1   8
HETATM    8  C9  UNL     1      26.817   3.840  49.590  1.00  0.00     0.028 C 
HETATM    9  C8  UNL     1      26.598   5.139  49.342  1.00  0.00     0.027 C 
HETATM   10  N1  UNL     1      27.810   5.693  48.776  1.00  0.00    -0.388 N 
HETATM   11  C21 UNL     1      25.235   5.555  49.717  1.00  0.00     0.166 C 
HETATM   12  C7  UNL     1      27.914   6.955  48.026  1.00  0.00     0.153 C 
HETATM   13  H11 UNL     1      28.693   5.164  48.903  1.00  0.00     0.159 HD
HETATM   14  C4  UNL     1      26.751   7.790  48.428  1.00  0.00    -0.061 C 
HETATM   15  C3  UNL     1      26.287   7.834  49.877  1.00  0.00     0.075 C 
HETATM   16  C5  UNL     1      26.030   8.520  47.566  1.00  0.00     0.004 C 
HETATM   17  C2  UNL     1      24.985   7.023  49.810  1.00  0.00     0.083 C 
HETATM   18  C1  UNL     1      24.210   7.388  51.056  1.00  0.00     0.048 C 
HETATM   19  O1  UNL     1      24.218   7.456  48.727  1.00  0.00    -0.375 OA
HETATM   20  C6  UNL     1      24.667   8.623  48.145  1.00  0.00     0.196 C 
HETATM   21 CL2  UNL     1      24.028   4.757  48.651  1.00  0.00    -0.115 Cl
ENDBRANCH   1   8
BRANCH   4  22
HETATM   22  N2  UNL     1      24.790  -0.322  53.686  1.00  0.00    -0.344 N 
HETATM   23  H16 UNL     1      25.293  -1.143  54.142  1.00  0.00     0.167 HD
BRANCH  22  24
HETATM   24  C14 UNL     1      23.376  -0.299  53.818  1.00  0.00     0.035 A 
HETATM   25  C15 UNL     1      22.606  -1.254  54.423  1.00  0.00     0.029 A 
HETATM   26  C16 UNL     1      21.239  -1.222  54.549  1.00  0.00     0.004 A 
HETATM   27  C17 UNL     1      20.550  -0.148  54.033  1.00  0.00     0.024 A 
HETATM   28  C18 UNL     1      21.268   0.848  53.411  1.00  0.00     0.036 A 
HETATM   29 CL1  UNL     1      20.436   2.251  52.729  1.00  0.00    -0.084 Cl
HETATM   30  C19 UNL     1      22.638   0.765  53.312  1.00  0.00     0.053 A 
ENDBRANCH  22  24
ENDBRANCH   4  22
TORSDOF 3
ENDMDL
MODEL 2
REMARK VINA RESULT:      -9.1      4.660      6.878
REMARK  3 active torsions:
REMARK  status: ('A' for Active; 'I' for Inactive)
REMARK    1  A    between atoms: C9_11  and  C10_12 
REMARK    2  A    between atoms: C13_15  and  N2_16 
REMARK    3  A    between atoms: N2_16  and  C14_17 
ROOT
HETATM    1  C10 UNL     1      29.290   5.734  48.086  1.00  0.00     0.029 C 
HETATM    2  C11 UNL     1      27.984   5.707  48.385  1.00  0.00     0.043 A 
HETATM    3  C12 UNL     1      27.331   4.473  48.887  1.00  0.00     0.137 A 
HETATM    4  C13 UNL     1      25.916   4.791  49.104  1.00  0.00     0.111 A 
HETATM    5  N3  UNL     1      25.332   5.944  48.899  1.00  0.00    -0.228 NA
HETATM    6  C20 UNL     1      26.082   7.049  48.413  1.00  0.00     0.235 A 
HETATM    7  N4  UNL     1      27.343   6.954  48.164  1.00  0.00    -0.246 NA
ENDROOT
BRANCH   1   8
HETATM    8  C9  UNL     1      30.034   6.886  47.588  1.00  0.00     0.028 C 
HETATM    9  C8  UNL     1      31.364   7.044  47.522  1.00  0.00     0.027 C 
HETATM   10  N1  UNL     1      31.629   8.349  46.957  1.00  0.00    -0.388 N 
HETATM   11  C21 UNL     1      32.089   5.867  48.035  1.00  0.00     0.166 C 
HETATM   12  C7  UNL     1      32.902   9.083  47.039  1.00  0.00     0.153 C 
HETATM   13  H11 UNL     1      30.862   8.823  46.445  1.00  0.00     0.159 HD
HETATM   14  C4  UNL     1      33.965   8.072  47.277  1.00  0.00    -0.061 C 
HETATM   15  C3  UNL     1      33.938   6.727  46.563  1.00  0.00     0.075 C 
HETATM   16  C5  UNL     1      34.979   8.251  48.135  1.00  0.00     0.004 C 
HETATM   17  C2  UNL     1      33.541   5.779  47.703  1.00  0.00     0.083 C 
HETATM   18  C1  UNL     1      33.933   4.394  47.238  1.00  0.00     0.048 C 
HETATM   19  O1  UNL     1      34.315   6.052  48.831  1.00  0.00    -0.375 OA
HETATM   20  C6  UNL     1      35.379   6.899  48.598  1.00  0.00     0.196 C 
HETATM   21 CL2  UNL     1      31.815   5.691  49.802  1.00  0.00    -0.115 Cl
ENDBRANCH   1   8
BRANCH   4  22
HETATM   22  N2  UNL     1      25.075   3.780  49.581  1.00  0.00    -0.344 N 
HETATM   23  H16 UNL     1      24.315   3.423  48.924  1.00  0.00     0.167 HD
BRANCH  22  24
HETATM   24  C14 UNL     1      25.134   3.174  50.863  1.00  0.00     0.035 A 
HETATM   25  C15 UNL     1      24.429   3.556  51.970  1.00  0.00     0.029 A 
HETATM   26  C16 UNL     1      24.490   2.961  53.207  1.00  0.00     0.004 A 
HETATM   27  C17 UNL     1      25.324   1.880  53.382  1.00  0.00     0.024 A 
HETATM   28  C18 UNL     1      26.062   1.445  52.304  1.00  0.00     0.036 A 
HETATM   29 CL1  UNL     1      27.150   0.062  52.471  1.00  0.00    -0.084 Cl
HETATM   30  C19 UNL     1      25.963   2.080  51.087  1.00  0.00     0.053 A 
ENDBRANCH  22  24
ENDBRANCH   4  22
TORSDOF 3
ENDMDL
MODEL 3
REMARK VINA RESULT:      -9.1      4.754      7.820
REMARK  3 active torsions:
REMARK  status: ('A' for Active; 'I' for Inactive)
REMARK    1  A    between atoms: C9_11  and  C10_12 
REMARK    2  A    between atoms: C13_15  and  N2_16 
REMARK    3  A    between atoms: N2_16  and  C14_17 
ROOT
HETATM    1  C10 UNL     1      22.490  -0.319  53.673  1.00  0.00     0.029 C 
HETATM    2  C11 UNL     1      21.178  -0.451  53.434  1.00  0.00     0.043 A 
HETATM    3  C12 UNL     1      20.387  -1.545  54.047  1.00  0.00     0.137 A 
HETATM    4  C13 UNL     1      19.006  -1.396  53.574  1.00  0.00     0.111 A 
HETATM    5  N3  UNL     1      18.551  -0.474  52.765  1.00  0.00    -0.228 NA
HETATM    6  C20 UNL     1      19.425   0.520  52.249  1.00  0.00     0.235 A 
HETATM    7  N4  UNL     1      20.677   0.546  52.557  1.00  0.00    -0.246 NA
ENDROOT
BRANCH   1   8
HETATM    8  C9  UNL     1      23.364   0.714  53.127  1.00  0.00     0.028 C 
HETATM    9  C8  UNL     1      24.696   0.672  52.975  1.00  0.00     0.027 C 
HETATM   10  N1  UNL     1      25.116   1.929  52.394  1.00  0.00    -0.388 N 
HETATM   11  C21 UNL     1      25.268  -0.604  53.439  1.00  0.00     0.166 C 
HETATM   12  C7  UNL     1      26.487   2.463  52.393  1.00  0.00     0.153 C 
HETATM   13  H11 UNL     1      24.397   2.517  51.933  1.00  0.00     0.159 HD
HETATM   14  C4  UNL     1      27.400   1.303  52.561  1.00  0.00    -0.061 C 
HETATM   15  C3  UNL     1      27.126  -0.015  51.850  1.00  0.00     0.075 C 
HETATM   16  C5  UNL     1      28.483   1.320  53.350  1.00  0.00     0.004 C 
HETATM   17  C2  UNL     1      26.666  -0.905  53.013  1.00  0.00     0.083 C 
HETATM   18  C1  UNL     1      26.816  -2.328  52.524  1.00  0.00     0.048 C 
HETATM   19  O1  UNL     1      27.544  -0.762  54.088  1.00  0.00    -0.375 OA
HETATM   20  C6  UNL     1      28.705  -0.081  53.786  1.00  0.00     0.196 C 
HETATM   21 CL2  UNL     1      25.086  -0.755  55.220  1.00  0.00    -0.115 Cl
ENDBRANCH   1   8
BRANCH   4  22
HETATM   22  N2  UNL     1      18.052  -2.320  54.013  1.00  0.00    -0.344 N 
HETATM   23  H16 UNL     1      18.194  -2.752  54.977  1.00  0.00     0.167 HD
BRANCH  22  24
HETATM   24  C14 UNL     1      16.901  -2.742  53.298  1.00  0.00     0.035 A 
HETATM   25  C15 UNL     1      16.202  -2.003  52.384  1.00  0.00     0.029 A 
HETATM   26  C16 UNL     1      15.090  -2.421  51.694  1.00  0.00     0.004 A 
HETATM   27  C17 UNL     1      14.610  -3.692  51.916  1.00  0.00     0.024 A 
HETATM   28  C18 UNL     1      15.271  -4.487  52.825  1.00  0.00     0.036 A 
HETATM   29 CL1  UNL     1      14.699  -6.128  53.152  1.00  0.00    -0.084 Cl
HETATM   30  C19 UNL     1      16.379  -4.017  53.490  1.00  0.00     0.053 A 
ENDBRANCH  22  24
ENDBRANCH   4  22
TORSDOF 3
ENDMDL
MODEL 4
REMARK VINA RESULT:      -9.0      4.758      6.922
REMARK  3 active torsions:
REMARK  status: ('A' for Active; 'I' for Inactive)
REMARK    1  A    between atoms: C9_11  and  C10_12 
REMARK    2  A    between atoms: C13_15  and  N2_16 
REMARK    3  A    between atoms: N2_16  and  C14_17 
ROOT
HETATM    1  C10 UNL     1      23.190   1.057  51.472  1.00  0.00     0.029 C 
HETATM    2  C11 UNL     1      21.955   1.522  51.710  1.00  0.00     0.043 A 
HETATM    3  C12 UNL     1      20.758   0.666  51.529  1.00  0.00     0.137 A 
HETATM    4  C13 UNL     1      19.588   1.483  51.868  1.00  0.00     0.111 A 
HETATM    5  N3  UNL     1      19.592   2.732  52.258  1.00  0.00    -0.228 NA
HETATM    6  C20 UNL     1      20.818   3.437  52.389  1.00  0.00     0.235 A 
HETATM    7  N4  UNL     1      21.951   2.877  52.133  1.00  0.00    -0.246 NA
ENDROOT
BRANCH   1   8
HETATM    8  C9  UNL     1      24.433   1.806  51.615  1.00  0.00     0.028 C 
HETATM    9  C8  UNL     1      25.578   1.403  52.184  1.00  0.00     0.027 C 
HETATM   10  N1  UNL     1      26.529   2.490  52.089  1.00  0.00    -0.388 N 
HETATM   11  C21 UNL     1      25.487   0.026  52.701  1.00  0.00     0.166 C 
HETATM   12  C7  UNL     1      27.759   2.633  52.884  1.00  0.00     0.153 C 
HETATM   13  H11 UNL     1      26.339   3.244  51.403  1.00  0.00     0.159 HD
HETATM   14  C4  UNL     1      28.130   1.271  53.348  1.00  0.00    -0.061 C 
HETATM   15  C3  UNL     1      27.987   0.066  52.428  1.00  0.00     0.075 C 
HETATM   16  C5  UNL     1      28.576   1.006  54.584  1.00  0.00     0.004 C 
HETATM   17  C2  UNL     1      26.774  -0.649  53.040  1.00  0.00     0.083 C 
HETATM   18  C1  UNL     1      26.827  -2.066  52.516  1.00  0.00     0.048 C 
HETATM   19  O1  UNL     1      26.929  -0.733  54.425  1.00  0.00    -0.375 OA
HETATM   20  C6  UNL     1      28.188  -0.396  54.876  1.00  0.00     0.196 C 
HETATM   21 CL2  UNL     1      24.335  -0.044  54.079  1.00  0.00    -0.115 Cl
ENDBRANCH   1   8
BRANCH   4  22
HETATM   22  N2  UNL     1      18.321   0.897  51.774  1.00  0.00    -0.344 N 
HETATM   23  H16 UNL     1      17.571   1.432  51.239  1.00  0.00     0.167 HD
BRANCH  22  24
HETATM   24  C14 UNL     1      17.932  -0.352  52.324  1.00  0.00     0.035 A 
HETATM   25  C15 UNL     1      18.623  -1.075  53.257  1.00  0.00     0.029 A 
HETATM   26  C16 UNL     1      18.237  -2.282  53.786  1.00  0.00     0.004 A 
HETATM   27  C17 UNL     1      17.052  -2.843  53.364  1.00  0.00     0.024 A 
HETATM   28  C18 UNL     1      16.309  -2.164  52.426  1.00  0.00     0.036 A 
HETATM   29 CL1  UNL     1      14.780  -2.836  51.847  1.00  0.00    -0.084 Cl
HETATM   30  C19 UNL     1      16.744  -0.958  51.928  1.00  0.00     0.053 A 
ENDBRANCH  22  24
ENDBRANCH   4  22
TORSDOF 3
ENDMDL
MODEL 5
REMARK VINA RESULT:      -9.0      2.740      3.780
REMARK  3 active torsions:
REMARK  status: ('A' for Active; 'I' for Inactive)
REMARK    1  A    between atoms: C9_11  and  C10_12 
REMARK    2  A    between atoms: C13_15  and  N2_16 
REMARK    3  A    between atoms: N2_16  and  C14_17 
ROOT
HETATM    1  C10 UNL     1      26.753   5.119  48.863  1.00  0.00     0.029 C 
HETATM    2  C11 UNL     1      26.144   4.319  49.750  1.00  0.00     0.043 A 
HETATM    3  C12 UNL     1      24.705   4.474  50.071  1.00  0.00     0.137 A 
HETATM    4  C13 UNL     1      24.372   3.453  51.069  1.00  0.00     0.111 A 
HETATM    5  N3  UNL     1      25.185   2.567  51.583  1.00  0.00    -0.228 NA
HETATM    6  C20 UNL     1      26.548   2.530  51.183  1.00  0.00     0.235 A 
HETATM    7  N4  UNL     1      27.021   3.355  50.313  1.00  0.00    -0.246 NA
ENDROOT
BRANCH   1   8
HETATM    8  C9  UNL     1      28.157   5.057  48.473  1.00  0.00     0.028 C 
HETATM    9  C8  UNL     1      28.993   6.079  48.235  1.00  0.00     0.027 C 
HETATM   10  N1  UNL     1      30.281   5.525  47.878  1.00  0.00    -0.388 N 
HETATM   11  C21 UNL     1      28.336   7.386  48.413  1.00  0.00     0.166 C 
HETATM   12  C7  UNL     1      31.369   6.242  47.193  1.00  0.00     0.153 C 
HETATM   13  H11 UNL     1      30.469   4.535  48.120  1.00  0.00     0.159 HD
HETATM   14  C4  UNL     1      31.150   7.691  47.441  1.00  0.00    -0.061 C 
HETATM   15  C3  UNL     1      30.688   8.189  48.804  1.00  0.00     0.075 C 
HETATM   16  C5  UNL     1      31.311   8.635  46.504  1.00  0.00     0.004 C 
HETATM   17  C2  UNL     1      29.231   8.576  48.514  1.00  0.00     0.083 C 
HETATM   18  C1  UNL     1      28.822   9.500  49.639  1.00  0.00     0.048 C 
HETATM   19  O1  UNL     1      29.171   9.331  47.342  1.00  0.00    -0.375 OA
HETATM   20  C6  UNL     1      30.400   9.747  46.872  1.00  0.00     0.196 C 
HETATM   21 CL2  UNL     1      27.080   7.625  47.151  1.00  0.00    -0.115 Cl
ENDBRANCH   1   8
BRANCH   4  22
HETATM   22  N2  UNL     1      23.057   3.392  51.542  1.00  0.00    -0.344 N 
HETATM   23  H16 UNL     1      22.588   4.310  51.811  1.00  0.00     0.167 HD
BRANCH  22  24
HETATM   24  C14 UNL     1      22.275   2.218  51.700  1.00  0.00     0.035 A 
HETATM   25  C15 UNL     1      21.600   1.558  50.711  1.00  0.00     0.029 A 
HETATM   26  C16 UNL     1      20.849   0.419  50.872  1.00  0.00     0.004 A 
HETATM   27  C17 UNL     1      20.745  -0.135  52.128  1.00  0.00     0.024 A 
HETATM   28  C18 UNL     1      21.403   0.483  53.167  1.00  0.00     0.036 A 
HETATM   29 CL1  UNL     1      21.305  -0.184  54.802  1.00  0.00    -0.084 Cl
HETATM   30  C19 UNL     1      22.141   1.622  52.950  1.00  0.00     0.053 A 
ENDBRANCH  22  24
ENDBRANCH   4  22
TORSDOF 3
ENDMDL
MODEL 6
REMARK VINA RESULT:      -8.9      5.101      7.987
REMARK  3 active torsions:
REMARK  status: ('A' for Active; 'I' for Inactive)
REMARK    1  A    between atoms: C9_11  and  C10_12 
REMARK    2  A    between atoms: C13_15  and  N2_16 
REMARK    3  A    between atoms: N2_16  and  C14_17 
ROOT
HETATM    1  C10 UNL     1      20.364   0.506  51.995  1.00  0.00     0.029 C 
HETATM    2  C11 UNL     1      19.100   0.160  52.277  1.00  0.00     0.043 A 
HETATM    3  C12 UNL     1      17.950   0.866  51.662  1.00  0.00     0.137 A 
HETATM    4  C13 UNL     1      16.731   0.242  52.186  1.00  0.00     0.111 A 
HETATM    5  N3  UNL     1      16.662  -0.751  53.035  1.00  0.00    -0.228 NA
HETATM    6  C20 UNL     1      17.850  -1.338  53.547  1.00  0.00     0.235 A 
HETATM    7  N4  UNL     1      19.018  -0.917  53.197  1.00  0.00    -0.246 NA
ENDROOT
BRANCH   1   8
HETATM    8  C9  UNL     1      21.567  -0.115  52.539  1.00  0.00     0.028 C 
HETATM    9  C8  UNL     1      22.814   0.376  52.555  1.00  0.00     0.027 C 
HETATM   10  N1  UNL     1      23.668  -0.600  53.198  1.00  0.00    -0.388 N 
HETATM   11  C21 UNL     1      22.895   1.709  51.930  1.00  0.00     0.166 C 
HETATM   12  C7  UNL     1      25.137  -0.653  53.109  1.00  0.00     0.153 C 
HETATM   13  H11 UNL     1      23.219  -1.334  53.775  1.00  0.00     0.159 HD
HETATM   14  C4  UNL     1      25.594   0.716  52.754  1.00  0.00    -0.061 C 
HETATM   15  C3  UNL     1      24.941   1.943  53.374  1.00  0.00     0.075 C 
HETATM   16  C5  UNL     1      26.567   0.964  51.866  1.00  0.00     0.004 C 
HETATM   17  C2  UNL     1      24.135   2.496  52.190  1.00  0.00     0.083 C 
HETATM   18  C1  UNL     1      23.831   3.936  52.539  1.00  0.00     0.048 C 
HETATM   19  O1  UNL     1      24.939   2.527  51.049  1.00  0.00    -0.375 OA
HETATM   20  C6  UNL     1      26.278   2.302  51.293  1.00  0.00     0.196 C 
HETATM   21 CL2  UNL     1      22.559   1.589  50.170  1.00  0.00    -0.115 Cl
ENDBRANCH   1   8
BRANCH   4  22
HETATM   22  N2  UNL     1      15.495   0.737  51.755  1.00  0.00    -0.344 N 
HETATM   23  H16 UNL     1      15.066   0.297  50.884  1.00  0.00     0.167 HD
BRANCH  22  24
HETATM   24  C14 UNL     1      14.747   1.776  52.368  1.00  0.00     0.035 A 
HETATM   25  C15 UNL     1      15.155   3.069  52.545  1.00  0.00     0.029 A 
HETATM   26  C16 UNL     1      14.423   4.069  53.137  1.00  0.00     0.004 A 
HETATM   27  C17 UNL     1      13.160   3.780  53.603  1.00  0.00     0.024 A 
HETATM   28  C18 UNL     1      12.690   2.494  53.453  1.00  0.00     0.036 A 
HETATM   29 CL1  UNL     1      11.077   2.065  54.034  1.00  0.00    -0.084 Cl
HETATM   30  C19 UNL     1      13.468   1.531  52.854  1.00  0.00     0.053 A 
ENDBRANCH  22  24
ENDBRANCH   4  22
TORSDOF 3
ENDMDL
MODEL 7
REMARK VINA RESULT:      -8.9      3.297      5.207
REMARK  3 active torsions:
REMARK  status: ('A' for Active; 'I' for Inactive)
REMARK    1  A    between atoms: C9_11  and  C10_12 
REMARK    2  A    between atoms: C13_15  and  N2_16 
REMARK    3  A    between atoms: N2_16  and  C14_17 
ROOT
HETATM    1  C10 UNL     1      23.502   1.910  51.014  1.00  0.00     0.029 C 
HETATM    2  C11 UNL     1      23.599   1.099  52.078  1.00  0.00     0.043 A 
HETATM    3  C12 UNL     1      24.891   0.483  52.465  1.00  0.00     0.137 A 
HETATM    4  C13 UNL     1      24.638  -0.337  53.654  1.00  0.00     0.111 A 
HETATM    5  N3  UNL     1      23.492  -0.498  54.265  1.00  0.00    -0.228 NA
HETATM    6  C20 UNL     1      22.327   0.156  53.784  1.00  0.00     0.235 A 
HETATM    7  N4  UNL     1      22.359   0.920  52.745  1.00  0.00    -0.246 NA
ENDROOT
BRANCH   1   8
HETATM    8  C9  UNL     1      22.289   2.568  50.542  1.00  0.00     0.028 C 
HETATM    9  C8  UNL     1      22.133   3.850  50.182  1.00  0.00     0.027 C 
HETATM   10  N1  UNL     1      20.753   4.036  49.788  1.00  0.00    -0.388 N 
HETATM   11  C21 UNL     1      23.385   4.618  50.304  1.00  0.00     0.166 C 
HETATM   12  C7  UNL     1      20.054   5.326  49.675  1.00  0.00     0.153 C 
HETATM   13  H11 UNL     1      20.193   3.193  49.562  1.00  0.00     0.159 HD
HETATM   14  C4  UNL     1      21.100   6.364  49.480  1.00  0.00    -0.061 C 
HETATM   15  C3  UNL     1      22.303   6.102  48.586  1.00  0.00     0.075 C 
HETATM   16  C5  UNL     1      21.076   7.562  50.082  1.00  0.00     0.004 C 
HETATM   17  C2  UNL     1      23.428   5.942  49.619  1.00  0.00     0.083 C 
HETATM   18  C1  UNL     1      24.717   6.145  48.855  1.00  0.00     0.048 C 
HETATM   19  O1  UNL     1      23.356   6.977  50.553  1.00  0.00    -0.375 OA
HETATM   20  C6  UNL     1      22.490   7.993  50.208  1.00  0.00     0.196 C 
HETATM   21 CL2  UNL     1      23.855   4.766  52.032  1.00  0.00    -0.115 Cl
ENDBRANCH   1   8
BRANCH   4  22
HETATM   22  N2  UNL     1      25.712  -1.034  54.220  1.00  0.00    -0.344 N 
HETATM   23  H16 UNL     1      25.483  -1.819  54.903  1.00  0.00     0.167 HD
BRANCH  22  24
HETATM   24  C14 UNL     1      27.089  -0.798  53.970  1.00  0.00     0.035 A 
HETATM   25  C15 UNL     1      27.949  -1.643  53.325  1.00  0.00     0.029 A 
HETATM   26  C16 UNL     1      29.280  -1.405  53.084  1.00  0.00     0.004 A 
HETATM   27  C17 UNL     1      29.831  -0.220  53.517  1.00  0.00     0.024 A 
HETATM   28  C18 UNL     1      29.017   0.674  54.174  1.00  0.00     0.036 A 
HETATM   29 CL1  UNL     1      29.670   2.212  54.753  1.00  0.00    -0.084 Cl
HETATM   30  C19 UNL     1      27.689   0.384  54.389  1.00  0.00     0.053 A 
ENDBRANCH  22  24
ENDBRANCH   4  22
TORSDOF 3
ENDMDL
MODEL 8
REMARK VINA RESULT:      -8.8      4.145      9.186
REMARK  3 active torsions:
REMARK  status: ('A' for Active; 'I' for Inactive)
REMARK    1  A    between atoms: C9_11  and  C10_12 
REMARK    2  A    between atoms: C13_15  and  N2_16 
REMARK    3  A    between atoms: N2_16  and  C14_17 
ROOT
HETATM    1  C10 UNL     1      26.959   4.292  49.133  1.00  0.00     0.029 C 
HETATM    2  C11 UNL     1      27.677   5.347  48.724  1.00  0.00     0.043 A 
HETATM    3  C12 UNL     1      29.054   5.187  48.198  1.00  0.00     0.137 A 
HETATM    4  C13 UNL     1      29.543   6.526  47.852  1.00  0.00     0.111 A 
HETATM    5  N3  UNL     1      28.891   7.654  47.979  1.00  0.00    -0.228 NA
HETATM    6  C20 UNL     1      27.570   7.662  48.500  1.00  0.00     0.235 A 
HETATM    7  N4  UNL     1      26.977   6.575  48.859  1.00  0.00    -0.246 NA
ENDROOT
BRANCH   1   8
HETATM    8  C9  UNL     1      25.601   4.332  49.666  1.00  0.00     0.028 C 
HETATM    9  C8  UNL     1      25.096   3.629  50.691  1.00  0.00     0.027 C 
HETATM   10  N1  UNL     1      23.708   4.006  50.847  1.00  0.00    -0.388 N 
HETATM   11  C21 UNL     1      26.098   2.734  51.297  1.00  0.00     0.166 C 
HETATM   12  C7  UNL     1      22.684   3.246  51.581  1.00  0.00     0.153 C 
HETATM   13  H11 UNL     1      23.391   4.889  50.406  1.00  0.00     0.159 HD
HETATM   14  C4  UNL     1      23.406   2.389  52.558  1.00  0.00    -0.061 C 
HETATM   15  C3  UNL     1      24.613   2.919  53.319  1.00  0.00     0.075 C 
HETATM   16  C5  UNL     1      23.075   1.115  52.811  1.00  0.00     0.004 C 
HETATM   17  C2  UNL     1      25.765   2.167  52.637  1.00  0.00     0.083 C 
HETATM   18  C1  UNL     1      26.932   2.250  53.594  1.00  0.00     0.048 C 
HETATM   19  O1  UNL     1      25.440   0.814  52.525  1.00  0.00    -0.375 OA
HETATM   20  C6  UNL     1      24.324   0.438  53.243  1.00  0.00     0.196 C 
HETATM   21 CL2  UNL     1      26.553   1.439  50.139  1.00  0.00    -0.115 Cl
ENDBRANCH   1   8
BRANCH   4  22
HETATM   22  N2  UNL     1      30.835   6.646  47.330  1.00  0.00    -0.344 N 
HETATM   23  H16 UNL     1      31.062   7.529  46.777  1.00  0.00     0.167 HD
BRANCH  22  24
HETATM   24  C14 UNL     1      31.886   5.702  47.465  1.00  0.00     0.035 A 
HETATM   25  C15 UNL     1      31.889   4.422  46.983  1.00  0.00     0.029 A 
HETATM   26  C16 UNL     1      32.912   3.515  47.116  1.00  0.00     0.004 A 
HETATM   27  C17 UNL     1      34.052   3.895  47.788  1.00  0.00     0.024 A 
HETATM   28  C18 UNL     1      34.111   5.173  48.297  1.00  0.00     0.036 A 
HETATM   29 CL1  UNL     1      35.550   5.715  49.170  1.00  0.00    -0.084 Cl
HETATM   30  C19 UNL     1      33.056   6.040  48.136  1.00  0.00     0.053 A 
ENDBRANCH  22  24
ENDBRANCH   4  22
TORSDOF 3
ENDMDL
MODEL 9
REMARK VINA RESULT:      -8.7      3.463      9.368
REMARK  3 active torsions:
REMARK  status: ('A' for Active; 'I' for Inactive)
REMARK    1  A    between atoms: C9_11  and  C10_12 
REMARK    2  A    between atoms: C13_15  and  N2_16 
REMARK    3  A    between atoms: N2_16  and  C14_17 
ROOT
HETATM    1  C10 UNL     1      26.031   4.964  49.298  1.00  0.00     0.029 C 
HETATM    2  C11 UNL     1      26.559   6.195  49.235  1.00  0.00     0.043 A 
HETATM    3  C12 UNL     1      27.687   6.506  48.325  1.00  0.00     0.137 A 
HETATM    4  C13 UNL     1      28.014   7.924  48.511  1.00  0.00     0.111 A 
HETATM    5  N3  UNL     1      27.423   8.763  49.323  1.00  0.00    -0.228 NA
HETATM    6  C20 UNL     1      26.348   8.328  50.143  1.00  0.00     0.235 A 
HETATM    7  N4  UNL     1      25.923   7.111  50.114  1.00  0.00    -0.246 NA
ENDROOT
BRANCH   1   8
HETATM    8  C9  UNL     1      24.925   4.546  50.153  1.00  0.00     0.028 C 
HETATM    9  C8  UNL     1      24.916   3.571  51.073  1.00  0.00     0.027 C 
HETATM   10  N1  UNL     1      23.595   3.528  51.662  1.00  0.00    -0.388 N 
HETATM   11  C21 UNL     1      26.219   2.889  51.172  1.00  0.00     0.166 C 
HETATM   12  C7  UNL     1      23.028   2.407  52.429  1.00  0.00     0.153 C 
HETATM   13  H11 UNL     1      22.981   4.355  51.542  1.00  0.00     0.159 HD
HETATM   14  C4  UNL     1      24.176   1.624  52.956  1.00  0.00    -0.061 C 
HETATM   15  C3  UNL     1      25.419   2.323  53.489  1.00  0.00     0.075 C 
HETATM   16  C5  UNL     1      24.213   0.284  52.972  1.00  0.00     0.004 C 
HETATM   17  C2  UNL     1      26.438   2.036  52.376  1.00  0.00     0.083 C 
HETATM   18  C1  UNL     1      27.797   2.266  52.996  1.00  0.00     0.048 C 
HETATM   19  O1  UNL     1      26.385   0.684  52.031  1.00  0.00    -0.375 OA
HETATM   20  C6  UNL     1      25.646  -0.094  52.897  1.00  0.00     0.196 C 
HETATM   21 CL2  UNL     1      26.559   1.979  49.661  1.00  0.00    -0.115 Cl
ENDBRANCH   1   8
BRANCH   4  22
HETATM   22  N2  UNL     1      29.059   8.468  47.758  1.00  0.00    -0.344 N 
HETATM   23  H16 UNL     1      28.821   9.261  47.087  1.00  0.00     0.167 HD
BRANCH  22  24
HETATM   24  C14 UNL     1      30.420   8.067  47.800  1.00  0.00     0.035 A 
HETATM   25  C15 UNL     1      31.296   8.285  48.827  1.00  0.00     0.029 A 
HETATM   26  C16 UNL     1      32.611   7.891  48.860  1.00  0.00     0.004 A 
HETATM   27  C17 UNL     1      33.127   7.211  47.780  1.00  0.00     0.024 A 
HETATM   28  C18 UNL     1      32.295   6.959  46.712  1.00  0.00     0.036 A 
HETATM   29 CL1  UNL     1      32.904   6.090  45.298  1.00  0.00    -0.084 Cl
HETATM   30  C19 UNL     1      30.986   7.378  46.732  1.00  0.00     0.053 A 
ENDBRANCH  22  24
ENDBRANCH   4  22
TORSDOF 3
ENDMDL
