MODEL 1
REMARK VINA RESULT:      -9.1      0.000      0.000
REMARK  6 active torsions:
REMARK  status: ('A' for Active; 'I' for Inactive)
REMARK    1  A    between atoms: C7_11  and  N3_12 
REMARK    2  A    between atoms: N3_12  and  C8_13 
REMARK    3  A    between atoms: N4_22  and  C17_23 
REMARK    4  A    between atoms: C17_23  and  C18_24 
REMARK    5  A    between atoms: C18_24  and  C19_25 
REMARK    6  A    between atoms: C19_25  and  N5_26 
ROOT
HETATM    1  O1  UNL     1      19.011   1.078  49.827  1.00  0.00    -0.271 OA
HETATM    2  C1  UNL     1      19.571   0.618  50.862  1.00  0.00     0.248 A 
HETATM    3  C2  UNL     1      18.628   0.085  51.895  1.00  0.00     0.279 A 
HETATM    4  O2  UNL     1      19.293  -0.405  53.024  1.00  0.00    -0.340 OA
HETATM    5  C3  UNL     1      20.674  -0.392  53.145  1.00  0.00     0.098 A 
HETATM    6  C4  UNL     1      21.112  -0.925  54.340  1.00  0.00     0.071 A 
HETATM    7  C5  UNL     1      22.492  -0.969  54.580  1.00  0.00     0.075 A 
HETATM    8  N1  UNL     1      22.988  -1.473  55.734  1.00  0.00    -0.241 NA
HETATM    9  C6  UNL     1      24.335  -1.477  55.907  1.00  0.00     0.236 A 
HETATM   10  N2  UNL     1      25.154  -0.991  54.951  1.00  0.00    -0.224 NA
HETATM   11  C7  UNL     1      24.690  -0.484  53.797  1.00  0.00     0.142 A 
HETATM   12  C14 UNL     1      23.325  -0.470  53.598  1.00  0.00     0.041 A 
HETATM   13  C15 UNL     1      22.918   0.071  52.395  1.00  0.00     0.050 A 
HETATM   14  C16 UNL     1      21.546   0.095  52.195  1.00  0.00     0.071 A 
HETATM   15  N4  UNL     1      20.993   0.626  50.995  1.00  0.00    -0.314 N 
ENDROOT
BRANCH  11  16
HETATM   16  N3  UNL     1      25.713  -0.016  52.927  1.00  0.00    -0.340 N 
HETATM   17  H5  UNL     1      25.416   0.445  52.061  1.00  0.00     0.167 HD
BRANCH  16  18
HETATM   18  C8  UNL     1      27.113  -0.164  53.217  1.00  0.00     0.033 A 
HETATM   19  C9  UNL     1      27.850   0.843  53.767  1.00  0.00     0.029 A 
HETATM   20  C10 UNL     1      29.199   0.631  54.037  1.00  0.00     0.002 A 
HETATM   21  C11 UNL     1      29.804  -0.574  53.760  1.00  0.00     0.000 A 
HETATM   22  C12 UNL     1      29.090  -1.630  53.197  1.00  0.00     0.002 A 
HETATM   23  C13 UNL     1      27.742  -1.359  52.948  1.00  0.00     0.029 A 
ENDBRANCH  16  18
ENDBRANCH  11  16
BRANCH  15  24
HETATM   24  C17 UNL     1      21.835   1.152  49.958  1.00  0.00     0.134 C 
BRANCH  24  25
HETATM   25  C18 UNL     1      22.033   2.646  50.135  1.00  0.00     0.050 C 
BRANCH  25  26
HETATM   26  C19 UNL     1      23.307   3.085  49.443  1.00  0.00     0.277 C 
BRANCH  26  27
HETATM   27  N5  UNL     1      24.221   3.652  50.398  1.00  0.00     0.113 N 
HETATM   28  C20 UNL     1      23.500   4.099  51.573  1.00  0.00     0.301 C 
HETATM   29  C21 UNL     1      24.105   3.259  52.672  1.00  0.00     0.200 C 
HETATM   30  O3  UNL     1      25.385   3.009  52.217  1.00  0.00    -0.361 OA
HETATM   31  C22 UNL     1      25.168   2.672  50.865  1.00  0.00     0.440 C 
ENDBRANCH  26  27
ENDBRANCH  25  26
ENDBRANCH  24  25
ENDBRANCH  15  24
TORSDOF 6
ENDMDL
MODEL 2
REMARK VINA RESULT:      -8.7      2.088      5.885
REMARK  6 active torsions:
REMARK  status: ('A' for Active; 'I' for Inactive)
REMARK    1  A    between atoms: C7_11  and  N3_12 
REMARK    2  A    between atoms: N3_12  and  C8_13 
REMARK    3  A    between atoms: N4_22  and  C17_23 
REMARK    4  A    between atoms: C17_23  and  C18_24 
REMARK    5  A    between atoms: C18_24  and  C19_25 
REMARK    6  A    between atoms: C19_25  and  N5_26 
ROOT
HETATM    1  O1  UNL     1      23.442  -1.417  55.534  1.00  0.00    -0.271 OA
HETATM    2  C1  UNL     1      22.807  -0.950  54.546  1.00  0.00     0.248 A 
HETATM    3  C2  UNL     1      21.376  -1.380  54.468  1.00  0.00     0.279 A 
HETATM    4  O2  UNL     1      20.717  -0.846  53.355  1.00  0.00    -0.340 OA
HETATM    5  C3  UNL     1      21.341  -0.007  52.446  1.00  0.00     0.098 A 
HETATM    6  C4  UNL     1      20.502   0.402  51.430  1.00  0.00     0.071 A 
HETATM    7  C5  UNL     1      21.019   1.255  50.446  1.00  0.00     0.075 A 
HETATM    8  N1  UNL     1      20.251   1.688  49.419  1.00  0.00    -0.241 NA
HETATM    9  C6  UNL     1      20.817   2.507  48.495  1.00  0.00     0.236 A 
HETATM   10  N2  UNL     1      22.110   2.877  48.600  1.00  0.00    -0.224 NA
HETATM   11  C7  UNL     1      22.895   2.462  49.608  1.00  0.00     0.142 A 
HETATM   12  C14 UNL     1      22.343   1.630  50.560  1.00  0.00     0.041 A 
HETATM   13  C15 UNL     1      23.207   1.238  51.562  1.00  0.00     0.050 A 
HETATM   14  C16 UNL     1      22.658   0.395  52.517  1.00  0.00     0.071 A 
HETATM   15  N4  UNL     1      23.442  -0.084  53.604  1.00  0.00    -0.314 N 
ENDROOT
BRANCH  11  16
HETATM   16  N3  UNL     1      24.227   2.955  49.534  1.00  0.00    -0.340 N 
HETATM   17  H5  UNL     1      24.958   2.290  49.261  1.00  0.00     0.167 HD
BRANCH  16  18
HETATM   18  C8  UNL     1      24.572   4.320  49.822  1.00  0.00     0.033 A 
HETATM   19  C9  UNL     1      23.893   5.059  50.745  1.00  0.00     0.029 A 
HETATM   20  C10 UNL     1      24.286   6.372  50.988  1.00  0.00     0.002 A 
HETATM   21  C11 UNL     1      25.346   6.940  50.317  1.00  0.00     0.000 A 
HETATM   22  C12 UNL     1      26.067   6.221  49.365  1.00  0.00     0.002 A 
HETATM   23  C13 UNL     1      25.628   4.910  49.163  1.00  0.00     0.029 A 
ENDBRANCH  16  18
ENDBRANCH  11  16
BRANCH  15  24
HETATM   24  C17 UNL     1      24.821   0.288  53.748  1.00  0.00     0.134 C 
BRANCH  24  25
HETATM   25  C18 UNL     1      25.721  -0.704  53.035  1.00  0.00     0.050 C 
BRANCH  25  26
HETATM   26  C19 UNL     1      27.091  -0.096  52.815  1.00  0.00     0.277 C 
BRANCH  26  27
HETATM   27  N5  UNL     1      27.353   0.911  53.808  1.00  0.00     0.113 N 
HETATM   28  C20 UNL     1      28.418   0.476  54.688  1.00  0.00     0.301 C 
HETATM   29  C21 UNL     1      29.477   1.530  54.475  1.00  0.00     0.200 C 
HETATM   30  O3  UNL     1      28.748   2.652  54.128  1.00  0.00    -0.361 OA
HETATM   31  C22 UNL     1      27.815   2.136  53.206  1.00  0.00     0.440 C 
ENDBRANCH  26  27
ENDBRANCH  25  26
ENDBRANCH  24  25
ENDBRANCH  15  24
TORSDOF 6
ENDMDL
MODEL 3
REMARK VINA RESULT:      -8.6      3.227      6.720
REMARK  6 active torsions:
REMARK  status: ('A' for Active; 'I' for Inactive)
REMARK    1  A    between atoms: C7_11  and  N3_12 
REMARK    2  A    between atoms: N3_12  and  C8_13 
REMARK    3  A    between atoms: N4_22  and  C17_23 
REMARK    4  A    between atoms: C17_23  and  C18_24 
REMARK    5  A    between atoms: C18_24  and  C19_25 
REMARK    6  A    between atoms: C19_25  and  N5_26 
ROOT
HETATM    1  O1  UNL     1      23.149   0.130  53.533  1.00  0.00    -0.271 OA
HETATM    2  C1  UNL     1      22.638   1.164  53.018  1.00  0.00     0.248 A 
HETATM    3  C2  UNL     1      21.177   1.052  52.716  1.00  0.00     0.279 A 
HETATM    4  O2  UNL     1      20.658   2.217  52.141  1.00  0.00    -0.340 OA
HETATM    5  C3  UNL     1      21.432   3.339  51.894  1.00  0.00     0.098 A 
HETATM    6  C4  UNL     1      20.714   4.371  51.324  1.00  0.00     0.071 A 
HETATM    7  C5  UNL     1      21.387   5.563  51.027  1.00  0.00     0.075 A 
HETATM    8  N1  UNL     1      20.744   6.610  50.461  1.00  0.00    -0.241 NA
HETATM    9  C6  UNL     1      21.458   7.734  50.191  1.00  0.00     0.236 A 
HETATM   10  N2  UNL     1      22.775   7.800  50.481  1.00  0.00    -0.224 NA
HETATM   11  C7  UNL     1      23.439   6.776  51.042  1.00  0.00     0.142 A 
HETATM   12  C14 UNL     1      22.734   5.624  51.326  1.00  0.00     0.041 A 
HETATM   13  C15 UNL     1      23.480   4.611  51.894  1.00  0.00     0.050 A 
HETATM   14  C16 UNL     1      22.777   3.449  52.174  1.00  0.00     0.071 A 
HETATM   15  N4  UNL     1      23.428   2.327  52.760  1.00  0.00    -0.314 N 
ENDROOT
BRANCH  11  16
HETATM   16  N3  UNL     1      24.819   7.041  51.257  1.00  0.00    -0.340 N 
HETATM   17  H5  UNL     1      25.104   7.291  52.210  1.00  0.00     0.167 HD
BRANCH  16  18
HETATM   18  C8  UNL     1      25.800   6.974  50.210  1.00  0.00     0.033 A 
HETATM   19  C9  UNL     1      26.532   8.061  49.831  1.00  0.00     0.029 A 
HETATM   20  C10 UNL     1      27.477   7.927  48.819  1.00  0.00     0.002 A 
HETATM   21  C11 UNL     1      27.690   6.720  48.192  1.00  0.00     0.000 A 
HETATM   22  C12 UNL     1      26.965   5.584  48.546  1.00  0.00     0.002 A 
HETATM   23  C13 UNL     1      26.031   5.778  49.567  1.00  0.00     0.029 A 
ENDBRANCH  16  18
ENDBRANCH  11  16
BRANCH  15  24
HETATM   24  C17 UNL     1      24.827   2.362  53.081  1.00  0.00     0.134 C 
BRANCH  24  25
HETATM   25  C18 UNL     1      25.659   1.914  51.895  1.00  0.00     0.050 C 
BRANCH  25  26
HETATM   26  C19 UNL     1      26.771   0.996  52.359  1.00  0.00     0.277 C 
BRANCH  26  27
HETATM   27  N5  UNL     1      27.211   1.374  53.676  1.00  0.00     0.113 N 
HETATM   28  C20 UNL     1      27.490   0.192  54.466  1.00  0.00     0.301 C 
HETATM   29  C21 UNL     1      28.957   0.348  54.788  1.00  0.00     0.200 C 
HETATM   30  O3  UNL     1      29.143   1.717  54.784  1.00  0.00    -0.361 OA
HETATM   31  C22 UNL     1      28.445   2.116  53.626  1.00  0.00     0.440 C 
ENDBRANCH  26  27
ENDBRANCH  25  26
ENDBRANCH  24  25
ENDBRANCH  15  24
TORSDOF 6
ENDMDL
MODEL 4
REMARK VINA RESULT:      -8.5      2.160      6.130
REMARK  6 active torsions:
REMARK  status: ('A' for Active; 'I' for Inactive)
REMARK    1  A    between atoms: C7_11  and  N3_12 
REMARK    2  A    between atoms: N3_12  and  C8_13 
REMARK    3  A    between atoms: N4_22  and  C17_23 
REMARK    4  A    between atoms: C17_23  and  C18_24 
REMARK    5  A    between atoms: C18_24  and  C19_25 
REMARK    6  A    between atoms: C19_25  and  N5_26 
ROOT
HETATM    1  O1  UNL     1      29.029   1.314  53.015  1.00  0.00    -0.271 OA
HETATM    2  C1  UNL     1      27.972   0.805  53.486  1.00  0.00     0.248 A 
HETATM    3  C2  UNL     1      28.134   0.169  54.830  1.00  0.00     0.279 A 
HETATM    4  O2  UNL     1      26.941  -0.387  55.306  1.00  0.00    -0.340 OA
HETATM    5  C3  UNL     1      25.753  -0.333  54.594  1.00  0.00     0.098 A 
HETATM    6  C4  UNL     1      24.705  -0.942  55.253  1.00  0.00     0.071 A 
HETATM    7  C5  UNL     1      23.448  -0.953  54.634  1.00  0.00     0.075 A 
HETATM    8  N1  UNL     1      22.380  -1.539  55.223  1.00  0.00    -0.241 NA
HETATM    9  C6  UNL     1      21.193  -1.522  54.564  1.00  0.00     0.236 A 
HETATM   10  N2  UNL     1      21.084  -0.935  53.354  1.00  0.00    -0.224 NA
HETATM   11  C7  UNL     1      22.127  -0.346  52.745  1.00  0.00     0.142 A 
HETATM   12  C14 UNL     1      23.344  -0.351  53.396  1.00  0.00     0.041 A 
HETATM   13  C15 UNL     1      24.372   0.265  52.710  1.00  0.00     0.050 A 
HETATM   14  C16 UNL     1      25.599   0.256  53.357  1.00  0.00     0.071 A 
HETATM   15  N4  UNL     1      26.742   0.856  52.759  1.00  0.00    -0.314 N 
ENDROOT
BRANCH  11  16
HETATM   16  N3  UNL     1      21.809   0.205  51.473  1.00  0.00    -0.340 N 
HETATM   17  H5  UNL     1      22.294  -0.187  50.659  1.00  0.00     0.167 HD
BRANCH  16  18
HETATM   18  C8  UNL     1      20.855   1.265  51.298  1.00  0.00     0.033 A 
HETATM   19  C9  UNL     1      20.610   2.187  52.273  1.00  0.00     0.029 A 
HETATM   20  C10 UNL     1      19.684   3.199  52.036  1.00  0.00     0.002 A 
HETATM   21  C11 UNL     1      19.010   3.288  50.838  1.00  0.00     0.000 A 
HETATM   22  C12 UNL     1      19.230   2.367  49.815  1.00  0.00     0.002 A 
HETATM   23  C13 UNL     1      20.168   1.376  50.109  1.00  0.00     0.029 A 
ENDBRANCH  16  18
ENDBRANCH  11  16
BRANCH  15  24
HETATM   24  C17 UNL     1      26.664   1.489  51.473  1.00  0.00     0.134 C 
BRANCH  24  25
HETATM   25  C18 UNL     1      26.116   2.898  51.603  1.00  0.00     0.050 C 
BRANCH  25  26
HETATM   26  C19 UNL     1      25.308   3.255  50.372  1.00  0.00     0.277 C 
BRANCH  26  27
HETATM   27  N5  UNL     1      23.912   3.351  50.704  1.00  0.00     0.113 N 
HETATM   28  C20 UNL     1      23.739   4.156  51.896  1.00  0.00     0.301 C 
HETATM   29  C21 UNL     1      22.892   5.304  51.401  1.00  0.00     0.200 C 
HETATM   30  O3  UNL     1      22.179   4.749  50.355  1.00  0.00    -0.361 OA
HETATM   31  C22 UNL     1      23.168   4.018  49.666  1.00  0.00     0.440 C 
ENDBRANCH  26  27
ENDBRANCH  25  26
ENDBRANCH  24  25
ENDBRANCH  15  24
TORSDOF 6
ENDMDL
MODEL 5
REMARK VINA RESULT:      -8.4      2.729      5.938
REMARK  6 active torsions:
REMARK  status: ('A' for Active; 'I' for Inactive)
REMARK    1  A    between atoms: C7_11  and  N3_12 
REMARK    2  A    between atoms: N3_12  and  C8_13 
REMARK    3  A    between atoms: N4_22  and  C17_23 
REMARK    4  A    between atoms: C17_23  and  C18_24 
REMARK    5  A    between atoms: C18_24  and  C19_25 
REMARK    6  A    between atoms: C19_25  and  N5_26 
ROOT
HETATM    1  O1  UNL     1      28.674   1.977  52.917  1.00  0.00    -0.271 OA
HETATM    2  C1  UNL     1      27.663   1.317  53.290  1.00  0.00     0.248 A 
HETATM    3  C2  UNL     1      27.973   0.154  54.178  1.00  0.00     0.279 A 
HETATM    4  O2  UNL     1      26.824  -0.550  54.559  1.00  0.00    -0.340 OA
HETATM    5  C3  UNL     1      25.552  -0.184  54.149  1.00  0.00     0.098 A 
HETATM    6  C4  UNL     1      24.569  -1.016  54.645  1.00  0.00     0.071 A 
HETATM    7  C5  UNL     1      23.238  -0.749  54.301  1.00  0.00     0.075 A 
HETATM    8  N1  UNL     1      22.227  -1.531  54.748  1.00  0.00    -0.241 NA
HETATM    9  C6  UNL     1      20.960  -1.220  54.370  1.00  0.00     0.236 A 
HETATM   10  N2  UNL     1      20.719  -0.160  53.570  1.00  0.00    -0.224 NA
HETATM   11  C7  UNL     1      21.702   0.632  53.112  1.00  0.00     0.142 A 
HETATM   12  C14 UNL     1      22.998   0.337  53.483  1.00  0.00     0.041 A 
HETATM   13  C15 UNL     1      23.957   1.187  52.971  1.00  0.00     0.050 A 
HETATM   14  C16 UNL     1      25.262   0.890  53.334  1.00  0.00     0.071 A 
HETATM   15  N4  UNL     1      26.347   1.687  52.874  1.00  0.00    -0.314 N 
ENDROOT
BRANCH  11  16
HETATM   16  N3  UNL     1      21.242   1.687  52.277  1.00  0.00    -0.340 N 
HETATM   17  H5  UNL     1      20.686   2.426  52.720  1.00  0.00     0.167 HD
BRANCH  16  18
HETATM   18  C8  UNL     1      21.522   1.748  50.869  1.00  0.00     0.033 A 
HETATM   19  C9  UNL     1      21.260   0.703  50.032  1.00  0.00     0.029 A 
HETATM   20  C10 UNL     1      21.542   0.830  48.675  1.00  0.00     0.002 A 
HETATM   21  C11 UNL     1      22.079   1.989  48.160  1.00  0.00     0.000 A 
HETATM   22  C12 UNL     1      22.364   3.080  48.979  1.00  0.00     0.002 A 
HETATM   23  C13 UNL     1      22.060   2.895  50.329  1.00  0.00     0.029 A 
ENDBRANCH  16  18
ENDBRANCH  11  16
BRANCH  15  24
HETATM   24  C17 UNL     1      26.128   2.822  52.022  1.00  0.00     0.134 C 
BRANCH  24  25
HETATM   25  C18 UNL     1      26.434   2.473  50.578  1.00  0.00     0.050 C 
BRANCH  25  26
HETATM   26  C19 UNL     1      25.746   3.455  49.651  1.00  0.00     0.277 C 
BRANCH  26  27
HETATM   27  N5  UNL     1      26.174   4.797  49.942  1.00  0.00     0.113 N 
HETATM   28  C20 UNL     1      27.005   5.298  48.866  1.00  0.00     0.301 C 
HETATM   29  C21 UNL     1      26.226   6.494  48.374  1.00  0.00     0.200 C 
HETATM   30  O3  UNL     1      25.537   6.912  49.496  1.00  0.00    -0.361 OA
HETATM   31  C22 UNL     1      25.054   5.699  50.028  1.00  0.00     0.440 C 
ENDBRANCH  26  27
ENDBRANCH  25  26
ENDBRANCH  24  25
ENDBRANCH  15  24
TORSDOF 6
ENDMDL
MODEL 6
REMARK VINA RESULT:      -8.2      2.364      3.293
REMARK  6 active torsions:
REMARK  status: ('A' for Active; 'I' for Inactive)
REMARK    1  A    between atoms: C7_11  and  N3_12 
REMARK    2  A    between atoms: N3_12  and  C8_13 
REMARK    3  A    between atoms: N4_22  and  C17_23 
REMARK    4  A    between atoms: C17_23  and  C18_24 
REMARK    5  A    between atoms: C18_24  and  C19_25 
REMARK    6  A    between atoms: C19_25  and  N5_26 
ROOT
HETATM    1  O1  UNL     1      22.487   3.725  47.588  1.00  0.00    -0.271 OA
HETATM    2  C1  UNL     1      22.241   2.913  48.525  1.00  0.00     0.248 A 
HETATM    3  C2  UNL     1      20.886   2.280  48.459  1.00  0.00     0.279 A 
HETATM    4  O2  UNL     1      20.657   1.396  49.520  1.00  0.00    -0.340 OA
HETATM    5  C3  UNL     1      21.599   1.148  50.505  1.00  0.00     0.098 A 
HETATM    6  C4  UNL     1      21.161   0.242  51.449  1.00  0.00     0.071 A 
HETATM    7  C5  UNL     1      22.027  -0.093  52.499  1.00  0.00     0.075 A 
HETATM    8  N1  UNL     1      21.656  -0.969  53.462  1.00  0.00    -0.241 NA
HETATM    9  C6  UNL     1      22.540  -1.243  54.456  1.00  0.00     0.236 A 
HETATM   10  N2  UNL     1      23.755  -0.654  54.480  1.00  0.00    -0.224 NA
HETATM   11  C7  UNL     1      24.148   0.219  53.539  1.00  0.00     0.142 A 
HETATM   12  C14 UNL     1      23.268   0.512  52.518  1.00  0.00     0.041 A 
HETATM   13  C15 UNL     1      23.734   1.422  51.590  1.00  0.00     0.050 A 
HETATM   14  C16 UNL     1      22.849   1.726  50.567  1.00  0.00     0.071 A 
HETATM   15  N4  UNL     1      23.206   2.650  49.545  1.00  0.00    -0.314 N 
ENDROOT
BRANCH  11  16
HETATM   16  N3  UNL     1      25.458   0.733  53.749  1.00  0.00    -0.340 N 
HETATM   17  H5  UNL     1      25.534   1.716  54.030  1.00  0.00     0.167 HD
BRANCH  16  18
HETATM   18  C8  UNL     1      26.644  -0.060  53.585  1.00  0.00     0.033 A 
HETATM   19  C9  UNL     1      26.665  -1.178  52.804  1.00  0.00     0.029 A 
HETATM   20  C10 UNL     1      27.851  -1.896  52.674  1.00  0.00     0.002 A 
HETATM   21  C11 UNL     1      29.002  -1.500  53.318  1.00  0.00     0.000 A 
HETATM   22  C12 UNL     1      29.026  -0.365  54.126  1.00  0.00     0.002 A 
HETATM   23  C13 UNL     1      27.808   0.314  54.218  1.00  0.00     0.029 A 
ENDBRANCH  16  18
ENDBRANCH  11  16
BRANCH  15  24
HETATM   24  C17 UNL     1      24.489   3.294  49.539  1.00  0.00     0.134 C 
BRANCH  24  25
HETATM   25  C18 UNL     1      24.412   4.646  50.224  1.00  0.00     0.050 C 
BRANCH  25  26
HETATM   26  C19 UNL     1      25.654   5.456  49.913  1.00  0.00     0.277 C 
BRANCH  26  27
HETATM   27  N5  UNL     1      25.494   6.809  50.376  1.00  0.00     0.113 N 
HETATM   28  C20 UNL     1      25.360   7.708  49.247  1.00  0.00     0.301 C 
HETATM   29  C21 UNL     1      23.991   8.306  49.461  1.00  0.00     0.200 C 
HETATM   30  O3  UNL     1      23.829   8.257  50.832  1.00  0.00    -0.361 OA
HETATM   31  C22 UNL     1      24.287   6.961  51.147  1.00  0.00     0.440 C 
ENDBRANCH  26  27
ENDBRANCH  25  26
ENDBRANCH  24  25
ENDBRANCH  15  24
TORSDOF 6
ENDMDL
MODEL 7
REMARK VINA RESULT:      -8.1      1.639      1.879
REMARK  6 active torsions:
REMARK  status: ('A' for Active; 'I' for Inactive)
REMARK    1  A    between atoms: C7_11  and  N3_12 
REMARK    2  A    between atoms: N3_12  and  C8_13 
REMARK    3  A    between atoms: N4_22  and  C17_23 
REMARK    4  A    between atoms: C17_23  and  C18_24 
REMARK    5  A    between atoms: C18_24  and  C19_25 
REMARK    6  A    between atoms: C19_25  and  N5_26 
ROOT
HETATM    1  O1  UNL     1      19.572   2.976  49.460  1.00  0.00    -0.271 OA
HETATM    2  C1  UNL     1      19.934   2.292  50.459  1.00  0.00     0.248 A 
HETATM    3  C2  UNL     1      18.817   1.864  51.358  1.00  0.00     0.279 A 
HETATM    4  O2  UNL     1      19.268   1.117  52.453  1.00  0.00    -0.340 OA
HETATM    5  C3  UNL     1      20.605   0.815  52.654  1.00  0.00     0.098 A 
HETATM    6  C4  UNL     1      20.821   0.068  53.794  1.00  0.00     0.071 A 
HETATM    7  C5  UNL     1      22.135  -0.302  54.107  1.00  0.00     0.075 A 
HETATM    8  N1  UNL     1      22.415  -1.028  55.213  1.00  0.00    -0.241 NA
HETATM    9  C6  UNL     1      23.713  -1.346  55.462  1.00  0.00     0.236 A 
HETATM   10  N2  UNL     1      24.693  -0.945  54.626  1.00  0.00    -0.224 NA
HETATM   11  C7  UNL     1      24.444  -0.222  53.521  1.00  0.00     0.142 A 
HETATM   12  C14 UNL     1      23.134   0.111  53.247  1.00  0.00     0.041 A 
HETATM   13  C15 UNL     1      22.952   0.860  52.101  1.00  0.00     0.050 A 
HETATM   14  C16 UNL     1      21.636   1.204  51.826  1.00  0.00     0.071 A 
HETATM   15  N4  UNL     1      21.311   1.975  50.675  1.00  0.00    -0.314 N 
ENDROOT
BRANCH  11  16
HETATM   16  N3  UNL     1      25.612   0.107  52.780  1.00  0.00    -0.340 N 
HETATM   17  H5  UNL     1      25.476   0.541  51.861  1.00  0.00     0.167 HD
BRANCH  16  18
HETATM   18  C8  UNL     1      26.941  -0.142  53.265  1.00  0.00     0.033 A 
HETATM   19  C9  UNL     1      27.559   0.695  54.147  1.00  0.00     0.029 A 
HETATM   20  C10 UNL     1      28.843   0.391  54.591  1.00  0.00     0.002 A 
HETATM   21  C11 UNL     1      29.501  -0.739  54.158  1.00  0.00     0.000 A 
HETATM   22  C12 UNL     1      28.908  -1.621  53.257  1.00  0.00     0.002 A 
HETATM   23  C13 UNL     1      27.621  -1.264  52.848  1.00  0.00     0.029 A 
ENDBRANCH  16  18
ENDBRANCH  11  16
BRANCH  15  24
HETATM   24  C17 UNL     1      22.328   2.419  49.764  1.00  0.00     0.134 C 
BRANCH  24  25
HETATM   25  C18 UNL     1      22.651   3.883  49.995  1.00  0.00     0.050 C 
BRANCH  25  26
HETATM   26  C19 UNL     1      23.667   4.356  48.976  1.00  0.00     0.277 C 
BRANCH  26  27
HETATM   27  N5  UNL     1      24.772   4.999  49.637  1.00  0.00     0.113 N 
HETATM   28  C20 UNL     1      25.928   4.125  49.638  1.00  0.00     0.301 C 
HETATM   29  C21 UNL     1      26.948   4.924  48.863  1.00  0.00     0.200 C 
HETATM   30  O3  UNL     1      26.580   6.234  49.103  1.00  0.00    -0.361 OA
HETATM   31  C22 UNL     1      25.180   6.192  48.940  1.00  0.00     0.440 C 
ENDBRANCH  26  27
ENDBRANCH  25  26
ENDBRANCH  24  25
ENDBRANCH  15  24
TORSDOF 6
ENDMDL
MODEL 8
REMARK VINA RESULT:      -8.0      2.976      7.011
REMARK  6 active torsions:
REMARK  status: ('A' for Active; 'I' for Inactive)
REMARK    1  A    between atoms: C7_11  and  N3_12 
REMARK    2  A    between atoms: N3_12  and  C8_13 
REMARK    3  A    between atoms: N4_22  and  C17_23 
REMARK    4  A    between atoms: C17_23  and  C18_24 
REMARK    5  A    between atoms: C18_24  and  C19_25 
REMARK    6  A    between atoms: C19_25  and  N5_26 
ROOT
HETATM    1  O1  UNL     1      28.000   4.795  49.060  1.00  0.00    -0.271 OA
HETATM    2  C1  UNL     1      26.741   4.894  48.998  1.00  0.00     0.248 A 
HETATM    3  C2  UNL     1      26.244   6.232  48.548  1.00  0.00     0.279 A 
HETATM    4  O2  UNL     1      24.847   6.296  48.503  1.00  0.00    -0.340 OA
HETATM    5  C3  UNL     1      24.037   5.222  48.837  1.00  0.00     0.098 A 
HETATM    6  C4  UNL     1      22.692   5.508  48.719  1.00  0.00     0.071 A 
HETATM    7  C5  UNL     1      21.770   4.501  49.029  1.00  0.00     0.075 A 
HETATM    8  N1  UNL     1      20.437   4.718  48.941  1.00  0.00    -0.241 NA
HETATM    9  C6  UNL     1      19.597   3.700  49.264  1.00  0.00     0.236 A 
HETATM   10  N2  UNL     1      20.083   2.506  49.663  1.00  0.00    -0.224 NA
HETATM   11  C7  UNL     1      21.400   2.263  49.761  1.00  0.00     0.142 A 
HETATM   12  C14 UNL     1      22.273   3.281  49.437  1.00  0.00     0.041 A 
HETATM   13  C15 UNL     1      23.610   2.964  49.566  1.00  0.00     0.050 A 
HETATM   14  C16 UNL     1      24.491   3.988  49.249  1.00  0.00     0.071 A 
HETATM   15  N4  UNL     1      25.898   3.793  49.340  1.00  0.00    -0.314 N 
ENDROOT
BRANCH  11  16
HETATM   16  N3  UNL     1      21.706   0.948  50.208  1.00  0.00    -0.340 N 
HETATM   17  H5  UNL     1      21.919   0.247  49.490  1.00  0.00     0.167 HD
BRANCH  16  18
HETATM   18  C8  UNL     1      21.724   0.580  51.596  1.00  0.00     0.033 A 
HETATM   19  C9  UNL     1      22.869   0.601  52.337  1.00  0.00     0.029 A 
HETATM   20  C10 UNL     1      22.818   0.247  53.682  1.00  0.00     0.002 A 
HETATM   21  C11 UNL     1      21.634  -0.125  54.280  1.00  0.00     0.000 A 
HETATM   22  C12 UNL     1      20.441  -0.162  53.562  1.00  0.00     0.002 A 
HETATM   23  C13 UNL     1      20.554   0.203  52.218  1.00  0.00     0.029 A 
ENDBRANCH  16  18
ENDBRANCH  11  16
BRANCH  15  24
HETATM   24  C17 UNL     1      26.450   2.536  49.761  1.00  0.00     0.134 C 
BRANCH  24  25
HETATM   25  C18 UNL     1      26.588   2.492  51.272  1.00  0.00     0.050 C 
BRANCH  25  26
HETATM   26  C19 UNL     1      26.706   1.056  51.739  1.00  0.00     0.277 C 
BRANCH  26  27
HETATM   27  N5  UNL     1      27.367   1.001  53.016  1.00  0.00     0.113 N 
HETATM   28  C20 UNL     1      26.443   1.366  54.071  1.00  0.00     0.301 C 
HETATM   29  C21 UNL     1      26.403   0.119  54.922  1.00  0.00     0.200 C 
HETATM   30  O3  UNL     1      27.646  -0.448  54.719  1.00  0.00    -0.361 OA
HETATM   31  C22 UNL     1      27.809  -0.336  53.323  1.00  0.00     0.440 C 
ENDBRANCH  26  27
ENDBRANCH  25  26
ENDBRANCH  24  25
ENDBRANCH  15  24
TORSDOF 6
ENDMDL
MODEL 9
REMARK VINA RESULT:      -7.5      5.043      8.176
REMARK  6 active torsions:
REMARK  status: ('A' for Active; 'I' for Inactive)
REMARK    1  A    between atoms: C7_11  and  N3_12 
REMARK    2  A    between atoms: N3_12  and  C8_13 
REMARK    3  A    between atoms: N4_22  and  C17_23 
REMARK    4  A    between atoms: C17_23  and  C18_24 
REMARK    5  A    between atoms: C18_24  and  C19_25 
REMARK    6  A    between atoms: C19_25  and  N5_26 
ROOT
HETATM    1  O1  UNL     1      23.555   1.797  51.023  1.00  0.00    -0.271 OA
HETATM    2  C1  UNL     1      23.882   2.873  50.447  1.00  0.00     0.248 A 
HETATM    3  C2  UNL     1      22.741   3.797  50.161  1.00  0.00     0.279 A 
HETATM    4  O2  UNL     1      23.151   4.969  49.515  1.00  0.00    -0.340 OA
HETATM    5  C3  UNL     1      24.474   5.224  49.194  1.00  0.00     0.098 A 
HETATM    6  C4  UNL     1      24.649   6.440  48.564  1.00  0.00     0.071 A 
HETATM    7  C5  UNL     1      25.946   6.812  48.190  1.00  0.00     0.075 A 
HETATM    8  N1  UNL     1      26.185   7.988  47.562  1.00  0.00    -0.241 NA
HETATM    9  C6  UNL     1      27.465   8.284  47.219  1.00  0.00     0.236 A 
HETATM   10  N2  UNL     1      28.470   7.427  47.497  1.00  0.00    -0.224 NA
HETATM   11  C7  UNL     1      28.262   6.254  48.117  1.00  0.00     0.142 A 
HETATM   12  C14 UNL     1      26.969   5.931  48.477  1.00  0.00     0.041 A 
HETATM   13  C15 UNL     1      26.828   4.709  49.104  1.00  0.00     0.050 A 
HETATM   14  C16 UNL     1      25.529   4.377  49.460  1.00  0.00     0.071 A 
HETATM   15  N4  UNL     1      25.245   3.145  50.112  1.00  0.00    -0.314 N 
ENDROOT
BRANCH  11  16
HETATM   16  N3  UNL     1      29.447   5.491  48.308  1.00  0.00    -0.340 N 
HETATM   17  H5  UNL     1      29.334   4.493  48.510  1.00  0.00     0.167 HD
BRANCH  16  18
HETATM   18  C8  UNL     1      30.763   6.062  48.231  1.00  0.00     0.033 A 
HETATM   19  C9  UNL     1      31.187   7.026  49.098  1.00  0.00     0.029 A 
HETATM   20  C10 UNL     1      32.480   7.528  48.979  1.00  0.00     0.002 A 
HETATM   21  C11 UNL     1      33.340   7.072  48.005  1.00  0.00     0.000 A 
HETATM   22  C12 UNL     1      32.948   6.089  47.098  1.00  0.00     0.002 A 
HETATM   23  C13 UNL     1      31.642   5.623  47.265  1.00  0.00     0.029 A 
ENDBRANCH  16  18
ENDBRANCH  11  16
BRANCH  15  24
HETATM   24  C17 UNL     1      26.288   2.209  50.423  1.00  0.00     0.134 C 
BRANCH  24  25
HETATM   25  C18 UNL     1      26.836   2.461  51.815  1.00  0.00     0.050 C 
BRANCH  25  26
HETATM   26  C19 UNL     1      26.387   1.362  52.756  1.00  0.00     0.277 C 
BRANCH  26  27
HETATM   27  N5  UNL     1      27.076   1.471  54.014  1.00  0.00     0.113 N 
HETATM   28  C20 UNL     1      27.372   0.152  54.534  1.00  0.00     0.301 C 
HETATM   29  C21 UNL     1      28.880   0.153  54.604  1.00  0.00     0.200 C 
HETATM   30  O3  UNL     1      29.192   1.487  54.790  1.00  0.00    -0.361 OA
HETATM   31  C22 UNL     1      28.348   2.129  53.861  1.00  0.00     0.440 C 
ENDBRANCH  26  27
ENDBRANCH  25  26
ENDBRANCH  24  25
ENDBRANCH  15  24
TORSDOF 6
ENDMDL
