MODEL 1
REMARK VINA RESULT:      -7.0      0.000      0.000
REMARK  7 active torsions:
REMARK  status: ('A' for Active; 'I' for Inactive)
REMARK    1  A    between atoms: C2_2  and  C3_3 
REMARK    2  A    between atoms: C3_3  and  O1_4 
REMARK    3  A    between atoms: O1_4  and  C4_5 
REMARK    4  A    between atoms: C4_5  and  C5_6 
REMARK    5  A    between atoms: C5_6  and  C6_7 
REMARK    6  A    between atoms: C9_10  and  C10_11 
REMARK    7  A    between atoms: C10_11  and  O3_13 
ROOT
HETATM    1  C5  UNL     1      24.609  -0.749  53.395  1.00  0.00     0.078 C 
ENDROOT
BRANCH   1   2
HETATM    2  C4  UNL     1      25.937  -0.044  53.352  1.00  0.00     0.068 C 
HETATM    3  C13 UNL     1      26.200   0.188  51.842  1.00  0.00     0.065 C 
HETATM    4  C14 UNL     1      27.009   1.415  51.611  1.00  0.00    -0.028 C 
HETATM    5  C15 UNL     1      27.385   2.357  52.467  1.00  0.00    -0.030 C 
HETATM    6  C16 UNL     1      26.950   2.202  53.899  1.00  0.00     0.030 C 
HETATM    7  C17 UNL     1      25.716   1.350  53.890  1.00  0.00     0.042 C 
BRANCH   2   8
HETATM    8  O1  UNL     1      26.985  -0.733  53.805  1.00  0.00    -0.380 OA
BRANCH   8   9
HETATM    9  C3  UNL     1      27.688  -1.635  53.135  1.00  0.00     0.168 C 
BRANCH   9  10
HETATM   10  C2  UNL     1      29.177  -1.709  53.275  1.00  0.00     0.022 C 
HETATM   11  C1  UNL     1      29.709  -0.305  53.656  1.00  0.00     0.007 C 
ENDBRANCH   9  10
ENDBRANCH   8   9
ENDBRANCH   2   8
ENDBRANCH   1   2
BRANCH   1  12
HETATM   12  C6  UNL     1      23.427   0.019  53.081  1.00  0.00    -0.041 A 
HETATM   13  C7  UNL     1      22.248  -0.015  53.742  1.00  0.00    -0.038 A 
HETATM   14  C8  UNL     1      21.657  -0.726  54.922  1.00  0.00     0.050 C 
HETATM   15  C9  UNL     1      21.724   0.976  52.818  1.00  0.00     0.050 A 
HETATM   16  C11 UNL     1      22.880   0.993  52.188  1.00  0.00    -0.038 A 
HETATM   17  C12 UNL     1      23.320   1.765  51.033  1.00  0.00     0.050 C 
BRANCH  15  18
HETATM   18  C10 UNL     1      20.418   1.655  52.683  1.00  0.00     0.177 C 
HETATM   19  O2  UNL     1      20.319   2.868  52.993  1.00  0.00    -0.646 OA
BRANCH  18  20
HETATM   20  O3  UNL     1      19.321   0.978  52.225  1.00  0.00    -0.773 OA
HETATM   21  H13 UNL     1      18.505   1.444  51.849  1.00  0.00     0.167 HD
ENDBRANCH  18  20
ENDBRANCH  15  18
ENDBRANCH   1  12
TORSDOF 7
ENDMDL
MODEL 2
REMARK VINA RESULT:      -6.7      2.801      4.580
REMARK  7 active torsions:
REMARK  status: ('A' for Active; 'I' for Inactive)
REMARK    1  A    between atoms: C2_2  and  C3_3 
REMARK    2  A    between atoms: C3_3  and  O1_4 
REMARK    3  A    between atoms: O1_4  and  C4_5 
REMARK    4  A    between atoms: C4_5  and  C5_6 
REMARK    5  A    between atoms: C5_6  and  C6_7 
REMARK    6  A    between atoms: C9_10  and  C10_11 
REMARK    7  A    between atoms: C10_11  and  O3_13 
ROOT
HETATM    1  C5  UNL     1      24.841   1.315  51.688  1.00  0.00     0.078 C 
ENDROOT
BRANCH   1   2
HETATM    2  C4  UNL     1      24.546   2.775  51.474  1.00  0.00     0.068 C 
HETATM    3  C13 UNL     1      23.426   2.786  50.402  1.00  0.00     0.065 C 
HETATM    4  C14 UNL     1      22.530   3.964  50.561  1.00  0.00    -0.028 C 
HETATM    5  C15 UNL     1      22.483   4.868  51.532  1.00  0.00    -0.030 C 
HETATM    6  C16 UNL     1      23.463   4.720  52.663  1.00  0.00     0.030 C 
HETATM    7  C17 UNL     1      23.849   3.271  52.719  1.00  0.00     0.042 C 
BRANCH   2   8
HETATM    8  O1  UNL     1      25.539   3.510  50.974  1.00  0.00    -0.380 OA
BRANCH   8   9
HETATM    9  C3  UNL     1      26.263   3.236  49.900  1.00  0.00     0.168 C 
BRANCH   9  10
HETATM   10  C2  UNL     1      27.018   4.313  49.184  1.00  0.00     0.022 C 
HETATM   11  C1  UNL     1      26.048   5.484  48.887  1.00  0.00     0.007 C 
ENDBRANCH   9  10
ENDBRANCH   8   9
ENDBRANCH   2   8
ENDBRANCH   1   2
BRANCH   1  12
HETATM   12  C6  UNL     1      23.967   0.570  52.562  1.00  0.00    -0.041 A 
HETATM   13  C7  UNL     1      24.341  -0.178  53.624  1.00  0.00    -0.038 A 
HETATM   14  C8  UNL     1      25.613  -0.557  54.323  1.00  0.00     0.050 C 
HETATM   15  C9  UNL     1      22.945  -0.502  53.863  1.00  0.00     0.050 A 
HETATM   16  C11 UNL     1      22.603   0.233  52.825  1.00  0.00    -0.038 A 
HETATM   17  C12 UNL     1      21.292   0.523  52.259  1.00  0.00     0.050 C 
BRANCH  15  18
HETATM   18  C10 UNL     1      22.247  -1.324  54.874  1.00  0.00     0.177 C 
HETATM   19  O2  UNL     1      22.894  -1.784  55.847  1.00  0.00    -0.646 OA
BRANCH  18  20
HETATM   20  O3  UNL     1      20.910  -1.587  54.761  1.00  0.00    -0.773 OA
HETATM   21  H13 UNL     1      20.523  -2.157  54.020  1.00  0.00     0.167 HD
ENDBRANCH  18  20
ENDBRANCH  15  18
ENDBRANCH   1  12
TORSDOF 7
ENDMDL
MODEL 3
REMARK VINA RESULT:      -6.7      2.004      3.712
REMARK  7 active torsions:
REMARK  status: ('A' for Active; 'I' for Inactive)
REMARK    1  A    between atoms: C2_2  and  C3_3 
REMARK    2  A    between atoms: C3_3  and  O1_4 
REMARK    3  A    between atoms: O1_4  and  C4_5 
REMARK    4  A    between atoms: C4_5  and  C5_6 
REMARK    5  A    between atoms: C5_6  and  C6_7 
REMARK    6  A    between atoms: C9_10  and  C10_11 
REMARK    7  A    between atoms: C10_11  and  O3_13 
ROOT
HETATM    1  C5  UNL     1      25.226   2.302  53.472  1.00  0.00     0.078 C 
ENDROOT
BRANCH   1   2
HETATM    2  C4  UNL     1      26.218   1.413  52.774  1.00  0.00     0.068 C 
HETATM    3  C13 UNL     1      27.569   1.727  53.467  1.00  0.00     0.065 C 
HETATM    4  C14 UNL     1      28.472   0.544  53.465  1.00  0.00    -0.028 C 
HETATM    5  C15 UNL     1      28.228  -0.708  53.099  1.00  0.00    -0.030 C 
HETATM    6  C16 UNL     1      26.842  -1.027  52.607  1.00  0.00     0.030 C 
HETATM    7  C17 UNL     1      25.921  -0.004  53.204  1.00  0.00     0.042 C 
BRANCH   2   8
HETATM    8  O1  UNL     1      26.409   1.649  51.475  1.00  0.00    -0.380 OA
BRANCH   8   9
HETATM    9  C3  UNL     1      26.761   2.800  50.924  1.00  0.00     0.168 C 
BRANCH   9  10
HETATM   10  C2  UNL     1      26.086   3.299  49.684  1.00  0.00     0.022 C 
HETATM   11  C1  UNL     1      26.953   4.424  49.066  1.00  0.00     0.007 C 
ENDBRANCH   9  10
ENDBRANCH   8   9
ENDBRANCH   2   8
ENDBRANCH   1   2
BRANCH   1  12
HETATM   12  C6  UNL     1      23.880   2.352  52.950  1.00  0.00    -0.041 A 
HETATM   13  C7  UNL     1      23.265   3.432  52.420  1.00  0.00    -0.038 A 
HETATM   14  C8  UNL     1      23.587   4.870  52.144  1.00  0.00     0.050 C 
HETATM   15  C9  UNL     1      22.081   2.621  52.191  1.00  0.00     0.050 A 
HETATM   16  C11 UNL     1      22.700   1.581  52.711  1.00  0.00    -0.038 A 
HETATM   17  C12 UNL     1      22.250   0.209  52.907  1.00  0.00     0.050 C 
BRANCH  15  18
HETATM   18  C10 UNL     1      20.751   2.898  51.609  1.00  0.00     0.177 C 
HETATM   19  O2  UNL     1      20.556   2.681  50.387  1.00  0.00    -0.646 OA
BRANCH  18  20
HETATM   20  O3  UNL     1      19.735   3.384  52.383  1.00  0.00    -0.773 OA
HETATM   21  H13 UNL     1      19.589   3.098  53.342  1.00  0.00     0.167 HD
ENDBRANCH  18  20
ENDBRANCH  15  18
ENDBRANCH   1  12
TORSDOF 7
ENDMDL
MODEL 4
REMARK VINA RESULT:      -6.6      2.604      4.295
REMARK  7 active torsions:
REMARK  status: ('A' for Active; 'I' for Inactive)
REMARK    1  A    between atoms: C2_2  and  C3_3 
REMARK    2  A    between atoms: C3_3  and  O1_4 
REMARK    3  A    between atoms: O1_4  and  C4_5 
REMARK    4  A    between atoms: C4_5  and  C5_6 
REMARK    5  A    between atoms: C5_6  and  C6_7 
REMARK    6  A    between atoms: C9_10  and  C10_11 
REMARK    7  A    between atoms: C10_11  and  O3_13 
ROOT
HETATM    1  C5  UNL     1      25.897   1.090  51.512  1.00  0.00     0.078 C 
ENDROOT
BRANCH   1   2
HETATM    2  C4  UNL     1      26.640   0.821  52.792  1.00  0.00     0.068 C 
HETATM    3  C13 UNL     1      27.313  -0.556  52.562  1.00  0.00     0.065 C 
HETATM    4  C14 UNL     1      28.588  -0.674  53.321  1.00  0.00    -0.028 C 
HETATM    5  C15 UNL     1      29.254   0.246  54.008  1.00  0.00    -0.030 C 
HETATM    6  C16 UNL     1      28.669   1.632  54.055  1.00  0.00     0.030 C 
HETATM    7  C17 UNL     1      27.804   1.781  52.838  1.00  0.00     0.042 C 
BRANCH   2   8
HETATM    8  O1  UNL     1      25.894   0.685  53.889  1.00  0.00    -0.380 OA
BRANCH   8   9
HETATM    9  C3  UNL     1      25.230  -0.397  54.265  1.00  0.00     0.168 C 
BRANCH   9  10
HETATM   10  C2  UNL     1      23.779  -0.565  53.935  1.00  0.00     0.022 C 
HETATM   11  C1  UNL     1      23.065  -1.207  55.151  1.00  0.00     0.007 C 
ENDBRANCH   9  10
ENDBRANCH   8   9
ENDBRANCH   2   8
ENDBRANCH   1   2
BRANCH   1  12
HETATM   12  C6  UNL     1      25.510   2.452  51.230  1.00  0.00    -0.041 A 
HETATM   13  C7  UNL     1      24.489   3.131  51.800  1.00  0.00    -0.038 A 
HETATM   14  C8  UNL     1      23.426   2.881  52.827  1.00  0.00     0.050 C 
HETATM   15  C9  UNL     1      24.833   4.288  50.990  1.00  0.00     0.050 A 
HETATM   16  C11 UNL     1      25.822   3.608  50.448  1.00  0.00    -0.038 A 
HETATM   17  C12 UNL     1      26.803   3.998  49.444  1.00  0.00     0.050 C 
BRANCH  15  18
HETATM   18  C10 UNL     1      24.269   5.649  50.864  1.00  0.00     0.177 C 
HETATM   19  O2  UNL     1      23.603   5.948  49.843  1.00  0.00    -0.646 OA
BRANCH  18  20
HETATM   20  O3  UNL     1      24.466   6.581  51.845  1.00  0.00    -0.773 OA
HETATM   21  H13 UNL     1      24.625   6.336  52.813  1.00  0.00     0.167 HD
ENDBRANCH  18  20
ENDBRANCH  15  18
ENDBRANCH   1  12
TORSDOF 7
ENDMDL
MODEL 5
REMARK VINA RESULT:      -6.6      2.632      4.643
REMARK  7 active torsions:
REMARK  status: ('A' for Active; 'I' for Inactive)
REMARK    1  A    between atoms: C2_2  and  C3_3 
REMARK    2  A    between atoms: C3_3  and  O1_4 
REMARK    3  A    between atoms: O1_4  and  C4_5 
REMARK    4  A    between atoms: C4_5  and  C5_6 
REMARK    5  A    between atoms: C5_6  and  C6_7 
REMARK    6  A    between atoms: C9_10  and  C10_11 
REMARK    7  A    between atoms: C10_11  and  O3_13 
ROOT
HETATM    1  C5  UNL     1      25.977   1.213  51.387  1.00  0.00     0.078 C 
ENDROOT
BRANCH   1   2
HETATM    2  C4  UNL     1      26.585   0.769  52.689  1.00  0.00     0.068 C 
HETATM    3  C13 UNL     1      27.126  -0.654  52.395  1.00  0.00     0.065 C 
HETATM    4  C14 UNL     1      28.319  -0.968  53.228  1.00  0.00    -0.028 C 
HETATM    5  C15 UNL     1      29.022  -0.181  54.033  1.00  0.00    -0.030 C 
HETATM    6  C16 UNL     1      28.584   1.254  54.152  1.00  0.00     0.030 C 
HETATM    7  C17 UNL     1      27.837   1.588  52.894  1.00  0.00     0.042 C 
BRANCH   2   8
HETATM    8  O1  UNL     1      25.746   0.636  53.717  1.00  0.00    -0.380 OA
BRANCH   8   9
HETATM    9  C3  UNL     1      24.938  -0.387  53.952  1.00  0.00     0.168 C 
BRANCH   9  10
HETATM   10  C2  UNL     1      23.483  -0.314  53.608  1.00  0.00     0.022 C 
HETATM   11  C1  UNL     1      22.677  -1.053  54.707  1.00  0.00     0.007 C 
ENDBRANCH   9  10
ENDBRANCH   8   9
ENDBRANCH   2   8
ENDBRANCH   1   2
BRANCH   1  12
HETATM   12  C6  UNL     1      25.387   2.529  51.332  1.00  0.00    -0.041 A 
HETATM   13  C7  UNL     1      25.751   3.538  50.509  1.00  0.00    -0.038 A 
HETATM   14  C8  UNL     1      26.762   3.780  49.429  1.00  0.00     0.050 C 
HETATM   15  C9  UNL     1      24.715   4.368  51.101  1.00  0.00     0.050 A 
HETATM   16  C11 UNL     1      24.376   3.371  51.892  1.00  0.00    -0.038 A 
HETATM   17  C12 UNL     1      23.339   3.279  52.911  1.00  0.00     0.050 C 
BRANCH  15  18
HETATM   18  C10 UNL     1      24.265   5.757  50.871  1.00  0.00     0.177 C 
HETATM   19  O2  UNL     1      23.719   6.056  49.780  1.00  0.00    -0.646 OA
BRANCH  18  20
HETATM   20  O3  UNL     1      24.437   6.716  51.830  1.00  0.00    -0.773 OA
HETATM   21  H13 UNL     1      23.667   7.128  52.341  1.00  0.00     0.167 HD
ENDBRANCH  18  20
ENDBRANCH  15  18
ENDBRANCH   1  12
TORSDOF 7
ENDMDL
MODEL 6
REMARK VINA RESULT:      -6.6      1.855      5.879
REMARK  7 active torsions:
REMARK  status: ('A' for Active; 'I' for Inactive)
REMARK    1  A    between atoms: C2_2  and  C3_3 
REMARK    2  A    between atoms: C3_3  and  O1_4 
REMARK    3  A    between atoms: O1_4  and  C4_5 
REMARK    4  A    between atoms: C4_5  and  C5_6 
REMARK    5  A    between atoms: C5_6  and  C6_7 
REMARK    6  A    between atoms: C9_10  and  C10_11 
REMARK    7  A    between atoms: C10_11  and  O3_13 
ROOT
HETATM    1  C5  UNL     1      24.028   0.564  52.408  1.00  0.00     0.078 C 
ENDROOT
BRANCH   1   2
HETATM    2  C4  UNL     1      22.997   1.632  52.158  1.00  0.00     0.068 C 
HETATM    3  C13 UNL     1      23.550   2.878  52.896  1.00  0.00     0.065 C 
HETATM    4  C14 UNL     1      23.126   4.139  52.230  1.00  0.00    -0.028 C 
HETATM    5  C15 UNL     1      22.498   4.318  51.075  1.00  0.00    -0.030 C 
HETATM    6  C16 UNL     1      22.141   3.089  50.284  1.00  0.00     0.030 C 
HETATM    7  C17 UNL     1      23.097   2.010  50.700  1.00  0.00     0.042 C 
BRANCH   2   8
HETATM    8  O1  UNL     1      21.785   1.412  52.669  1.00  0.00    -0.380 OA
BRANCH   8   9
HETATM    9  C3  UNL     1      21.313   0.258  53.118  1.00  0.00     0.168 C 
BRANCH   9  10
HETATM   10  C2  UNL     1      21.177   0.001  54.587  1.00  0.00     0.022 C 
HETATM   11  C1  UNL     1      22.188  -1.100  54.993  1.00  0.00     0.007 C 
ENDBRANCH   9  10
ENDBRANCH   8   9
ENDBRANCH   2   8
ENDBRANCH   1   2
BRANCH   1  12
HETATM   12  C6  UNL     1      25.393   0.981  52.623  1.00  0.00    -0.041 A 
HETATM   13  C7  UNL     1      26.173   0.664  53.681  1.00  0.00    -0.038 A 
HETATM   14  C8  UNL     1      26.057  -0.132  54.946  1.00  0.00     0.050 C 
HETATM   15  C9  UNL     1      27.253   1.437  53.092  1.00  0.00     0.050 A 
HETATM   16  C11 UNL     1      26.476   1.733  52.070  1.00  0.00    -0.038 A 
HETATM   17  C12 UNL     1      26.739   2.531  50.879  1.00  0.00     0.050 C 
BRANCH  15  18
HETATM   18  C10 UNL     1      28.638   1.737  53.510  1.00  0.00     0.177 C 
HETATM   19  O2  UNL     1      28.845   2.649  54.348  1.00  0.00    -0.646 OA
BRANCH  18  20
HETATM   20  O3  UNL     1      29.693   1.035  52.995  1.00  0.00    -0.773 OA
HETATM   21  H13 UNL     1      29.726   0.024  52.983  1.00  0.00     0.167 HD
ENDBRANCH  18  20
ENDBRANCH  15  18
ENDBRANCH   1  12
TORSDOF 7
ENDMDL
MODEL 7
REMARK VINA RESULT:      -6.6      2.020      5.992
REMARK  7 active torsions:
REMARK  status: ('A' for Active; 'I' for Inactive)
REMARK    1  A    between atoms: C2_2  and  C3_3 
REMARK    2  A    between atoms: C3_3  and  O1_4 
REMARK    3  A    between atoms: O1_4  and  C4_5 
REMARK    4  A    between atoms: C4_5  and  C5_6 
REMARK    5  A    between atoms: C5_6  and  C6_7 
REMARK    6  A    between atoms: C9_10  and  C10_11 
REMARK    7  A    between atoms: C10_11  and  O3_13 
ROOT
HETATM    1  C5  UNL     1      24.345  -0.107  52.450  1.00  0.00     0.078 C 
ENDROOT
BRANCH   1   2
HETATM    2  C4  UNL     1      23.070   0.436  53.037  1.00  0.00     0.068 C 
HETATM    3  C13 UNL     1      22.008   0.196  51.934  1.00  0.00     0.065 C 
HETATM    4  C14 UNL     1      20.655  -0.017  52.516  1.00  0.00    -0.028 C 
HETATM    5  C15 UNL     1      20.292  -0.165  53.784  1.00  0.00    -0.030 C 
HETATM    6  C16 UNL     1      21.377  -0.118  54.825  1.00  0.00     0.030 C 
HETATM    7  C17 UNL     1      22.654  -0.507  54.140  1.00  0.00     0.042 C 
BRANCH   2   8
HETATM    8  O1  UNL     1      23.049   1.746  53.287  1.00  0.00    -0.380 OA
BRANCH   8   9
HETATM    9  C3  UNL     1      22.945   2.720  52.396  1.00  0.00     0.168 C 
BRANCH   9  10
HETATM   10  C2  UNL     1      23.675   4.014  52.582  1.00  0.00     0.022 C 
HETATM   11  C1  UNL     1      23.840   4.693  51.199  1.00  0.00     0.007 C 
ENDBRANCH   9  10
ENDBRANCH   8   9
ENDBRANCH   2   8
ENDBRANCH   1   2
BRANCH   1  12
HETATM   12  C6  UNL     1      25.564   0.631  52.683  1.00  0.00    -0.041 A 
HETATM   13  C7  UNL     1      26.314   0.608  53.807  1.00  0.00    -0.038 A 
HETATM   14  C8  UNL     1      26.286  -0.064  55.147  1.00  0.00     0.050 C 
HETATM   15  C9  UNL     1      27.235   1.546  53.188  1.00  0.00     0.050 A 
HETATM   16  C11 UNL     1      26.489   1.553  52.102  1.00  0.00    -0.038 A 
HETATM   17  C12 UNL     1      26.654   2.267  50.843  1.00  0.00     0.050 C 
BRANCH  15  18
HETATM   18  C10 UNL     1      28.484   2.195  53.636  1.00  0.00     0.177 C 
HETATM   19  O2  UNL     1      29.038   1.803  54.693  1.00  0.00    -0.646 OA
BRANCH  18  20
HETATM   20  O3  UNL     1      29.041   3.215  52.916  1.00  0.00    -0.773 OA
HETATM   21  H13 UNL     1      28.511   3.786  52.270  1.00  0.00     0.167 HD
ENDBRANCH  18  20
ENDBRANCH  15  18
ENDBRANCH   1  12
TORSDOF 7
ENDMDL
MODEL 8
REMARK VINA RESULT:      -6.5      2.013      6.308
REMARK  7 active torsions:
REMARK  status: ('A' for Active; 'I' for Inactive)
REMARK    1  A    between atoms: C2_2  and  C3_3 
REMARK    2  A    between atoms: C3_3  and  O1_4 
REMARK    3  A    between atoms: O1_4  and  C4_5 
REMARK    4  A    between atoms: C4_5  and  C5_6 
REMARK    5  A    between atoms: C5_6  and  C6_7 
REMARK    6  A    between atoms: C9_10  and  C10_11 
REMARK    7  A    between atoms: C10_11  and  O3_13 
ROOT
HETATM    1  C5  UNL     1      24.044   0.602  51.825  1.00  0.00     0.078 C 
ENDROOT
BRANCH   1   2
HETATM    2  C4  UNL     1      22.806   0.921  52.616  1.00  0.00     0.068 C 
HETATM    3  C13 UNL     1      21.643   0.691  51.617  1.00  0.00     0.065 C 
HETATM    4  C14 UNL     1      20.402   0.255  52.314  1.00  0.00    -0.028 C 
HETATM    5  C15 UNL     1      20.218  -0.081  53.585  1.00  0.00    -0.030 C 
HETATM    6  C16 UNL     1      21.415  -0.031  54.494  1.00  0.00     0.030 C 
HETATM    7  C17 UNL     1      22.629  -0.187  53.626  1.00  0.00     0.042 C 
BRANCH   2   8
HETATM    8  O1  UNL     1      22.683   2.181  53.036  1.00  0.00    -0.380 OA
BRANCH   8   9
HETATM    9  C3  UNL     1      22.709   3.271  52.285  1.00  0.00     0.168 C 
BRANCH   9  10
HETATM   10  C2  UNL     1      23.548   4.451  52.668  1.00  0.00     0.022 C 
HETATM   11  C1  UNL     1      23.741   5.347  51.419  1.00  0.00     0.007 C 
ENDBRANCH   9  10
ENDBRANCH   8   9
ENDBRANCH   2   8
ENDBRANCH   1   2
BRANCH   1  12
HETATM   12  C6  UNL     1      25.324   0.887  52.430  1.00  0.00    -0.041 A 
HETATM   13  C7  UNL     1      26.275   1.716  51.944  1.00  0.00    -0.038 A 
HETATM   14  C8  UNL     1      26.469   2.607  50.754  1.00  0.00     0.050 C 
HETATM   15  C9  UNL     1      27.105   1.406  53.096  1.00  0.00     0.050 A 
HETATM   16  C11 UNL     1      26.165   0.603  53.551  1.00  0.00    -0.038 A 
HETATM   17  C12 UNL     1      26.114  -0.208  54.759  1.00  0.00     0.050 C 
BRANCH  15  18
HETATM   18  C10 UNL     1      28.449   1.842  53.532  1.00  0.00     0.177 C 
HETATM   19  O2  UNL     1      28.554   2.780  54.360  1.00  0.00    -0.646 OA
BRANCH  18  20
HETATM   20  O3  UNL     1      29.574   1.236  53.045  1.00  0.00    -0.773 OA
HETATM   21  H13 UNL     1      30.260   0.790  53.640  1.00  0.00     0.167 HD
ENDBRANCH  18  20
ENDBRANCH  15  18
ENDBRANCH   1  12
TORSDOF 7
ENDMDL
MODEL 9
REMARK VINA RESULT:      -6.5      2.665      6.015
REMARK  7 active torsions:
REMARK  status: ('A' for Active; 'I' for Inactive)
REMARK    1  A    between atoms: C2_2  and  C3_3 
REMARK    2  A    between atoms: C3_3  and  O1_4 
REMARK    3  A    between atoms: O1_4  and  C4_5 
REMARK    4  A    between atoms: C4_5  and  C5_6 
REMARK    5  A    between atoms: C5_6  and  C6_7 
REMARK    6  A    between atoms: C9_10  and  C10_11 
REMARK    7  A    between atoms: C10_11  and  O3_13 
ROOT
HETATM    1  C5  UNL     1      23.555   1.900  51.732  1.00  0.00     0.078 C 
ENDROOT
BRANCH   1   2
HETATM    2  C4  UNL     1      22.566   2.350  50.692  1.00  0.00     0.068 C 
HETATM    3  C13 UNL     1      23.442   2.976  49.576  1.00  0.00     0.065 C 
HETATM    4  C14 UNL     1      22.810   2.824  48.237  1.00  0.00    -0.028 C 
HETATM    5  C15 UNL     1      21.732   2.137  47.881  1.00  0.00    -0.030 C 
HETATM    6  C16 UNL     1      21.008   1.379  48.960  1.00  0.00     0.030 C 
HETATM    7  C17 UNL     1      22.005   1.106  50.046  1.00  0.00     0.042 C 
BRANCH   2   8
HETATM    8  O1  UNL     1      21.711   3.304  51.065  1.00  0.00    -0.380 OA
BRANCH   8   9
HETATM    9  C3  UNL     1      21.977   4.346  51.838  1.00  0.00     0.168 C 
BRANCH   9  10
HETATM   10  C2  UNL     1      21.826   5.744  51.326  1.00  0.00     0.022 C 
HETATM   11  C1  UNL     1      20.743   5.752  50.218  1.00  0.00     0.007 C 
ENDBRANCH   9  10
ENDBRANCH   8   9
ENDBRANCH   2   8
ENDBRANCH   1   2
BRANCH   1  12
HETATM   12  C6  UNL     1      23.108   0.947  52.721  1.00  0.00    -0.041 A 
HETATM   13  C7  UNL     1      23.855  -0.020  53.299  1.00  0.00    -0.038 A 
HETATM   14  C8  UNL     1      25.267  -0.520  53.234  1.00  0.00     0.050 C 
HETATM   15  C9  UNL     1      22.694  -0.428  54.072  1.00  0.00     0.050 A 
HETATM   16  C11 UNL     1      21.985   0.522  53.496  1.00  0.00    -0.038 A 
HETATM   17  C12 UNL     1      20.590   0.903  53.673  1.00  0.00     0.050 C 
BRANCH  15  18
HETATM   18  C10 UNL     1      22.458  -1.483  55.079  1.00  0.00     0.177 C 
HETATM   19  O2  UNL     1      21.407  -2.168  55.020  1.00  0.00    -0.646 OA
BRANCH  18  20
HETATM   20  O3  UNL     1      23.369  -1.721  56.071  1.00  0.00    -0.773 OA
HETATM   21  H13 UNL     1      23.112  -1.799  57.046  1.00  0.00     0.167 HD
ENDBRANCH  18  20
ENDBRANCH  15  18
ENDBRANCH   1  12
TORSDOF 7
ENDMDL
