MODEL 1
REMARK VINA RESULT:      -8.7      0.000      0.000
REMARK  3 active torsions:
REMARK  status: ('A' for Active; 'I' for Inactive)
REMARK       I    between atoms: C2_2  and  N1_4 
REMARK    1  A    between atoms: N1_4  and  C3_5 
REMARK    2  A    between atoms: C10_14  and  N4_15 
REMARK    3  A    between atoms: N4_15  and  C11_16 
ROOT
HETATM    1  C3  UNL     1      25.297  -0.479  54.577  1.00  0.00     0.035 A 
HETATM    2  C4  UNL     1      24.800  -1.246  55.632  1.00  0.00     0.032 A 
HETATM    3  C5  UNL     1      23.436  -1.534  55.696  1.00  0.00     0.035 A 
HETATM    4  C6  UNL     1      22.569  -1.068  54.730  1.00  0.00     0.069 A 
HETATM    5  N2  UNL     1      21.249  -1.337  54.778  1.00  0.00    -0.259 NA
HETATM    6  C7  UNL     1      20.390  -0.890  53.841  1.00  0.00     0.142 A 
HETATM    7  C8  UNL     1      20.846  -0.128  52.782  1.00  0.00     0.089 A 
HETATM    8  C9  UNL     1      19.957   0.372  51.756  1.00  0.00     0.103 C 
HETATM    9  N3  UNL     1      19.246   0.779  50.929  1.00  0.00    -0.191 NA
HETATM   10  C10 UNL     1      22.185   0.176  52.685  1.00  0.00     0.067 A 
HETATM   11  C17 UNL     1      23.021  -0.302  53.663  1.00  0.00     0.023 A 
HETATM   12  C18 UNL     1      24.377  -0.044  53.641  1.00  0.00     0.045 A 
ENDROOT
BRANCH  10  13
HETATM   13  N4  UNL     1      22.743   0.940  51.653  1.00  0.00    -0.354 N 
HETATM   14  H8  UNL     1      22.778   0.245  50.875  1.00  0.00     0.166 HD
BRANCH  13  15
HETATM   15  C11 UNL     1      23.207   2.271  51.466  1.00  0.00     0.033 A 
HETATM   16  C12 UNL     1      22.483   3.317  52.006  1.00  0.00     0.029 A 
HETATM   17  C13 UNL     1      23.024   4.557  51.763  1.00  0.00     0.004 A 
HETATM   18  C14 UNL     1      24.179   4.821  51.056  1.00  0.00     0.019 A 
HETATM   19  C15 UNL     1      24.865   3.755  50.539  1.00  0.00     0.013 A 
HETATM   20 BR1  UNL     1      26.464   3.916  49.544  1.00  0.00    -0.051 Br
HETATM   21  C16 UNL     1      24.368   2.478  50.751  1.00  0.00     0.048 A 
ENDBRANCH  13  15
ENDBRANCH  10  13
BRANCH   1  22
HETATM   22  N1  UNL     1      26.659  -0.121  54.401  1.00  0.00    -0.327 N 
HETATM   23  C2  UNL     1      27.528  -0.936  53.626  1.00  0.00     0.218 C 
HETATM   24  C1  UNL     1      28.948  -0.523  53.467  1.00  0.00     0.117 C 
HETATM   25  O1  UNL     1      27.067  -1.991  53.090  1.00  0.00    -0.274 OA
HETATM   26  H4  UNL     1      26.974   0.758  54.867  1.00  0.00     0.169 HD
ENDBRANCH   1  22
TORSDOF 3
ENDMDL
MODEL 2
REMARK VINA RESULT:      -8.5      2.264      3.438
REMARK  3 active torsions:
REMARK  status: ('A' for Active; 'I' for Inactive)
REMARK       I    between atoms: C2_2  and  N1_4 
REMARK    1  A    between atoms: N1_4  and  C3_5 
REMARK    2  A    between atoms: C10_14  and  N4_15 
REMARK    3  A    between atoms: N4_15  and  C11_16 
ROOT
HETATM    1  C3  UNL     1      25.083   0.223  53.175  1.00  0.00     0.035 A 
HETATM    2  C4  UNL     1      24.000  -0.617  53.440  1.00  0.00     0.032 A 
HETATM    3  C5  UNL     1      22.699  -0.139  53.279  1.00  0.00     0.035 A 
HETATM    4  C6  UNL     1      22.467   1.155  52.861  1.00  0.00     0.069 A 
HETATM    5  N2  UNL     1      21.215   1.630  52.701  1.00  0.00    -0.259 NA
HETATM    6  C7  UNL     1      20.974   2.891  52.293  1.00  0.00     0.142 A 
HETATM    7  C8  UNL     1      22.022   3.751  52.021  1.00  0.00     0.089 A 
HETATM    8  C9  UNL     1      21.804   5.112  51.581  1.00  0.00     0.103 C 
HETATM    9  N3  UNL     1      21.635   6.209  51.230  1.00  0.00    -0.191 NA
HETATM   10  C10 UNL     1      23.319   3.316  52.168  1.00  0.00     0.067 A 
HETATM   11  C17 UNL     1      23.515   2.023  52.586  1.00  0.00     0.023 A 
HETATM   12  C18 UNL     1      24.784   1.507  52.759  1.00  0.00     0.045 A 
ENDROOT
BRANCH  10  13
HETATM   13  N4  UNL     1      24.445   4.109  51.919  1.00  0.00    -0.354 N 
HETATM   14  H8  UNL     1      24.622   4.521  52.861  1.00  0.00     0.166 HD
BRANCH  13  15
HETATM   15  C11 UNL     1      25.279   4.427  50.812  1.00  0.00     0.033 A 
HETATM   16  C12 UNL     1      26.193   3.491  50.368  1.00  0.00     0.029 A 
HETATM   17  C13 UNL     1      26.944   3.906  49.295  1.00  0.00     0.004 A 
HETATM   18  C14 UNL     1      26.856   5.128  48.658  1.00  0.00     0.019 A 
HETATM   19  C15 UNL     1      25.937   6.024  49.131  1.00  0.00     0.013 A 
HETATM   20 BR1  UNL     1      25.670   7.744  48.393  1.00  0.00    -0.051 Br
HETATM   21  C16 UNL     1      25.149   5.663  50.213  1.00  0.00     0.048 A 
ENDBRANCH  13  15
ENDBRANCH  10  13
BRANCH   1  22
HETATM   22  N1  UNL     1      26.448  -0.144  53.300  1.00  0.00    -0.327 N 
HETATM   23  C2  UNL     1      27.219   0.300  54.409  1.00  0.00     0.218 C 
HETATM   24  C1  UNL     1      28.647  -0.109  54.501  1.00  0.00     0.117 C 
HETATM   25  O1  UNL     1      26.668   1.032  55.288  1.00  0.00    -0.274 OA
HETATM   26  H4  UNL     1      26.841  -0.747  52.544  1.00  0.00     0.169 HD
ENDBRANCH   1  22
TORSDOF 3
ENDMDL
MODEL 3
REMARK VINA RESULT:      -8.3      2.223      4.955
REMARK  3 active torsions:
REMARK  status: ('A' for Active; 'I' for Inactive)
REMARK       I    between atoms: C2_2  and  N1_4 
REMARK    1  A    between atoms: N1_4  and  C3_5 
REMARK    2  A    between atoms: C10_14  and  N4_15 
REMARK    3  A    between atoms: N4_15  and  C11_16 
ROOT
HETATM    1  C3  UNL     1      22.185  -0.547  53.102  1.00  0.00     0.035 A 
HETATM    2  C4  UNL     1      22.281  -1.296  54.277  1.00  0.00     0.032 A 
HETATM    3  C5  UNL     1      23.468  -1.282  55.010  1.00  0.00     0.035 A 
HETATM    4  C6  UNL     1      24.551  -0.538  54.590  1.00  0.00     0.069 A 
HETATM    5  N2  UNL     1      25.704  -0.515  55.288  1.00  0.00    -0.259 NA
HETATM    6  C7  UNL     1      26.769   0.208  54.890  1.00  0.00     0.142 A 
HETATM    7  C8  UNL     1      26.711   0.961  53.733  1.00  0.00     0.089 A 
HETATM    8  C9  UNL     1      27.833   1.749  53.271  1.00  0.00     0.103 C 
HETATM    9  N3  UNL     1      28.733   2.383  52.894  1.00  0.00    -0.191 NA
HETATM   10  C10 UNL     1      25.557   0.972  52.982  1.00  0.00     0.067 A 
HETATM   11  C17 UNL     1      24.498   0.221  53.428  1.00  0.00     0.023 A 
HETATM   12  C18 UNL     1      23.304   0.177  52.736  1.00  0.00     0.045 A 
ENDROOT
BRANCH  10  13
HETATM   13  N4  UNL     1      25.399   1.701  51.798  1.00  0.00    -0.354 N 
HETATM   14  H8  UNL     1      25.604   0.974  51.078  1.00  0.00     0.166 HD
BRANCH  13  15
HETATM   15  C11 UNL     1      25.067   3.032  51.421  1.00  0.00     0.033 A 
HETATM   16  C12 UNL     1      23.991   3.652  52.025  1.00  0.00     0.029 A 
HETATM   17  C13 UNL     1      23.764   4.934  51.584  1.00  0.00     0.004 A 
HETATM   18  C14 UNL     1      24.495   5.613  50.630  1.00  0.00     0.019 A 
HETATM   19  C15 UNL     1      25.553   4.960  50.059  1.00  0.00     0.013 A 
HETATM   20 BR1  UNL     1      26.669   5.722  48.737  1.00  0.00    -0.051 Br
HETATM   21  C16 UNL     1      25.832   3.663  50.462  1.00  0.00     0.048 A 
ENDBRANCH  13  15
ENDBRANCH  10  13
BRANCH   1  22
HETATM   22  N1  UNL     1      21.036  -0.479  52.271  1.00  0.00    -0.327 N 
HETATM   23  C2  UNL     1      20.083   0.562  52.439  1.00  0.00     0.218 C 
HETATM   24  C1  UNL     1      18.893   0.595  51.546  1.00  0.00     0.117 C 
HETATM   25  O1  UNL     1      20.273   1.432  53.343  1.00  0.00    -0.274 OA
HETATM   26  H4  UNL     1      20.938  -1.224  51.548  1.00  0.00     0.169 HD
ENDBRANCH   1  22
TORSDOF 3
ENDMDL
MODEL 4
REMARK VINA RESULT:      -8.3      2.796      5.575
REMARK  3 active torsions:
REMARK  status: ('A' for Active; 'I' for Inactive)
REMARK       I    between atoms: C2_2  and  N1_4 
REMARK    1  A    between atoms: N1_4  and  C3_5 
REMARK    2  A    between atoms: C10_14  and  N4_15 
REMARK    3  A    between atoms: N4_15  and  C11_16 
ROOT
HETATM    1  C3  UNL     1      24.106   2.951  49.772  1.00  0.00     0.035 A 
HETATM    2  C4  UNL     1      22.957   2.854  48.985  1.00  0.00     0.032 A 
HETATM    3  C5  UNL     1      21.889   2.065  49.414  1.00  0.00     0.035 A 
HETATM    4  C6  UNL     1      21.953   1.376  50.607  1.00  0.00     0.069 A 
HETATM    5  N2  UNL     1      20.930   0.610  51.035  1.00  0.00    -0.259 NA
HETATM    6  C7  UNL     1      20.978  -0.068  52.199  1.00  0.00     0.142 A 
HETATM    7  C8  UNL     1      22.099   0.004  53.004  1.00  0.00     0.089 A 
HETATM    8  C9  UNL     1      22.190  -0.709  54.259  1.00  0.00     0.103 C 
HETATM    9  N3  UNL     1      22.270  -1.282  55.269  1.00  0.00    -0.191 NA
HETATM   10  C10 UNL     1      23.172   0.773  52.614  1.00  0.00     0.067 A 
HETATM   11  C17 UNL     1      23.077   1.445  51.421  1.00  0.00     0.023 A 
HETATM   12  C18 UNL     1      24.107   2.237  50.956  1.00  0.00     0.045 A 
ENDROOT
BRANCH  10  13
HETATM   13  N4  UNL     1      24.350   0.909  53.358  1.00  0.00    -0.354 N 
HETATM   14  H8  UNL     1      24.049   1.575  54.103  1.00  0.00     0.166 HD
BRANCH  13  15
HETATM   15  C11 UNL     1      25.679   0.405  53.320  1.00  0.00     0.033 A 
HETATM   16  C12 UNL     1      25.895  -0.887  52.881  1.00  0.00     0.029 A 
HETATM   17  C13 UNL     1      27.216  -1.267  52.886  1.00  0.00     0.004 A 
HETATM   18  C14 UNL     1      28.289  -0.491  53.277  1.00  0.00     0.019 A 
HETATM   19  C15 UNL     1      28.028   0.783  53.704  1.00  0.00     0.013 A 
HETATM   20 BR1  UNL     1      29.363   1.992  54.279  1.00  0.00    -0.051 Br
HETATM   21  C16 UNL     1      26.714   1.224  53.722  1.00  0.00     0.048 A 
ENDBRANCH  13  15
ENDBRANCH  10  13
BRANCH   1  22
HETATM   22  N1  UNL     1      25.255   3.718  49.446  1.00  0.00    -0.327 N 
HETATM   23  C2  UNL     1      25.203   5.139  49.458  1.00  0.00     0.218 C 
HETATM   24  C1  UNL     1      26.431   5.904  49.110  1.00  0.00     0.117 C 
HETATM   25  O1  UNL     1      24.114   5.712  49.766  1.00  0.00    -0.274 OA
HETATM   26  H4  UNL     1      26.118   3.186  49.202  1.00  0.00     0.169 HD
ENDBRANCH   1  22
TORSDOF 3
ENDMDL
MODEL 5
REMARK VINA RESULT:      -8.2      2.909      5.270
REMARK  3 active torsions:
REMARK  status: ('A' for Active; 'I' for Inactive)
REMARK       I    between atoms: C2_2  and  N1_4 
REMARK    1  A    between atoms: N1_4  and  C3_5 
REMARK    2  A    between atoms: C10_14  and  N4_15 
REMARK    3  A    between atoms: N4_15  and  C11_16 
ROOT
HETATM    1  C3  UNL     1      26.261   1.500  52.002  1.00  0.00     0.035 A 
HETATM    2  C4  UNL     1      26.708   2.176  50.865  1.00  0.00     0.032 A 
HETATM    3  C5  UNL     1      25.823   2.977  50.143  1.00  0.00     0.035 A 
HETATM    4  C6  UNL     1      24.508   3.111  50.537  1.00  0.00     0.069 A 
HETATM    5  N2  UNL     1      23.641   3.881  49.850  1.00  0.00    -0.259 NA
HETATM    6  C7  UNL     1      22.354   4.022  50.224  1.00  0.00     0.142 A 
HETATM    7  C8  UNL     1      21.876   3.368  51.344  1.00  0.00     0.089 A 
HETATM    8  C9  UNL     1      20.501   3.493  51.777  1.00  0.00     0.103 C 
HETATM    9  N3  UNL     1      19.395   3.587  52.129  1.00  0.00    -0.191 NA
HETATM   10  C10 UNL     1      22.719   2.569  52.081  1.00  0.00     0.067 A 
HETATM   11  C17 UNL     1      24.022   2.457  51.662  1.00  0.00     0.023 A 
HETATM   12  C18 UNL     1      24.933   1.676  52.344  1.00  0.00     0.045 A 
ENDROOT
BRANCH  10  13
HETATM   13  N4  UNL     1      22.330   1.867  53.228  1.00  0.00    -0.354 N 
HETATM   14  H8  UNL     1      22.537   2.562  53.977  1.00  0.00     0.166 HD
BRANCH  13  15
HETATM   15  C11 UNL     1      21.791   0.589  53.543  1.00  0.00     0.033 A 
HETATM   16  C12 UNL     1      22.610  -0.364  54.116  1.00  0.00     0.029 A 
HETATM   17  C13 UNL     1      21.982  -1.558  54.377  1.00  0.00     0.004 A 
HETATM   18  C14 UNL     1      20.660  -1.861  54.122  1.00  0.00     0.019 A 
HETATM   19  C15 UNL     1      19.885  -0.887  53.554  1.00  0.00     0.013 A 
HETATM   20 BR1  UNL     1      18.056  -1.112  53.131  1.00  0.00    -0.051 Br
HETATM   21  C16 UNL     1      20.461   0.341  53.267  1.00  0.00     0.048 A 
ENDBRANCH  13  15
ENDBRANCH  10  13
BRANCH   1  22
HETATM   22  N1  UNL     1      27.061   0.658  52.818  1.00  0.00    -0.327 N 
HETATM   23  C2  UNL     1      27.836   1.202  53.878  1.00  0.00     0.218 C 
HETATM   24  C1  UNL     1      28.662   0.284  54.708  1.00  0.00     0.117 C 
HETATM   25  O1  UNL     1      27.802   2.454  54.086  1.00  0.00    -0.274 OA
HETATM   26  H4  UNL     1      27.045  -0.361  52.594  1.00  0.00     0.169 HD
ENDBRANCH   1  22
TORSDOF 3
ENDMDL
MODEL 6
REMARK VINA RESULT:      -8.1      2.891      4.705
REMARK  3 active torsions:
REMARK  status: ('A' for Active; 'I' for Inactive)
REMARK       I    between atoms: C2_2  and  N1_4 
REMARK    1  A    between atoms: N1_4  and  C3_5 
REMARK    2  A    between atoms: C10_14  and  N4_15 
REMARK    3  A    between atoms: N4_15  and  C11_16 
ROOT
HETATM    1  C3  UNL     1      26.556   1.749  51.876  1.00  0.00     0.035 A 
HETATM    2  C4  UNL     1      27.556   1.531  52.826  1.00  0.00     0.032 A 
HETATM    3  C5  UNL     1      27.282   0.754  53.952  1.00  0.00     0.035 A 
HETATM    4  C6  UNL     1      26.034   0.197  54.141  1.00  0.00     0.069 A 
HETATM    5  N2  UNL     1      25.755  -0.556  55.224  1.00  0.00    -0.259 NA
HETATM    6  C7  UNL     1      24.541  -1.107  55.421  1.00  0.00     0.142 A 
HETATM    7  C8  UNL     1      23.528  -0.913  54.502  1.00  0.00     0.089 A 
HETATM    8  C9  UNL     1      22.211  -1.486  54.678  1.00  0.00     0.103 C 
HETATM    9  N3  UNL     1      21.149  -1.943  54.815  1.00  0.00    -0.191 NA
HETATM   10  C10 UNL     1      23.760  -0.152  53.379  1.00  0.00     0.067 A 
HETATM   11  C17 UNL     1      25.012   0.388  53.221  1.00  0.00     0.023 A 
HETATM   12  C18 UNL     1      25.328   1.163  52.123  1.00  0.00     0.045 A 
ENDROOT
BRANCH  10  13
HETATM   13  N4  UNL     1      22.800   0.103  52.392  1.00  0.00    -0.354 N 
HETATM   14  H8  UNL     1      23.128  -0.516  51.619  1.00  0.00     0.166 HD
BRANCH  13  15
HETATM   15  C11 UNL     1      21.639   0.910  52.242  1.00  0.00     0.033 A 
HETATM   16  C12 UNL     1      21.731   2.269  52.468  1.00  0.00     0.029 A 
HETATM   17  C13 UNL     1      20.549   2.948  52.293  1.00  0.00     0.004 A 
HETATM   18  C14 UNL     1      19.337   2.399  51.927  1.00  0.00     0.019 A 
HETATM   19  C15 UNL     1      19.291   1.048  51.713  1.00  0.00     0.013 A 
HETATM   20 BR1  UNL     1      17.726   0.116  51.207  1.00  0.00    -0.051 Br
HETATM   21  C16 UNL     1      20.452   0.308  51.874  1.00  0.00     0.048 A 
ENDBRANCH  13  15
ENDBRANCH  10  13
BRANCH   1  22
HETATM   22  N1  UNL     1      26.710   2.518  50.693  1.00  0.00    -0.327 N 
HETATM   23  C2  UNL     1      25.864   3.632  50.438  1.00  0.00     0.218 C 
HETATM   24  C1  UNL     1      26.061   4.410  49.185  1.00  0.00     0.117 C 
HETATM   25  O1  UNL     1      24.968   3.931  51.285  1.00  0.00    -0.274 OA
HETATM   26  H4  UNL     1      27.465   2.220  50.038  1.00  0.00     0.169 HD
ENDBRANCH   1  22
TORSDOF 3
ENDMDL
MODEL 7
REMARK VINA RESULT:      -8.1      3.191      5.832
REMARK  3 active torsions:
REMARK  status: ('A' for Active; 'I' for Inactive)
REMARK       I    between atoms: C2_2  and  N1_4 
REMARK    1  A    between atoms: N1_4  and  C3_5 
REMARK    2  A    between atoms: C10_14  and  N4_15 
REMARK    3  A    between atoms: N4_15  and  C11_16 
ROOT
HETATM    1  C3  UNL     1      24.966   3.116  50.839  1.00  0.00     0.035 A 
HETATM    2  C4  UNL     1      26.304   2.716  50.852  1.00  0.00     0.032 A 
HETATM    3  C5  UNL     1      26.690   1.619  51.623  1.00  0.00     0.035 A 
HETATM    4  C6  UNL     1      25.767   0.923  52.376  1.00  0.00     0.069 A 
HETATM    5  N2  UNL     1      26.126  -0.138  53.126  1.00  0.00    -0.259 NA
HETATM    6  C7  UNL     1      25.235  -0.828  53.866  1.00  0.00     0.142 A 
HETATM    7  C8  UNL     1      23.903  -0.460  53.878  1.00  0.00     0.089 A 
HETATM    8  C9  UNL     1      22.916  -1.174  54.659  1.00  0.00     0.103 C 
HETATM    9  N3  UNL     1      22.118  -1.743  55.288  1.00  0.00    -0.191 NA
HETATM   10  C10 UNL     1      23.484   0.616  53.130  1.00  0.00     0.067 A 
HETATM   11  C17 UNL     1      24.427   1.287  52.392  1.00  0.00     0.023 A 
HETATM   12  C18 UNL     1      24.091   2.377  51.614  1.00  0.00     0.045 A 
ENDROOT
BRANCH  10  13
HETATM   13  N4  UNL     1      22.159   1.066  53.076  1.00  0.00    -0.354 N 
HETATM   14  H8  UNL     1      22.162   1.809  53.809  1.00  0.00     0.166 HD
BRANCH  13  15
HETATM   15  C11 UNL     1      20.979   0.767  52.341  1.00  0.00     0.033 A 
HETATM   16  C12 UNL     1      20.862   1.227  51.044  1.00  0.00     0.029 A 
HETATM   17  C13 UNL     1      19.681   0.879  50.431  1.00  0.00     0.004 A 
HETATM   18  C14 UNL     1      18.657   0.141  50.989  1.00  0.00     0.019 A 
HETATM   19  C15 UNL     1      18.816  -0.295  52.276  1.00  0.00     0.013 A 
HETATM   20 BR1  UNL     1      17.527  -1.316  53.208  1.00  0.00    -0.051 Br
HETATM   21  C16 UNL     1      19.986   0.025  52.947  1.00  0.00     0.048 A 
ENDBRANCH  13  15
ENDBRANCH  10  13
BRANCH   1  22
HETATM   22  N1  UNL     1      24.450   4.211  50.098  1.00  0.00    -0.327 N 
HETATM   23  C2  UNL     1      23.624   3.992  48.962  1.00  0.00     0.218 C 
HETATM   24  C1  UNL     1      23.105   5.169  48.215  1.00  0.00     0.117 C 
HETATM   25  O1  UNL     1      23.353   2.800  48.620  1.00  0.00    -0.274 OA
HETATM   26  H4  UNL     1      24.711   5.165  50.432  1.00  0.00     0.169 HD
ENDBRANCH   1  22
TORSDOF 3
ENDMDL
MODEL 8
REMARK VINA RESULT:      -8.0      2.500      5.316
REMARK  3 active torsions:
REMARK  status: ('A' for Active; 'I' for Inactive)
REMARK       I    between atoms: C2_2  and  N1_4 
REMARK    1  A    between atoms: N1_4  and  C3_5 
REMARK    2  A    between atoms: C10_14  and  N4_15 
REMARK    3  A    between atoms: N4_15  and  C11_16 
ROOT
HETATM    1  C3  UNL     1      21.561   0.903  52.284  1.00  0.00     0.035 A 
HETATM    2  C4  UNL     1      21.473  -0.370  52.852  1.00  0.00     0.032 A 
HETATM    3  C5  UNL     1      22.577  -0.910  53.512  1.00  0.00     0.035 A 
HETATM    4  C6  UNL     1      23.758  -0.204  53.611  1.00  0.00     0.069 A 
HETATM    5  N2  UNL     1      24.833  -0.714  54.245  1.00  0.00    -0.259 NA
HETATM    6  C7  UNL     1      25.993  -0.035  54.349  1.00  0.00     0.142 A 
HETATM    7  C8  UNL     1      26.117   1.227  53.799  1.00  0.00     0.089 A 
HETATM    8  C9  UNL     1      27.345   1.986  53.889  1.00  0.00     0.103 C 
HETATM    9  N3  UNL     1      28.330   2.602  53.956  1.00  0.00    -0.191 NA
HETATM   10  C10 UNL     1      25.049   1.793  53.141  1.00  0.00     0.067 A 
HETATM   11  C17 UNL     1      23.889   1.064  53.060  1.00  0.00     0.023 A 
HETATM   12  C18 UNL     1      22.771   1.558  52.418  1.00  0.00     0.045 A 
ENDROOT
BRANCH  10  13
HETATM   13  N4  UNL     1      25.076   3.062  52.551  1.00  0.00    -0.354 N 
HETATM   14  H8  UNL     1      24.718   3.660  53.328  1.00  0.00     0.166 HD
BRANCH  13  15
HETATM   15  C11 UNL     1      25.435   3.629  51.297  1.00  0.00     0.033 A 
HETATM   16  C12 UNL     1      26.544   3.143  50.634  1.00  0.00     0.029 A 
HETATM   17  C13 UNL     1      26.796   3.764  49.434  1.00  0.00     0.004 A 
HETATM   18  C14 UNL     1      26.057   4.786  48.871  1.00  0.00     0.019 A 
HETATM   19  C15 UNL     1      24.966   5.235  49.563  1.00  0.00     0.013 A 
HETATM   20 BR1  UNL     1      23.835   6.623  48.956  1.00  0.00    -0.051 Br
HETATM   21  C16 UNL     1      24.661   4.648  50.781  1.00  0.00     0.048 A 
ENDBRANCH  13  15
ENDBRANCH  10  13
BRANCH   1  22
HETATM   22  N1  UNL     1      20.512   1.559  51.590  1.00  0.00    -0.327 N 
HETATM   23  C2  UNL     1      20.409   1.464  50.176  1.00  0.00     0.218 C 
HETATM   24  C1  UNL     1      19.292   2.168  49.489  1.00  0.00     0.117 C 
HETATM   25  O1  UNL     1      21.270   0.782  49.540  1.00  0.00    -0.274 OA
HETATM   26  H4  UNL     1      19.837   2.104  52.171  1.00  0.00     0.169 HD
ENDBRANCH   1  22
TORSDOF 3
ENDMDL
MODEL 9
REMARK VINA RESULT:      -7.9      2.347      5.268
REMARK  3 active torsions:
REMARK  status: ('A' for Active; 'I' for Inactive)
REMARK       I    between atoms: C2_2  and  N1_4 
REMARK    1  A    between atoms: N1_4  and  C3_5 
REMARK    2  A    between atoms: C10_14  and  N4_15 
REMARK    3  A    between atoms: N4_15  and  C11_16 
ROOT
HETATM    1  C3  UNL     1      19.482   0.254  51.780  1.00  0.00     0.035 A 
HETATM    2  C4  UNL     1      18.752  -0.504  52.698  1.00  0.00     0.032 A 
HETATM    3  C5  UNL     1      19.411  -1.126  53.760  1.00  0.00     0.035 A 
HETATM    4  C6  UNL     1      20.776  -1.003  53.915  1.00  0.00     0.069 A 
HETATM    5  N2  UNL     1      21.426  -1.597  54.936  1.00  0.00    -0.259 NA
HETATM    6  C7  UNL     1      22.758  -1.485  55.101  1.00  0.00     0.142 A 
HETATM    7  C8  UNL     1      23.512  -0.743  54.212  1.00  0.00     0.089 A 
HETATM    8  C9  UNL     1      24.945  -0.599  54.354  1.00  0.00     0.103 C 
HETATM    9  N3  UNL     1      26.098  -0.481  54.461  1.00  0.00    -0.191 NA
HETATM   10  C10 UNL     1      22.898  -0.115  53.152  1.00  0.00     0.067 A 
HETATM   11  C17 UNL     1      21.539  -0.258  53.026  1.00  0.00     0.023 A 
HETATM   12  C18 UNL     1      20.845   0.339  51.992  1.00  0.00     0.045 A 
ENDROOT
BRANCH  10  13
HETATM   13  N4  UNL     1      23.574   0.657  52.200  1.00  0.00    -0.354 N 
HETATM   14  H8  UNL     1      23.932  -0.078  51.552  1.00  0.00     0.166 HD
BRANCH  13  15
HETATM   15  C11 UNL     1      23.838   2.034  51.961  1.00  0.00     0.033 A 
HETATM   16  C12 UNL     1      23.139   2.986  52.678  1.00  0.00     0.029 A 
HETATM   17  C13 UNL     1      23.476   4.281  52.365  1.00  0.00     0.004 A 
HETATM   18  C14 UNL     1      24.415   4.681  51.436  1.00  0.00     0.019 A 
HETATM   19  C15 UNL     1      25.084   3.704  50.750  1.00  0.00     0.013 A 
HETATM   20 BR1  UNL     1      26.402   4.054  49.441  1.00  0.00    -0.051 Br
HETATM   21  C16 UNL     1      24.787   2.377  51.021  1.00  0.00     0.048 A 
ENDBRANCH  13  15
ENDBRANCH  10  13
BRANCH   1  22
HETATM   22  N1  UNL     1      18.929   0.932  50.663  1.00  0.00    -0.327 N 
HETATM   23  C2  UNL     1      18.489   2.279  50.779  1.00  0.00     0.218 C 
HETATM   24  C1  UNL     1      17.916   2.952  49.581  1.00  0.00     0.117 C 
HETATM   25  O1  UNL     1      18.597   2.868  51.898  1.00  0.00    -0.274 OA
HETATM   26  H4  UNL     1      18.868   0.392  49.772  1.00  0.00     0.169 HD
ENDBRANCH   1  22
TORSDOF 3
ENDMDL
