MODEL 1
REMARK VINA RESULT:      -8.5      0.000      0.000
REMARK  6 active torsions:
REMARK  status: ('A' for Active; 'I' for Inactive)
REMARK    1  A    between atoms: C4_5  and  N1_6 
REMARK    2  A    between atoms: N1_6  and  N2_7 
REMARK    3  A    between atoms: C12_16  and  N4_17 
REMARK    4  A    between atoms: N4_17  and  C13_18 
REMARK    5  A    between atoms: C13_18  and  C14_19 
REMARK    6  A    between atoms: C14_19  and  N5_20 
ROOT
HETATM    1  N2  UNL     1      24.641   2.572  51.845  1.00  0.00    -0.207 N 
HETATM    2  C5  UNL     1      24.274   2.941  50.468  1.00  0.00     0.210 C 
HETATM    3  C6  UNL     1      22.844   2.572  50.338  1.00  0.00    -0.033 C 
HETATM    4  C7  UNL     1      22.359   1.393  50.022  1.00  0.00    -0.002 C 
HETATM    5  C8  UNL     1      21.092   0.739  50.410  1.00  0.00     0.088 C 
HETATM    6  C9  UNL     1      21.079   0.431  51.870  1.00  0.00    -0.010 C 
HETATM    7  C10 UNL     1      21.746   0.602  52.986  1.00  0.00     0.018 C 
HETATM    8  C11 UNL     1      23.001   1.342  53.054  1.00  0.00     0.140 C 
HETATM    9  N3  UNL     1      24.091   2.011  52.977  1.00  0.00    -0.169 NA
HETATM   10  C12 UNL     1      19.875   1.493  50.017  1.00  0.00     0.058 C 
HETATM   11  S1  UNL     1      20.227   3.030  50.419  1.00  0.00    -0.087 SA
HETATM   12  C19 UNL     1      21.771   3.522  50.570  1.00  0.00     0.060 C 
ENDROOT
BRANCH   1  13
HETATM   13  N1  UNL     1      25.991   2.860  52.178  1.00  0.00    -0.282 N 
HETATM   14  H3  UNL     1      26.237   3.870  52.115  1.00  0.00     0.189 HD
BRANCH  13  15
HETATM   15  C4  UNL     1      26.862   1.807  52.555  1.00  0.00     0.051 A 
HETATM   16  C3  UNL     1      28.031   2.023  53.223  1.00  0.00     0.033 A 
HETATM   17  C2  UNL     1      28.891   1.015  53.599  1.00  0.00     0.028 A 
HETATM   18  C1  UNL     1      28.541  -0.299  53.273  1.00  0.00     0.055 A 
HETATM   19 CL1  UNL     1      29.601  -1.626  53.727  1.00  0.00    -0.083 Cl
HETATM   20  C21 UNL     1      27.363  -0.563  52.594  1.00  0.00     0.058 A 
HETATM   21  C20 UNL     1      26.518   0.492  52.232  1.00  0.00     0.056 A 
HETATM   22 CL2  UNL     1      26.997  -2.233  52.224  1.00  0.00    -0.082 Cl
ENDBRANCH  13  15
ENDBRANCH   1  13
BRANCH  10  23
HETATM   23  N4  UNL     1      18.606   1.123  49.435  1.00  0.00    -0.385 N 
HETATM   24  H11 UNL     1      18.705   0.957  48.386  1.00  0.00     0.160 HD
BRANCH  23  25
HETATM   25  C13 UNL     1      17.290   0.929  49.913  1.00  0.00     0.150 C 
BRANCH  25  26
HETATM   26  C14 UNL     1      16.989  -0.262  50.750  1.00  0.00     0.292 C 
BRANCH  26  27
HETATM   27  N5  UNL     1      16.959  -0.106  52.179  1.00  0.00     0.094 N 
HETATM   28  C15 UNL     1      15.686  -0.698  52.637  1.00  0.00     0.298 C 
HETATM   29  C16 UNL     1      15.545  -2.124  52.219  1.00  0.00     0.198 C 
HETATM   30  O1  UNL     1      16.501  -2.879  52.872  1.00  0.00    -0.388 OA
HETATM   31  C17 UNL     1      17.470  -2.148  53.497  1.00  0.00     0.198 C 
HETATM   32  C18 UNL     1      18.037  -0.999  52.684  1.00  0.00     0.298 C 
ENDBRANCH  26  27
ENDBRANCH  25  26
ENDBRANCH  23  25
ENDBRANCH  10  23
TORSDOF 6
ENDMDL
MODEL 2
REMARK VINA RESULT:      -8.4      1.846      2.269
REMARK  6 active torsions:
REMARK  status: ('A' for Active; 'I' for Inactive)
REMARK    1  A    between atoms: C4_5  and  N1_6 
REMARK    2  A    between atoms: N1_6  and  N2_7 
REMARK    3  A    between atoms: C12_16  and  N4_17 
REMARK    4  A    between atoms: N4_17  and  C13_18 
REMARK    5  A    between atoms: C13_18  and  C14_19 
REMARK    6  A    between atoms: C14_19  and  N5_20 
ROOT
HETATM    1  N2  UNL     1      24.605   2.588  51.865  1.00  0.00    -0.207 N 
HETATM    2  C5  UNL     1      24.244   2.911  50.475  1.00  0.00     0.210 C 
HETATM    3  C6  UNL     1      22.816   2.534  50.351  1.00  0.00    -0.033 C 
HETATM    4  C7  UNL     1      22.335   1.344  50.072  1.00  0.00    -0.002 C 
HETATM    5  C8  UNL     1      21.068   0.701  50.475  1.00  0.00     0.088 C 
HETATM    6  C9  UNL     1      21.048   0.440  51.944  1.00  0.00    -0.010 C 
HETATM    7  C10 UNL     1      21.709   0.651  53.057  1.00  0.00     0.018 C 
HETATM    8  C11 UNL     1      22.963   1.395  53.106  1.00  0.00     0.140 C 
HETATM    9  N3  UNL     1      24.051   2.064  53.013  1.00  0.00    -0.169 NA
HETATM   10  C12 UNL     1      19.850   1.438  50.052  1.00  0.00     0.058 C 
HETATM   11  S1  UNL     1      20.198   2.988  50.404  1.00  0.00    -0.087 SA
HETATM   12  C19 UNL     1      21.739   3.489  50.546  1.00  0.00     0.060 C 
ENDROOT
BRANCH   1  13
HETATM   13  N1  UNL     1      25.953   2.890  52.195  1.00  0.00    -0.282 N 
HETATM   14  H3  UNL     1      26.185   3.904  52.141  1.00  0.00     0.189 HD
BRANCH  13  15
HETATM   15  C4  UNL     1      26.840   1.845  52.557  1.00  0.00     0.051 A 
HETATM   16  C3  UNL     1      28.037   2.074  53.169  1.00  0.00     0.033 A 
HETATM   17  C2  UNL     1      28.912   1.074  53.530  1.00  0.00     0.028 A 
HETATM   18  C1  UNL     1      28.547  -0.246  53.248  1.00  0.00     0.055 A 
HETATM   19 CL1  UNL     1      29.627  -1.564  53.685  1.00  0.00    -0.083 Cl
HETATM   20  C21 UNL     1      27.341  -0.524  52.627  1.00  0.00     0.058 A 
HETATM   21  C20 UNL     1      26.482   0.524  52.279  1.00  0.00     0.056 A 
HETATM   22 CL2  UNL     1      26.960  -2.202  52.310  1.00  0.00    -0.082 Cl
ENDBRANCH  13  15
ENDBRANCH   1  13
BRANCH  10  23
HETATM   23  N4  UNL     1      18.586   1.046  49.476  1.00  0.00    -0.385 N 
HETATM   24  H11 UNL     1      18.576   1.227  48.425  1.00  0.00     0.160 HD
BRANCH  23  25
HETATM   25  C13 UNL     1      17.381   0.488  49.961  1.00  0.00     0.150 C 
BRANCH  25  26
HETATM   26  C14 UNL     1      16.578   1.246  50.956  1.00  0.00     0.292 C 
BRANCH  26  27
HETATM   27  N5  UNL     1      16.102   2.555  50.599  1.00  0.00     0.094 N 
HETATM   28  C15 UNL     1      14.654   2.564  50.884  1.00  0.00     0.298 C 
HETATM   29  C16 UNL     1      14.356   2.221  52.306  1.00  0.00     0.198 C 
HETATM   30  O1  UNL     1      14.847   3.223  53.121  1.00  0.00    -0.388 OA
HETATM   31  C17 UNL     1      15.682   4.103  52.495  1.00  0.00     0.198 C 
HETATM   32  C18 UNL     1      16.725   3.473  51.591  1.00  0.00     0.298 C 
ENDBRANCH  26  27
ENDBRANCH  25  26
ENDBRANCH  23  25
ENDBRANCH  10  23
TORSDOF 6
ENDMDL
MODEL 3
REMARK VINA RESULT:      -8.4      6.193      9.646
REMARK  6 active torsions:
REMARK  status: ('A' for Active; 'I' for Inactive)
REMARK    1  A    between atoms: C4_5  and  N1_6 
REMARK    2  A    between atoms: N1_6  and  N2_7 
REMARK    3  A    between atoms: C12_16  and  N4_17 
REMARK    4  A    between atoms: N4_17  and  C13_18 
REMARK    5  A    between atoms: C13_18  and  C14_19 
REMARK    6  A    between atoms: C14_19  and  N5_20 
ROOT
HETATM    1  N2  UNL     1      24.995   3.185  51.268  1.00  0.00    -0.207 N 
HETATM    2  C5  UNL     1      24.037   4.280  51.491  1.00  0.00     0.210 C 
HETATM    3  C6  UNL     1      24.317   5.262  50.417  1.00  0.00    -0.033 C 
HETATM    4  C7  UNL     1      25.222   6.213  50.433  1.00  0.00    -0.002 C 
HETATM    5  C8  UNL     1      25.991   6.828  49.332  1.00  0.00     0.088 C 
HETATM    6  C9  UNL     1      26.936   5.843  48.730  1.00  0.00    -0.010 C 
HETATM    7  C10 UNL     1      27.292   4.581  48.750  1.00  0.00     0.018 C 
HETATM    8  C11 UNL     1      26.657   3.592  49.613  1.00  0.00     0.140 C 
HETATM    9  N3  UNL     1      26.018   2.826  50.417  1.00  0.00    -0.169 NA
HETATM   10  C12 UNL     1      25.151   7.463  48.285  1.00  0.00     0.058 C 
HETATM   11  S1  UNL     1      23.968   6.376  48.028  1.00  0.00    -0.087 SA
HETATM   12  C19 UNL     1      23.588   5.270  49.161  1.00  0.00     0.060 C 
ENDROOT
BRANCH   1  13
HETATM   13  N1  UNL     1      24.882   2.121  52.201  1.00  0.00    -0.282 N 
HETATM   14  H3  UNL     1      23.912   1.957  52.540  1.00  0.00     0.189 HD
BRANCH  13  15
HETATM   15  C4  UNL     1      26.038   1.395  52.583  1.00  0.00     0.051 A 
HETATM   16  C3  UNL     1      26.207   0.074  52.291  1.00  0.00     0.033 A 
HETATM   17  C2  UNL     1      27.322  -0.649  52.652  1.00  0.00     0.028 A 
HETATM   18  C1  UNL     1      28.331   0.013  53.358  1.00  0.00     0.055 A 
HETATM   19 CL1  UNL     1      29.777  -0.861  53.845  1.00  0.00    -0.083 Cl
HETATM   20  C21 UNL     1      28.199   1.355  53.677  1.00  0.00     0.058 A 
HETATM   21  C20 UNL     1      27.050   2.051  53.289  1.00  0.00     0.056 A 
HETATM   22 CL2  UNL     1      29.506   2.110  54.561  1.00  0.00    -0.082 Cl
ENDBRANCH  13  15
ENDBRANCH   1  13
BRANCH  10  23
HETATM   23  N4  UNL     1      25.222   8.707  47.555  1.00  0.00    -0.385 N 
HETATM   24  H11 UNL     1      24.668   8.643  46.645  1.00  0.00     0.160 HD
BRANCH  23  25
HETATM   25  C13 UNL     1      25.834   9.965  47.753  1.00  0.00     0.150 C 
BRANCH  25  26
HETATM   26  C14 UNL     1      27.318  10.053  47.792  1.00  0.00     0.292 C 
BRANCH  26  27
HETATM   27  N5  UNL     1      27.943  10.575  48.978  1.00  0.00     0.094 N 
HETATM   28  C15 UNL     1      28.506   9.416  49.697  1.00  0.00     0.298 C 
HETATM   29  C16 UNL     1      29.457   8.635  48.852  1.00  0.00     0.198 C 
HETATM   30  O1  UNL     1      30.566   9.416  48.588  1.00  0.00    -0.388 OA
HETATM   31  C17 UNL     1      30.420  10.734  48.909  1.00  0.00     0.198 C 
HETATM   32  C18 UNL     1      29.105  11.361  48.483  1.00  0.00     0.298 C 
ENDBRANCH  26  27
ENDBRANCH  25  26
ENDBRANCH  23  25
ENDBRANCH  10  23
TORSDOF 6
ENDMDL
MODEL 4
REMARK VINA RESULT:      -8.4      4.896      7.794
REMARK  6 active torsions:
REMARK  status: ('A' for Active; 'I' for Inactive)
REMARK    1  A    between atoms: C4_5  and  N1_6 
REMARK    2  A    between atoms: N1_6  and  N2_7 
REMARK    3  A    between atoms: C12_16  and  N4_17 
REMARK    4  A    between atoms: N4_17  and  C13_18 
REMARK    5  A    between atoms: C13_18  and  C14_19 
REMARK    6  A    between atoms: C14_19  and  N5_20 
ROOT
HETATM    1  N2  UNL     1      23.815   1.908  52.533  1.00  0.00    -0.207 N 
HETATM    2  C5  UNL     1      24.179   3.239  53.046  1.00  0.00     0.210 C 
HETATM    3  C6  UNL     1      23.680   4.194  52.028  1.00  0.00    -0.033 C 
HETATM    4  C7  UNL     1      24.299   4.578  50.936  1.00  0.00    -0.002 C 
HETATM    5  C8  UNL     1      23.764   4.997  49.624  1.00  0.00     0.088 C 
HETATM    6  C9  UNL     1      23.104   3.853  48.930  1.00  0.00    -0.010 C 
HETATM    7  C10 UNL     1      22.730   2.606  49.084  1.00  0.00     0.018 C 
HETATM    8  C11 UNL     1      22.946   1.860  50.318  1.00  0.00     0.140 C 
HETATM    9  N3  UNL     1      23.194   1.319  51.452  1.00  0.00    -0.169 NA
HETATM   10  C12 UNL     1      22.860   6.173  49.684  1.00  0.00     0.058 C 
HETATM   11  S1  UNL     1      21.903   5.858  50.961  1.00  0.00    -0.087 SA
HETATM   12  C19 UNL     1      22.379   4.831  52.131  1.00  0.00     0.060 C 
ENDROOT
BRANCH   1  13
HETATM   13  N1  UNL     1      24.201   0.837  53.382  1.00  0.00    -0.282 N 
HETATM   14  H3  UNL     1      23.431   0.472  53.980  1.00  0.00     0.189 HD
BRANCH  13  15
HETATM   15  C4  UNL     1      25.538   0.367  53.356  1.00  0.00     0.051 A 
HETATM   16  C3  UNL     1      25.876  -0.865  52.878  1.00  0.00     0.033 A 
HETATM   17  C2  UNL     1      27.167  -1.341  52.844  1.00  0.00     0.028 A 
HETATM   18  C1  UNL     1      28.183  -0.511  53.327  1.00  0.00     0.055 A 
HETATM   19 CL1  UNL     1      29.851  -1.067  53.308  1.00  0.00    -0.083 Cl
HETATM   20  C21 UNL     1      27.885   0.748  53.823  1.00  0.00     0.058 A 
HETATM   21  C20 UNL     1      26.558   1.191  53.838  1.00  0.00     0.056 A 
HETATM   22 CL2  UNL     1      29.212   1.724  54.409  1.00  0.00    -0.082 Cl
ENDBRANCH  13  15
ENDBRANCH   1  13
BRANCH  10  23
HETATM   23  N4  UNL     1      22.710   7.370  48.890  1.00  0.00    -0.385 N 
HETATM   24  H11 UNL     1      22.019   7.211  48.094  1.00  0.00     0.160 HD
BRANCH  23  25
HETATM   25  C13 UNL     1      23.248   8.677  48.915  1.00  0.00     0.150 C 
BRANCH  25  26
HETATM   26  C14 UNL     1      24.699   8.870  48.656  1.00  0.00     0.292 C 
BRANCH  26  27
HETATM   27  N5  UNL     1      25.569   9.116  49.775  1.00  0.00     0.094 N 
HETATM   28  C15 UNL     1      26.107   7.802  50.180  1.00  0.00     0.298 C 
HETATM   29  C16 UNL     1      26.808   7.109  49.060  1.00  0.00     0.198 C 
HETATM   30  O1  UNL     1      27.940   7.828  48.726  1.00  0.00    -0.388 OA
HETATM   31  C17 UNL     1      28.002   9.074  49.278  1.00  0.00     0.198 C 
HETATM   32  C18 UNL     1      26.715   9.877  49.209  1.00  0.00     0.298 C 
ENDBRANCH  26  27
ENDBRANCH  25  26
ENDBRANCH  23  25
ENDBRANCH  10  23
TORSDOF 6
ENDMDL
MODEL 5
REMARK VINA RESULT:      -8.0      4.493      6.155
REMARK  6 active torsions:
REMARK  status: ('A' for Active; 'I' for Inactive)
REMARK    1  A    between atoms: C4_5  and  N1_6 
REMARK    2  A    between atoms: N1_6  and  N2_7 
REMARK    3  A    between atoms: C12_16  and  N4_17 
REMARK    4  A    between atoms: N4_17  and  C13_18 
REMARK    5  A    between atoms: C13_18  and  C14_19 
REMARK    6  A    between atoms: C14_19  and  N5_20 
ROOT
HETATM    1  N2  UNL     1      23.698   1.728  52.215  1.00  0.00    -0.207 N 
HETATM    2  C5  UNL     1      24.414   2.908  51.705  1.00  0.00     0.210 C 
HETATM    3  C6  UNL     1      23.660   3.325  50.499  1.00  0.00    -0.033 C 
HETATM    4  C7  UNL     1      23.803   2.862  49.279  1.00  0.00    -0.002 C 
HETATM    5  C8  UNL     1      22.823   2.720  48.182  1.00  0.00     0.088 C 
HETATM    6  C9  UNL     1      21.789   1.700  48.523  1.00  0.00    -0.010 C 
HETATM    7  C10 UNL     1      21.357   0.924  49.487  1.00  0.00     0.018 C 
HETATM    8  C11 UNL     1      21.976   0.880  50.807  1.00  0.00     0.140 C 
HETATM    9  N3  UNL     1      22.608   0.936  51.920  1.00  0.00    -0.169 NA
HETATM   10  C12 UNL     1      22.190   3.997  47.765  1.00  0.00     0.058 C 
HETATM   11  S1  UNL     1      21.831   4.727  49.174  1.00  0.00    -0.087 SA
HETATM   12  C19 UNL     1      22.620   4.338  50.543  1.00  0.00     0.060 C 
ENDROOT
BRANCH   1  13
HETATM   13  N1  UNL     1      24.265   1.174  53.393  1.00  0.00    -0.282 N 
HETATM   14  H3  UNL     1      23.648   1.237  54.229  1.00  0.00     0.189 HD
BRANCH  13  15
HETATM   15  C4  UNL     1      25.561   0.603  53.348  1.00  0.00     0.051 A 
HETATM   16  C3  UNL     1      25.804  -0.634  52.827  1.00  0.00     0.033 A 
HETATM   17  C2  UNL     1      27.055  -1.206  52.773  1.00  0.00     0.028 A 
HETATM   18  C1  UNL     1      28.131  -0.474  53.284  1.00  0.00     0.055 A 
HETATM   19 CL1  UNL     1      29.752  -1.155  53.243  1.00  0.00    -0.083 Cl
HETATM   20  C21 UNL     1      27.930   0.786  53.824  1.00  0.00     0.058 A 
HETATM   21  C20 UNL     1      26.641   1.329  53.857  1.00  0.00     0.056 A 
HETATM   22 CL2  UNL     1      29.328   1.637  54.441  1.00  0.00    -0.082 Cl
ENDBRANCH  13  15
ENDBRANCH   1  13
BRANCH  10  23
HETATM   23  N4  UNL     1      21.875   4.594  46.489  1.00  0.00    -0.385 N 
HETATM   24  H11 UNL     1      21.799   5.655  46.576  1.00  0.00     0.160 HD
BRANCH  23  25
HETATM   25  C13 UNL     1      21.650   4.121  45.176  1.00  0.00     0.150 C 
BRANCH  25  26
HETATM   26  C14 UNL     1      21.052   5.035  44.167  1.00  0.00     0.292 C 
BRANCH  26  27
HETATM   27  N5  UNL     1      19.644   4.928  43.895  1.00  0.00     0.094 N 
HETATM   28  C15 UNL     1      19.491   5.063  42.433  1.00  0.00     0.298 C 
HETATM   29  C16 UNL     1      20.292   4.050  41.685  1.00  0.00     0.198 C 
HETATM   30  O1  UNL     1      19.779   2.794  41.943  1.00  0.00    -0.388 OA
HETATM   31  C17 UNL     1      18.888   2.748  42.976  1.00  0.00     0.198 C 
HETATM   32  C18 UNL     1      19.298   3.517  44.218  1.00  0.00     0.298 C 
ENDBRANCH  26  27
ENDBRANCH  25  26
ENDBRANCH  23  25
ENDBRANCH  10  23
TORSDOF 6
ENDMDL
MODEL 6
REMARK VINA RESULT:      -7.9      6.754     10.647
REMARK  6 active torsions:
REMARK  status: ('A' for Active; 'I' for Inactive)
REMARK    1  A    between atoms: C4_5  and  N1_6 
REMARK    2  A    between atoms: N1_6  and  N2_7 
REMARK    3  A    between atoms: C12_16  and  N4_17 
REMARK    4  A    between atoms: N4_17  and  C13_18 
REMARK    5  A    between atoms: C13_18  and  C14_19 
REMARK    6  A    between atoms: C14_19  and  N5_20 
ROOT
HETATM    1  N2  UNL     1      24.929   3.493  50.849  1.00  0.00    -0.207 N 
HETATM    2  C5  UNL     1      24.027   4.624  51.121  1.00  0.00     0.210 C 
HETATM    3  C6  UNL     1      24.439   5.683  50.169  1.00  0.00    -0.033 C 
HETATM    4  C7  UNL     1      25.398   6.565  50.336  1.00  0.00    -0.002 C 
HETATM    5  C8  UNL     1      26.276   7.228  49.352  1.00  0.00     0.088 C 
HETATM    6  C9  UNL     1      27.199   6.244  48.714  1.00  0.00    -0.010 C 
HETATM    7  C10 UNL     1      27.474   4.964  48.630  1.00  0.00     0.018 C 
HETATM    8  C11 UNL     1      26.722   3.943  49.350  1.00  0.00     0.140 C 
HETATM    9  N3  UNL     1      25.984   3.148  50.032  1.00  0.00    -0.169 NA
HETATM   10  C12 UNL     1      25.551   8.016  48.323  1.00  0.00     0.058 C 
HETATM   11  S1  UNL     1      24.324   7.041  47.887  1.00  0.00    -0.087 SA
HETATM   12  C19 UNL     1      23.800   5.861  48.878  1.00  0.00     0.060 C 
ENDROOT
BRANCH   1  13
HETATM   13  N1  UNL     1      24.688   2.355  51.663  1.00  0.00    -0.282 N 
HETATM   14  H3  UNL     1      25.520   2.036  52.201  1.00  0.00     0.189 HD
BRANCH  13  15
HETATM   15  C4  UNL     1      23.399   1.766  51.683  1.00  0.00     0.051 A 
HETATM   16  C3  UNL     1      22.675   1.538  50.550  1.00  0.00     0.033 A 
HETATM   17  C2  UNL     1      21.423   0.967  50.548  1.00  0.00     0.028 A 
HETATM   18  C1  UNL     1      20.868   0.603  51.779  1.00  0.00     0.055 A 
HETATM   19 CL1  UNL     1      19.271  -0.130  51.836  1.00  0.00    -0.083 Cl
HETATM   20  C21 UNL     1      21.568   0.817  52.955  1.00  0.00     0.058 A 
HETATM   21  C20 UNL     1      22.838   1.400  52.910  1.00  0.00     0.056 A 
HETATM   22 CL2  UNL     1      20.804   0.334  54.452  1.00  0.00    -0.082 Cl
ENDBRANCH  13  15
ENDBRANCH   1  13
BRANCH  10  23
HETATM   23  N4  UNL     1      25.747   9.316  47.727  1.00  0.00    -0.385 N 
HETATM   24  H11 UNL     1      25.579   9.278  46.674  1.00  0.00     0.160 HD
BRANCH  23  25
HETATM   25  C13 UNL     1      26.100  10.603  48.193  1.00  0.00     0.150 C 
BRANCH  25  26
HETATM   26  C14 UNL     1      27.520  10.890  48.529  1.00  0.00     0.292 C 
BRANCH  26  27
HETATM   27  N5  UNL     1      28.523   9.939  48.132  1.00  0.00     0.094 N 
HETATM   28  C15 UNL     1      29.554  10.701  47.400  1.00  0.00     0.298 C 
HETATM   29  C16 UNL     1      30.119  11.815  48.216  1.00  0.00     0.198 C 
HETATM   30  O1  UNL     1      30.817  11.280  49.282  1.00  0.00    -0.388 OA
HETATM   31  C17 UNL     1      30.607   9.947  49.484  1.00  0.00     0.198 C 
HETATM   32  C18 UNL     1      29.159   9.501  49.405  1.00  0.00     0.298 C 
ENDBRANCH  26  27
ENDBRANCH  25  26
ENDBRANCH  23  25
ENDBRANCH  10  23
TORSDOF 6
ENDMDL
MODEL 7
REMARK VINA RESULT:      -7.9      6.686      8.719
REMARK  6 active torsions:
REMARK  status: ('A' for Active; 'I' for Inactive)
REMARK    1  A    between atoms: C4_5  and  N1_6 
REMARK    2  A    between atoms: N1_6  and  N2_7 
REMARK    3  A    between atoms: C12_16  and  N4_17 
REMARK    4  A    between atoms: N4_17  and  C13_18 
REMARK    5  A    between atoms: C13_18  and  C14_19 
REMARK    6  A    between atoms: C14_19  and  N5_20 
ROOT
HETATM    1  N2  UNL     1      26.518   7.248  47.821  1.00  0.00    -0.207 N 
HETATM    2  C5  UNL     1      25.100   7.598  48.000  1.00  0.00     0.210 C 
HETATM    3  C6  UNL     1      24.563   6.571  48.923  1.00  0.00    -0.033 C 
HETATM    4  C7  UNL     1      24.104   5.383  48.602  1.00  0.00    -0.002 C 
HETATM    5  C8  UNL     1      24.105   4.115  49.359  1.00  0.00     0.088 C 
HETATM    6  C9  UNL     1      25.495   3.605  49.539  1.00  0.00    -0.010 C 
HETATM    7  C10 UNL     1      26.757   3.907  49.352  1.00  0.00     0.018 C 
HETATM    8  C11 UNL     1      27.191   5.166  48.755  1.00  0.00     0.140 C 
HETATM    9  N3  UNL     1      27.438   6.303  48.222  1.00  0.00    -0.169 NA
HETATM   10  C12 UNL     1      23.393   4.183  50.660  1.00  0.00     0.058 C 
HETATM   11  S1  UNL     1      23.902   5.588  51.303  1.00  0.00    -0.087 SA
HETATM   12  C19 UNL     1      24.494   6.775  50.359  1.00  0.00     0.060 C 
ENDROOT
BRANCH   1  13
HETATM   13  N1  UNL     1      27.226   8.132  46.964  1.00  0.00    -0.282 N 
HETATM   14  H3  UNL     1      27.093   7.936  45.950  1.00  0.00     0.189 HD
BRANCH  13  15
HETATM   15  C4  UNL     1      28.022   9.164  47.521  1.00  0.00     0.051 A 
HETATM   16  C3  UNL     1      29.329   8.983  47.864  1.00  0.00     0.033 A 
HETATM   17  C2  UNL     1      30.119   9.972  48.405  1.00  0.00     0.028 A 
HETATM   18  C1  UNL     1      29.543  11.229  48.613  1.00  0.00     0.055 A 
HETATM   19 CL1  UNL     1      30.504  12.529  49.302  1.00  0.00    -0.083 Cl
HETATM   20  C21 UNL     1      28.217  11.457  48.280  1.00  0.00     0.058 A 
HETATM   21  C20 UNL     1      27.452  10.422  47.731  1.00  0.00     0.056 A 
HETATM   22 CL2  UNL     1      27.572  13.056  48.570  1.00  0.00    -0.082 Cl
ENDBRANCH  13  15
ENDBRANCH   1  13
BRANCH  10  23
HETATM   23  N4  UNL     1      22.469   3.314  51.349  1.00  0.00    -0.385 N 
HETATM   24  H11 UNL     1      21.463   3.638  51.200  1.00  0.00     0.160 HD
BRANCH  23  25
HETATM   25  C13 UNL     1      22.573   2.159  52.156  1.00  0.00     0.150 C 
BRANCH  25  26
HETATM   26  C14 UNL     1      23.812   1.934  52.946  1.00  0.00     0.292 C 
BRANCH  26  27
HETATM   27  N5  UNL     1      24.673   0.843  52.575  1.00  0.00     0.094 N 
HETATM   28  C15 UNL     1      26.041   1.396  52.509  1.00  0.00     0.298 C 
HETATM   29  C16 UNL     1      26.455   2.034  53.792  1.00  0.00     0.198 C 
HETATM   30  O1  UNL     1      26.553   1.059  54.766  1.00  0.00    -0.388 OA
HETATM   31  C17 UNL     1      26.013  -0.145  54.418  1.00  0.00     0.198 C 
HETATM   32  C18 UNL     1      24.654  -0.075  53.747  1.00  0.00     0.298 C 
ENDBRANCH  26  27
ENDBRANCH  25  26
ENDBRANCH  23  25
ENDBRANCH  10  23
TORSDOF 6
ENDMDL
MODEL 8
REMARK VINA RESULT:      -7.9      1.373      2.001
REMARK  6 active torsions:
REMARK  status: ('A' for Active; 'I' for Inactive)
REMARK    1  A    between atoms: C4_5  and  N1_6 
REMARK    2  A    between atoms: N1_6  and  N2_7 
REMARK    3  A    between atoms: C12_16  and  N4_17 
REMARK    4  A    between atoms: N4_17  and  C13_18 
REMARK    5  A    between atoms: C13_18  and  C14_19 
REMARK    6  A    between atoms: C14_19  and  N5_20 
ROOT
HETATM    1  N2  UNL     1      24.128   2.605  51.638  1.00  0.00    -0.207 N 
HETATM    2  C5  UNL     1      23.736   2.788  50.232  1.00  0.00     0.210 C 
HETATM    3  C6  UNL     1      22.315   2.369  50.170  1.00  0.00    -0.033 C 
HETATM    4  C7  UNL     1      21.858   1.149  50.012  1.00  0.00    -0.002 C 
HETATM    5  C8  UNL     1      20.614   0.517  50.497  1.00  0.00     0.088 C 
HETATM    6  C9  UNL     1      20.625   0.396  51.985  1.00  0.00    -0.010 C 
HETATM    7  C10 UNL     1      21.299   0.724  53.060  1.00  0.00     0.018 C 
HETATM    8  C11 UNL     1      22.535   1.497  53.016  1.00  0.00     0.140 C 
HETATM    9  N3  UNL     1      23.605   2.179  52.841  1.00  0.00    -0.169 NA
HETATM   10  C12 UNL     1      19.372   1.184  50.030  1.00  0.00     0.058 C 
HETATM   11  S1  UNL     1      19.688   2.768  50.229  1.00  0.00    -0.087 SA
HETATM   12  C19 UNL     1      21.219   3.314  50.295  1.00  0.00     0.060 C 
ENDROOT
BRANCH   1  13
HETATM   13  N1  UNL     1      25.473   2.967  51.914  1.00  0.00    -0.282 N 
HETATM   14  H3  UNL     1      25.678   3.977  51.767  1.00  0.00     0.189 HD
BRANCH  13  15
HETATM   15  C4  UNL     1      26.392   1.979  52.347  1.00  0.00     0.051 A 
HETATM   16  C3  UNL     1      26.311   0.675  51.955  1.00  0.00     0.033 A 
HETATM   17  C2  UNL     1      27.193  -0.300  52.364  1.00  0.00     0.028 A 
HETATM   18  C1  UNL     1      28.226   0.074  53.228  1.00  0.00     0.055 A 
HETATM   19 CL1  UNL     1      29.382  -1.129  53.782  1.00  0.00    -0.083 Cl
HETATM   20  C21 UNL     1      28.346   1.388  53.651  1.00  0.00     0.058 A 
HETATM   21  C20 UNL     1      27.427   2.346  53.211  1.00  0.00     0.056 A 
HETATM   22 CL2  UNL     1      29.667   1.774  54.732  1.00  0.00    -0.082 Cl
ENDBRANCH  13  15
ENDBRANCH   1  13
BRANCH  10  23
HETATM   23  N4  UNL     1      18.108   0.712  49.518  1.00  0.00    -0.385 N 
HETATM   24  H11 UNL     1      18.133   0.644  48.453  1.00  0.00     0.160 HD
BRANCH  23  25
HETATM   25  C13 UNL     1      16.869   0.323  50.076  1.00  0.00     0.150 C 
BRANCH  25  26
HETATM   26  C14 UNL     1      16.552   0.705  51.478  1.00  0.00     0.292 C 
BRANCH  26  27
HETATM   27  N5  UNL     1      16.000  -0.294  52.353  1.00  0.00     0.094 N 
HETATM   28  C15 UNL     1      14.835   0.328  53.013  1.00  0.00     0.298 C 
HETATM   29  C16 UNL     1      13.834   0.836  52.030  1.00  0.00     0.198 C 
HETATM   30  O1  UNL     1      13.283  -0.237  51.356  1.00  0.00    -0.388 OA
HETATM   31  C17 UNL     1      13.941  -1.418  51.539  1.00  0.00     0.198 C 
HETATM   32  C18 UNL     1      15.453  -1.338  51.444  1.00  0.00     0.298 C 
ENDBRANCH  26  27
ENDBRANCH  25  26
ENDBRANCH  23  25
ENDBRANCH  10  23
TORSDOF 6
ENDMDL
MODEL 9
REMARK VINA RESULT:      -7.9      5.409     10.160
REMARK  6 active torsions:
REMARK  status: ('A' for Active; 'I' for Inactive)
REMARK    1  A    between atoms: C4_5  and  N1_6 
REMARK    2  A    between atoms: N1_6  and  N2_7 
REMARK    3  A    between atoms: C12_16  and  N4_17 
REMARK    4  A    between atoms: N4_17  and  C13_18 
REMARK    5  A    between atoms: C13_18  and  C14_19 
REMARK    6  A    between atoms: C14_19  and  N5_20 
ROOT
HETATM    1  N2  UNL     1      17.394   1.648  51.124  1.00  0.00    -0.207 N 
HETATM    2  C5  UNL     1      18.425   2.677  50.914  1.00  0.00     0.210 C 
HETATM    3  C6  UNL     1      19.683   2.068  51.406  1.00  0.00    -0.033 C 
HETATM    4  C7  UNL     1      20.122   2.054  52.644  1.00  0.00    -0.002 C 
HETATM    5  C8  UNL     1      20.955   1.064  53.358  1.00  0.00     0.088 C 
HETATM    6  C9  UNL     1      20.220  -0.223  53.530  1.00  0.00    -0.010 C 
HETATM    7  C10 UNL     1      19.119  -0.855  53.203  1.00  0.00     0.018 C 
HETATM    8  C11 UNL     1      18.084  -0.263  52.363  1.00  0.00     0.140 C 
HETATM    9  N3  UNL     1      17.254   0.369  51.619  1.00  0.00    -0.169 NA
HETATM   10  C12 UNL     1      22.287   0.835  52.743  1.00  0.00     0.058 C 
HETATM   11  S1  UNL     1      21.963   0.724  51.153  1.00  0.00    -0.087 SA
HETATM   12  C19 UNL     1      20.609   1.377  50.527  1.00  0.00     0.060 C 
ENDROOT
BRANCH   1  13
HETATM   13  N1  UNL     1      16.096   2.037  50.700  1.00  0.00    -0.282 N 
HETATM   14  H3  UNL     1      15.912   1.867  49.689  1.00  0.00     0.189 HD
BRANCH  13  15
HETATM   15  C4  UNL     1      15.190   2.598  51.634  1.00  0.00     0.051 A 
HETATM   16  C3  UNL     1      15.510   3.665  52.420  1.00  0.00     0.033 A 
HETATM   17  C2  UNL     1      14.644   4.226  53.333  1.00  0.00     0.028 A 
HETATM   18  C1  UNL     1      13.370   3.664  53.456  1.00  0.00     0.055 A 
HETATM   19 CL1  UNL     1      12.224   4.339  54.607  1.00  0.00    -0.083 Cl
HETATM   20  C21 UNL     1      13.003   2.578  52.678  1.00  0.00     0.058 A 
HETATM   21  C20 UNL     1      13.915   2.041  51.763  1.00  0.00     0.056 A 
HETATM   22 CL2  UNL     1      11.391   1.935  52.892  1.00  0.00    -0.082 Cl
ENDBRANCH  13  15
ENDBRANCH   1  13
BRANCH  10  23
HETATM   23  N4  UNL     1      23.626   0.698  53.265  1.00  0.00    -0.385 N 
HETATM   24  H11 UNL     1      23.660   0.971  54.296  1.00  0.00     0.160 HD
BRANCH  23  25
HETATM   25  C13 UNL     1      24.879   0.295  52.749  1.00  0.00     0.150 C 
BRANCH  25  26
HETATM   26  C14 UNL     1      25.933  -0.174  53.686  1.00  0.00     0.292 C 
BRANCH  26  27
HETATM   27  N5  UNL     1      26.538   0.784  54.573  1.00  0.00     0.094 N 
HETATM   28  C15 UNL     1      27.891   0.276  54.875  1.00  0.00     0.298 C 
HETATM   29  C16 UNL     1      28.700   0.056  53.641  1.00  0.00     0.198 C 
HETATM   30  O1  UNL     1      28.945   1.278  53.042  1.00  0.00    -0.388 OA
HETATM   31  C17 UNL     1      28.202   2.310  53.537  1.00  0.00     0.198 C 
HETATM   32  C18 UNL     1      26.729   2.005  53.744  1.00  0.00     0.298 C 
ENDBRANCH  26  27
ENDBRANCH  25  26
ENDBRANCH  23  25
ENDBRANCH  10  23
TORSDOF 6
ENDMDL
