MODEL 1
REMARK VINA RESULT:      -8.4      0.000      0.000
REMARK  6 active torsions:
REMARK  status: ('A' for Active; 'I' for Inactive)
REMARK    1  A    between atoms: C2_2  and  C3_3 
REMARK       I    between atoms: C3_3  and  N1_5 
REMARK    2  A    between atoms: N1_5  and  C4_6 
REMARK    3  A    between atoms: C11_15  and  N4_16 
REMARK    4  A    between atoms: N4_16  and  C12_17 
REMARK    5  A    between atoms: C12_17  and  C13_18 
REMARK    6  A    between atoms: C14_19  and  C15_21 
ROOT
HETATM    1  C4  UNL     1      26.310   0.014  53.111  1.00  0.00     0.035 A 
HETATM    2  C5  UNL     1      25.278  -0.667  53.726  1.00  0.00     0.030 A 
HETATM    3  C6  UNL     1      23.982  -0.179  53.629  1.00  0.00     0.016 A 
HETATM    4  C7  UNL     1      23.737   0.993  52.913  1.00  0.00     0.000 A 
HETATM    5  C8  UNL     1      22.448   1.478  52.816  1.00  0.00     0.073 A 
HETATM    6  C9  UNL     1      21.354   0.787  53.447  1.00  0.00     0.102 C 
HETATM    7  N2  UNL     1      20.466   0.221  53.945  1.00  0.00    -0.191 NA
HETATM    8  C10 UNL     1      22.280   2.641  52.093  1.00  0.00     0.142 A 
HETATM    9  N3  UNL     1      23.307   3.260  51.520  1.00  0.00    -0.241 NA
HETATM   10  C11 UNL     1      24.575   2.840  51.577  1.00  0.00     0.134 A 
HETATM   11  C17 UNL     1      24.762   1.680  52.296  1.00  0.00     0.024 A 
HETATM   12  C18 UNL     1      26.036   1.169  52.411  1.00  0.00     0.045 A 
ENDROOT
BRANCH  10  13
HETATM   13  N4  UNL     1      25.606   3.569  50.932  1.00  0.00    -0.371 N 
HETATM   14  H10 UNL     1      26.374   4.109  51.377  1.00  0.00     0.161 HD
BRANCH  13  15
HETATM   15  C12 UNL     1      25.642   3.597  49.479  1.00  0.00     0.149 C 
BRANCH  15  16
HETATM   16  C13 UNL     1      26.938   4.242  49.096  1.00  0.00     0.007 C 
HETATM   17  C14 UNL     1      27.453   5.394  48.633  1.00  0.00    -0.014 C 
HETATM   18 BR1  UNL     1      29.307   5.723  48.292  1.00  0.00    -0.056 Br
BRANCH  17  19
HETATM   19  C15 UNL     1      26.665   6.609  48.307  1.00  0.00     0.041 C 
HETATM   20  C16 UNL     1      26.314   7.314  49.589  1.00  0.00     0.010 C 
ENDBRANCH  17  19
ENDBRANCH  15  16
ENDBRANCH  13  15
ENDBRANCH  10  13
BRANCH   1  21
HETATM   21  N1  UNL     1      27.630  -0.485  53.212  1.00  0.00    -0.327 N 
HETATM   22  C3  UNL     1      28.675  -0.059  54.076  1.00  0.00     0.221 C 
HETATM   23  O1  UNL     1      28.439   0.887  54.877  1.00  0.00    -0.273 OA
HETATM   24  H6  UNL     1      27.561  -1.222  52.477  1.00  0.00     0.169 HD
BRANCH  22  25
HETATM   25  C2  UNL     1      29.893  -0.903  53.802  1.00  0.00     0.098 C 
HETATM   26  C1  UNL     1      29.467  -2.233  53.256  1.00  0.00     0.014 C 
ENDBRANCH  22  25
ENDBRANCH   1  21
TORSDOF 6
ENDMDL
MODEL 2
REMARK VINA RESULT:      -8.1      1.576      2.139
REMARK  6 active torsions:
REMARK  status: ('A' for Active; 'I' for Inactive)
REMARK    1  A    between atoms: C2_2  and  C3_3 
REMARK       I    between atoms: C3_3  and  N1_5 
REMARK    2  A    between atoms: N1_5  and  C4_6 
REMARK    3  A    between atoms: C11_15  and  N4_16 
REMARK    4  A    between atoms: N4_16  and  C12_17 
REMARK    5  A    between atoms: C12_17  and  C13_18 
REMARK    6  A    between atoms: C14_19  and  C15_21 
ROOT
HETATM    1  C4  UNL     1      25.325   1.166  53.127  1.00  0.00     0.035 A 
HETATM    2  C5  UNL     1      24.417   0.125  53.152  1.00  0.00     0.030 A 
HETATM    3  C6  UNL     1      23.072   0.383  52.930  1.00  0.00     0.016 A 
HETATM    4  C7  UNL     1      22.651   1.691  52.686  1.00  0.00     0.000 A 
HETATM    5  C8  UNL     1      21.313   1.949  52.465  1.00  0.00     0.073 A 
HETATM    6  C9  UNL     1      20.347   0.882  52.485  1.00  0.00     0.102 C 
HETATM    7  N2  UNL     1      19.566   0.017  52.485  1.00  0.00    -0.191 NA
HETATM    8  C10 UNL     1      20.969   3.265  52.230  1.00  0.00     0.142 A 
HETATM    9  N3  UNL     1      21.881   4.231  52.217  1.00  0.00    -0.241 NA
HETATM   10  C11 UNL     1      23.189   4.045  52.423  1.00  0.00     0.134 A 
HETATM   11  C17 UNL     1      23.550   2.737  52.660  1.00  0.00     0.024 A 
HETATM   12  C18 UNL     1      24.879   2.446  52.883  1.00  0.00     0.045 A 
ENDROOT
BRANCH  10  13
HETATM   13  N4  UNL     1      24.088   5.141  52.390  1.00  0.00    -0.371 N 
HETATM   14  H10 UNL     1      24.932   5.286  52.976  1.00  0.00     0.161 HD
BRANCH  13  15
HETATM   15  C12 UNL     1      23.848   6.217  51.441  1.00  0.00     0.149 C 
BRANCH  15  16
HETATM   16  C13 UNL     1      25.005   6.216  50.492  1.00  0.00     0.007 C 
HETATM   17  C14 UNL     1      25.667   5.428  49.627  1.00  0.00    -0.014 C 
HETATM   18 BR1  UNL     1      27.190   5.950  48.593  1.00  0.00    -0.056 Br
BRANCH  17  19
HETATM   19  C15 UNL     1      25.325   4.015  49.330  1.00  0.00     0.041 C 
HETATM   20  C16 UNL     1      26.515   3.153  49.652  1.00  0.00     0.010 C 
ENDBRANCH  17  19
ENDBRANCH  15  16
ENDBRANCH  13  15
ENDBRANCH  10  13
BRANCH   1  21
HETATM   21  N1  UNL     1      26.696   0.899  53.353  1.00  0.00    -0.327 N 
HETATM   22  C3  UNL     1      27.296   0.212  54.444  1.00  0.00     0.221 C 
HETATM   23  O1  UNL     1      26.545  -0.236  55.353  1.00  0.00    -0.273 OA
HETATM   24  H6  UNL     1      27.075   1.355  52.495  1.00  0.00     0.169 HD
BRANCH  22  25
HETATM   25  C2  UNL     1      28.787   0.188  54.228  1.00  0.00     0.098 C 
HETATM   26  C1  UNL     1      29.164  -1.054  53.476  1.00  0.00     0.014 C 
ENDBRANCH  22  25
ENDBRANCH   1  21
TORSDOF 6
ENDMDL
MODEL 3
REMARK VINA RESULT:      -7.9      2.178      5.087
REMARK  6 active torsions:
REMARK  status: ('A' for Active; 'I' for Inactive)
REMARK    1  A    between atoms: C2_2  and  C3_3 
REMARK       I    between atoms: C3_3  and  N1_5 
REMARK    2  A    between atoms: N1_5  and  C4_6 
REMARK    3  A    between atoms: C11_15  and  N4_16 
REMARK    4  A    between atoms: N4_16  and  C12_17 
REMARK    5  A    between atoms: C12_17  and  C13_18 
REMARK    6  A    between atoms: C14_19  and  C15_21 
ROOT
HETATM    1  C4  UNL     1      22.850  -0.088  52.957  1.00  0.00     0.035 A 
HETATM    2  C5  UNL     1      23.707  -0.841  53.737  1.00  0.00     0.030 A 
HETATM    3  C6  UNL     1      25.049  -0.499  53.806  1.00  0.00     0.016 A 
HETATM    4  C7  UNL     1      25.520   0.601  53.088  1.00  0.00     0.000 A 
HETATM    5  C8  UNL     1      26.856   0.942  53.157  1.00  0.00     0.073 A 
HETATM    6  C9  UNL     1      27.769   0.174  53.962  1.00  0.00     0.102 C 
HETATM    7  N2  UNL     1      28.507  -0.438  54.625  1.00  0.00    -0.191 NA
HETATM    8  C10 UNL     1      27.250   2.042  52.421  1.00  0.00     0.142 A 
HETATM    9  N3  UNL     1      26.387   2.734  51.686  1.00  0.00    -0.241 NA
HETATM   10  C11 UNL     1      25.084   2.454  51.579  1.00  0.00     0.134 A 
HETATM   11  C17 UNL     1      24.672   1.359  52.307  1.00  0.00     0.024 A 
HETATM   12  C18 UNL     1      23.345   0.993  52.260  1.00  0.00     0.045 A 
ENDROOT
BRANCH  10  13
HETATM   13  N4  UNL     1      24.239   3.253  50.768  1.00  0.00    -0.371 N 
HETATM   14  H10 UNL     1      23.400   3.790  51.063  1.00  0.00     0.161 HD
BRANCH  13  15
HETATM   15  C12 UNL     1      24.534   3.370  49.349  1.00  0.00     0.149 C 
BRANCH  15  16
HETATM   16  C13 UNL     1      25.119   4.733  49.146  1.00  0.00     0.007 C 
HETATM   17  C14 UNL     1      26.287   5.366  48.936  1.00  0.00    -0.014 C 
HETATM   18 BR1  UNL     1      26.503   7.256  48.731  1.00  0.00    -0.056 Br
BRANCH  17  19
HETATM   19  C15 UNL     1      27.608   4.699  48.827  1.00  0.00     0.041 C 
HETATM   20  C16 UNL     1      28.577   5.652  48.183  1.00  0.00     0.010 C 
ENDBRANCH  17  19
ENDBRANCH  15  16
ENDBRANCH  13  15
ENDBRANCH  10  13
BRANCH   1  21
HETATM   21  N1  UNL     1      21.482  -0.439  52.889  1.00  0.00    -0.327 N 
HETATM   22  C3  UNL     1      20.452  -0.180  53.835  1.00  0.00     0.221 C 
HETATM   23  O1  UNL     1      20.754   0.444  54.890  1.00  0.00    -0.273 OA
HETATM   24  H6  UNL     1      21.503  -0.920  51.964  1.00  0.00     0.169 HD
BRANCH  22  25
HETATM   25  C2  UNL     1      19.164  -0.756  53.306  1.00  0.00     0.098 C 
HETATM   26  C1  UNL     1      18.861  -0.154  51.966  1.00  0.00     0.014 C 
ENDBRANCH  22  25
ENDBRANCH   1  21
TORSDOF 6
ENDMDL
MODEL 4
REMARK VINA RESULT:      -7.9      1.345      1.541
REMARK  6 active torsions:
REMARK  status: ('A' for Active; 'I' for Inactive)
REMARK    1  A    between atoms: C2_2  and  C3_3 
REMARK       I    between atoms: C3_3  and  N1_5 
REMARK    2  A    between atoms: N1_5  and  C4_6 
REMARK    3  A    between atoms: C11_15  and  N4_16 
REMARK    4  A    between atoms: N4_16  and  C12_17 
REMARK    5  A    between atoms: C12_17  and  C13_18 
REMARK    6  A    between atoms: C14_19  and  C15_21 
ROOT
HETATM    1  C4  UNL     1      26.324   0.011  53.025  1.00  0.00     0.035 A 
HETATM    2  C5  UNL     1      25.321  -0.628  53.728  1.00  0.00     0.030 A 
HETATM    3  C6  UNL     1      24.015  -0.172  53.625  1.00  0.00     0.016 A 
HETATM    4  C7  UNL     1      23.728   0.926  52.813  1.00  0.00     0.000 A 
HETATM    5  C8  UNL     1      22.429   1.380  52.709  1.00  0.00     0.073 A 
HETATM    6  C9  UNL     1      21.365   0.731  53.431  1.00  0.00     0.102 C 
HETATM    7  N2  UNL     1      20.501   0.198  54.002  1.00  0.00    -0.191 NA
HETATM    8  C10 UNL     1      22.220   2.470  51.889  1.00  0.00     0.142 A 
HETATM    9  N3  UNL     1      23.219   3.050  51.234  1.00  0.00    -0.241 NA
HETATM   10  C11 UNL     1      24.496   2.658  51.293  1.00  0.00     0.134 A 
HETATM   11  C17 UNL     1      24.723   1.571  52.108  1.00  0.00     0.024 A 
HETATM   12  C18 UNL     1      26.010   1.093  52.232  1.00  0.00     0.045 A 
ENDROOT
BRANCH  10  13
HETATM   13  N4  UNL     1      25.496   3.342  50.556  1.00  0.00    -0.371 N 
HETATM   14  H10 UNL     1      26.510   3.402  50.769  1.00  0.00     0.161 HD
BRANCH  13  15
HETATM   15  C12 UNL     1      25.112   4.060  49.351  1.00  0.00     0.149 C 
BRANCH  15  16
HETATM   16  C13 UNL     1      25.603   5.464  49.515  1.00  0.00     0.007 C 
HETATM   17  C14 UNL     1      25.366   6.598  50.197  1.00  0.00    -0.014 C 
HETATM   18 BR1  UNL     1      26.357   8.226  50.023  1.00  0.00    -0.056 Br
BRANCH  17  19
HETATM   19  C15 UNL     1      24.291   6.776  51.205  1.00  0.00     0.041 C 
HETATM   20  C16 UNL     1      22.985   6.977  50.487  1.00  0.00     0.010 C 
ENDBRANCH  17  19
ENDBRANCH  15  16
ENDBRANCH  13  15
ENDBRANCH  10  13
BRANCH   1  21
HETATM   21  N1  UNL     1      27.655  -0.456  53.133  1.00  0.00    -0.327 N 
HETATM   22  C3  UNL     1      28.648  -0.090  54.083  1.00  0.00     0.221 C 
HETATM   23  O1  UNL     1      28.345   0.760  54.965  1.00  0.00    -0.273 OA
HETATM   24  H6  UNL     1      27.642  -1.114  52.324  1.00  0.00     0.169 HD
BRANCH  22  25
HETATM   25  C2  UNL     1      29.905  -0.863  53.779  1.00  0.00     0.098 C 
HETATM   26  C1  UNL     1      29.542  -2.231  53.282  1.00  0.00     0.014 C 
ENDBRANCH  22  25
ENDBRANCH   1  21
TORSDOF 6
ENDMDL
MODEL 5
REMARK VINA RESULT:      -7.8      1.920      2.491
REMARK  6 active torsions:
REMARK  status: ('A' for Active; 'I' for Inactive)
REMARK    1  A    between atoms: C2_2  and  C3_3 
REMARK       I    between atoms: C3_3  and  N1_5 
REMARK    2  A    between atoms: N1_5  and  C4_6 
REMARK    3  A    between atoms: C11_15  and  N4_16 
REMARK    4  A    between atoms: N4_16  and  C12_17 
REMARK    5  A    between atoms: C12_17  and  C13_18 
REMARK    6  A    between atoms: C14_19  and  C15_21 
ROOT
HETATM    1  C4  UNL     1      26.070   0.032  53.097  1.00  0.00     0.035 A 
HETATM    2  C5  UNL     1      25.097  -0.858  53.510  1.00  0.00     0.030 A 
HETATM    3  C6  UNL     1      23.761  -0.491  53.442  1.00  0.00     0.016 A 
HETATM    4  C7  UNL     1      23.414   0.771  52.959  1.00  0.00     0.000 A 
HETATM    5  C8  UNL     1      22.085   1.135  52.890  1.00  0.00     0.073 A 
HETATM    6  C9  UNL     1      21.051   0.227  53.313  1.00  0.00     0.102 C 
HETATM    7  N2  UNL     1      20.213  -0.513  53.641  1.00  0.00    -0.191 NA
HETATM    8  C10 UNL     1      21.816   2.398  52.402  1.00  0.00     0.142 A 
HETATM    9  N3  UNL     1      22.788   3.218  52.018  1.00  0.00    -0.241 NA
HETATM   10  C11 UNL     1      24.092   2.923  52.059  1.00  0.00     0.134 A 
HETATM   11  C17 UNL     1      24.379   1.666  52.545  1.00  0.00     0.024 A 
HETATM   12  C18 UNL     1      25.696   1.271  52.625  1.00  0.00     0.045 A 
ENDROOT
BRANCH  10  13
HETATM   13  N4  UNL     1      25.059   3.865  51.627  1.00  0.00    -0.371 N 
HETATM   14  H10 UNL     1      25.459   4.656  52.168  1.00  0.00     0.161 HD
BRANCH  13  15
HETATM   15  C12 UNL     1      25.588   3.758  50.276  1.00  0.00     0.149 C 
BRANCH  15  16
HETATM   16  C13 UNL     1      24.582   4.399  49.371  1.00  0.00     0.007 C 
HETATM   17  C14 UNL     1      23.513   4.118  48.607  1.00  0.00    -0.014 C 
HETATM   18 BR1  UNL     1      22.517   5.390  47.580  1.00  0.00    -0.056 Br
BRANCH  17  19
HETATM   19  C15 UNL     1      22.923   2.767  48.431  1.00  0.00     0.041 C 
HETATM   20  C16 UNL     1      21.738   2.874  47.511  1.00  0.00     0.010 C 
ENDBRANCH  17  19
ENDBRANCH  15  16
ENDBRANCH  13  15
ENDBRANCH  10  13
BRANCH   1  21
HETATM   21  N1  UNL     1      27.432  -0.344  53.168  1.00  0.00    -0.327 N 
HETATM   22  C3  UNL     1      28.411   0.047  54.122  1.00  0.00     0.221 C 
HETATM   23  O1  UNL     1      28.063   0.833  55.046  1.00  0.00    -0.273 OA
HETATM   24  H6  UNL     1      27.453  -0.965  52.329  1.00  0.00     0.169 HD
BRANCH  22  25
HETATM   25  C2  UNL     1      29.714  -0.621  53.768  1.00  0.00     0.098 C 
HETATM   26  C1  UNL     1      29.444  -2.010  53.270  1.00  0.00     0.014 C 
ENDBRANCH  22  25
ENDBRANCH   1  21
TORSDOF 6
ENDMDL
MODEL 6
REMARK VINA RESULT:      -7.7      4.064      7.417
REMARK  6 active torsions:
REMARK  status: ('A' for Active; 'I' for Inactive)
REMARK    1  A    between atoms: C2_2  and  C3_3 
REMARK       I    between atoms: C3_3  and  N1_5 
REMARK    2  A    between atoms: N1_5  and  C4_6 
REMARK    3  A    between atoms: C11_15  and  N4_16 
REMARK    4  A    between atoms: N4_16  and  C12_17 
REMARK    5  A    between atoms: C12_17  and  C13_18 
REMARK    6  A    between atoms: C14_19  and  C15_21 
ROOT
HETATM    1  C4  UNL     1      24.467   2.092  51.154  1.00  0.00     0.035 A 
HETATM    2  C5  UNL     1      25.699   2.700  51.301  1.00  0.00     0.030 A 
HETATM    3  C6  UNL     1      26.551   2.285  52.315  1.00  0.00     0.016 A 
HETATM    4  C7  UNL     1      26.154   1.260  53.174  1.00  0.00     0.000 A 
HETATM    5  C8  UNL     1      27.002   0.846  54.182  1.00  0.00     0.073 A 
HETATM    6  C9  UNL     1      28.291   1.463  54.357  1.00  0.00     0.102 C 
HETATM    7  N2  UNL     1      29.341   1.951  54.490  1.00  0.00    -0.191 NA
HETATM    8  C10 UNL     1      26.544  -0.173  54.993  1.00  0.00     0.142 A 
HETATM    9  N3  UNL     1      25.350  -0.725  54.811  1.00  0.00    -0.241 NA
HETATM   10  C11 UNL     1      24.486  -0.369  53.854  1.00  0.00     0.134 A 
HETATM   11  C17 UNL     1      24.926   0.647  53.035  1.00  0.00     0.024 A 
HETATM   12  C18 UNL     1      24.104   1.082  52.018  1.00  0.00     0.045 A 
ENDROOT
BRANCH  10  13
HETATM   13  N4  UNL     1      23.231  -1.018  53.737  1.00  0.00    -0.371 N 
HETATM   14  H10 UNL     1      22.866  -1.551  52.924  1.00  0.00     0.161 HD
BRANCH  13  15
HETATM   15  C12 UNL     1      22.306  -0.966  54.859  1.00  0.00     0.149 C 
BRANCH  15  16
HETATM   16  C13 UNL     1      20.928  -1.057  54.281  1.00  0.00     0.007 C 
HETATM   17  C14 UNL     1      20.095  -0.444  53.423  1.00  0.00    -0.014 C 
HETATM   18 BR1  UNL     1      18.312  -1.007  53.013  1.00  0.00    -0.056 Br
BRANCH  17  19
HETATM   19  C15 UNL     1      20.421   0.778  52.646  1.00  0.00     0.041 C 
HETATM   20  C16 UNL     1      20.642   0.392  51.209  1.00  0.00     0.010 C 
ENDBRANCH  17  19
ENDBRANCH  15  16
ENDBRANCH  13  15
ENDBRANCH  10  13
BRANCH   1  21
HETATM   21  N1  UNL     1      23.601   2.517  50.120  1.00  0.00    -0.327 N 
HETATM   22  C3  UNL     1      22.511   3.427  50.196  1.00  0.00     0.221 C 
HETATM   23  O1  UNL     1      22.245   3.949  51.314  1.00  0.00    -0.273 OA
HETATM   24  H6  UNL     1      24.021   1.962  49.343  1.00  0.00     0.169 HD
BRANCH  22  25
HETATM   25  C2  UNL     1      21.899   3.552  48.824  1.00  0.00     0.098 C 
HETATM   26  C1  UNL     1      22.265   2.351  48.003  1.00  0.00     0.014 C 
ENDBRANCH  22  25
ENDBRANCH   1  21
TORSDOF 6
ENDMDL
MODEL 7
REMARK VINA RESULT:      -7.6      2.892      5.681
REMARK  6 active torsions:
REMARK  status: ('A' for Active; 'I' for Inactive)
REMARK    1  A    between atoms: C2_2  and  C3_3 
REMARK       I    between atoms: C3_3  and  N1_5 
REMARK    2  A    between atoms: N1_5  and  C4_6 
REMARK    3  A    between atoms: C11_15  and  N4_16 
REMARK    4  A    between atoms: N4_16  and  C12_17 
REMARK    5  A    between atoms: C12_17  and  C13_18 
REMARK    6  A    between atoms: C14_19  and  C15_21 
ROOT
HETATM    1  C4  UNL     1      22.880   0.333  52.413  1.00  0.00     0.035 A 
HETATM    2  C5  UNL     1      23.511  -0.392  53.405  1.00  0.00     0.030 A 
HETATM    3  C6  UNL     1      24.853  -0.164  53.672  1.00  0.00     0.016 A 
HETATM    4  C7  UNL     1      25.551   0.795  52.937  1.00  0.00     0.000 A 
HETATM    5  C8  UNL     1      26.886   1.023  53.203  1.00  0.00     0.073 A 
HETATM    6  C9  UNL     1      27.566   0.281  54.232  1.00  0.00     0.102 C 
HETATM    7  N2  UNL     1      28.115  -0.308  55.075  1.00  0.00    -0.191 NA
HETATM    8  C10 UNL     1      27.512   1.985  52.436  1.00  0.00     0.142 A 
HETATM    9  N3  UNL     1      26.861   2.656  51.492  1.00  0.00    -0.241 NA
HETATM   10  C11 UNL     1      25.571   2.480  51.188  1.00  0.00     0.134 A 
HETATM   11  C17 UNL     1      24.930   1.523  51.944  1.00  0.00     0.024 A 
HETATM   12  C18 UNL     1      23.596   1.272  51.703  1.00  0.00     0.045 A 
ENDROOT
BRANCH  10  13
HETATM   13  N4  UNL     1      24.961   3.245  50.162  1.00  0.00    -0.371 N 
HETATM   14  H10 UNL     1      24.239   2.934  49.483  1.00  0.00     0.161 HD
BRANCH  13  15
HETATM   15  C12 UNL     1      25.354   4.636  49.995  1.00  0.00     0.149 C 
BRANCH  15  16
HETATM   16  C13 UNL     1      24.113   5.454  50.173  1.00  0.00     0.007 C 
HETATM   17  C14 UNL     1      23.080   5.647  51.011  1.00  0.00    -0.014 C 
HETATM   18 BR1  UNL     1      21.663   6.907  50.755  1.00  0.00    -0.056 Br
BRANCH  17  19
HETATM   19  C15 UNL     1      22.866   4.909  52.281  1.00  0.00     0.041 C 
HETATM   20  C16 UNL     1      21.591   4.120  52.172  1.00  0.00     0.010 C 
ENDBRANCH  17  19
ENDBRANCH  15  16
ENDBRANCH  13  15
ENDBRANCH  10  13
BRANCH   1  21
HETATM   21  N1  UNL     1      21.512   0.097  52.142  1.00  0.00    -0.327 N 
HETATM   22  C3  UNL     1      20.387   0.363  52.971  1.00  0.00     0.221 C 
HETATM   23  O1  UNL     1      20.589   0.876  54.106  1.00  0.00    -0.273 OA
HETATM   24  H6  UNL     1      21.622  -0.310  51.188  1.00  0.00     0.169 HD
BRANCH  22  25
HETATM   25  C2  UNL     1      19.143  -0.066  52.235  1.00  0.00     0.098 C 
HETATM   26  C1  UNL     1      19.129   0.559  50.872  1.00  0.00     0.014 C 
ENDBRANCH  22  25
ENDBRANCH   1  21
TORSDOF 6
ENDMDL
MODEL 8
REMARK VINA RESULT:      -7.3      3.240      6.325
REMARK  6 active torsions:
REMARK  status: ('A' for Active; 'I' for Inactive)
REMARK    1  A    between atoms: C2_2  and  C3_3 
REMARK       I    between atoms: C3_3  and  N1_5 
REMARK    2  A    between atoms: N1_5  and  C4_6 
REMARK    3  A    between atoms: C11_15  and  N4_16 
REMARK    4  A    between atoms: N4_16  and  C12_17 
REMARK    5  A    between atoms: C12_17  and  C13_18 
REMARK    6  A    between atoms: C14_19  and  C15_21 
ROOT
HETATM    1  C4  UNL     1      25.212   3.022  50.499  1.00  0.00     0.035 A 
HETATM    2  C5  UNL     1      26.491   2.582  50.781  1.00  0.00     0.030 A 
HETATM    3  C6  UNL     1      26.672   1.517  51.651  1.00  0.00     0.016 A 
HETATM    4  C7  UNL     1      25.562   0.901  52.231  1.00  0.00     0.000 A 
HETATM    5  C8  UNL     1      25.743  -0.160  53.096  1.00  0.00     0.073 A 
HETATM    6  C9  UNL     1      27.065  -0.637  53.406  1.00  0.00     0.102 C 
HETATM    7  N2  UNL     1      28.134  -1.034  53.647  1.00  0.00    -0.191 NA
HETATM    8  C10 UNL     1      24.600  -0.720  53.631  1.00  0.00     0.142 A 
HETATM    9  N3  UNL     1      23.392  -0.260  53.328  1.00  0.00    -0.241 NA
HETATM   10  C11 UNL     1      23.153   0.761  52.499  1.00  0.00     0.134 A 
HETATM   11  C17 UNL     1      24.282   1.333  51.955  1.00  0.00     0.024 A 
HETATM   12  C18 UNL     1      24.136   2.393  51.087  1.00  0.00     0.045 A 
ENDROOT
BRANCH  10  13
HETATM   13  N4  UNL     1      21.824   1.182  52.236  1.00  0.00    -0.371 N 
HETATM   14  H10 UNL     1      21.351   2.040  52.579  1.00  0.00     0.161 HD
BRANCH  13  15
HETATM   15  C12 UNL     1      20.980   0.352  51.391  1.00  0.00     0.149 C 
BRANCH  15  16
HETATM   16  C13 UNL     1      20.421   1.250  50.332  1.00  0.00     0.007 C 
HETATM   17  C14 UNL     1      20.670   1.714  49.095  1.00  0.00    -0.014 C 
HETATM   18 BR1  UNL     1      19.558   2.928  48.121  1.00  0.00    -0.056 Br
BRANCH  17  19
HETATM   19  C15 UNL     1      21.856   1.360  48.276  1.00  0.00     0.041 C 
HETATM   20  C16 UNL     1      22.399   2.613  47.646  1.00  0.00     0.010 C 
ENDBRANCH  17  19
ENDBRANCH  15  16
ENDBRANCH  13  15
ENDBRANCH  10  13
BRANCH   1  21
HETATM   21  N1  UNL     1      25.030   4.108  49.612  1.00  0.00    -0.327 N 
HETATM   22  C3  UNL     1      24.589   5.428  49.907  1.00  0.00     0.221 C 
HETATM   23  O1  UNL     1      24.314   5.712  51.105  1.00  0.00    -0.273 OA
HETATM   24  H6  UNL     1      25.313   3.625  48.732  1.00  0.00     0.169 HD
BRANCH  22  25
HETATM   25  C2  UNL     1      24.558   6.217  48.623  1.00  0.00     0.098 C 
HETATM   26  C1  UNL     1      25.954   6.628  48.255  1.00  0.00     0.014 C 
ENDBRANCH  22  25
ENDBRANCH   1  21
TORSDOF 6
ENDMDL
MODEL 9
REMARK VINA RESULT:      -7.3      2.354      3.401
REMARK  6 active torsions:
REMARK  status: ('A' for Active; 'I' for Inactive)
REMARK    1  A    between atoms: C2_2  and  C3_3 
REMARK       I    between atoms: C3_3  and  N1_5 
REMARK    2  A    between atoms: N1_5  and  C4_6 
REMARK    3  A    between atoms: C11_15  and  N4_16 
REMARK    4  A    between atoms: N4_16  and  C12_17 
REMARK    5  A    between atoms: C12_17  and  C13_18 
REMARK    6  A    between atoms: C14_19  and  C15_21 
ROOT
HETATM    1  C4  UNL     1      26.395   1.768  51.727  1.00  0.00     0.035 A 
HETATM    2  C5  UNL     1      25.058   1.450  51.868  1.00  0.00     0.030 A 
HETATM    3  C6  UNL     1      24.102   2.193  51.192  1.00  0.00     0.016 A 
HETATM    4  C7  UNL     1      24.500   3.254  50.377  1.00  0.00     0.000 A 
HETATM    5  C8  UNL     1      23.549   3.993  49.703  1.00  0.00     0.073 A 
HETATM    6  C9  UNL     1      22.150   3.682  49.833  1.00  0.00     0.102 C 
HETATM    7  N2  UNL     1      21.017   3.422  49.924  1.00  0.00    -0.191 NA
HETATM    8  C10 UNL     1      24.016   5.027  48.916  1.00  0.00     0.142 A 
HETATM    9  N3  UNL     1      25.313   5.293  48.813  1.00  0.00    -0.241 NA
HETATM   10  C11 UNL     1      26.280   4.614  49.439  1.00  0.00     0.134 A 
HETATM   11  C17 UNL     1      25.833   3.579  50.230  1.00  0.00     0.024 A 
HETATM   12  C18 UNL     1      26.757   2.820  50.915  1.00  0.00     0.045 A 
ENDROOT
BRANCH  10  13
HETATM   13  N4  UNL     1      27.641   4.973  49.267  1.00  0.00    -0.371 N 
HETATM   14  H10 UNL     1      28.469   4.568  49.747  1.00  0.00     0.161 HD
BRANCH  13  15
HETATM   15  C12 UNL     1      27.975   6.026  48.321  1.00  0.00     0.149 C 
BRANCH  15  16
HETATM   16  C13 UNL     1      29.470   6.072  48.244  1.00  0.00     0.007 C 
HETATM   17  C14 UNL     1      30.519   6.884  48.464  1.00  0.00    -0.014 C 
HETATM   18 BR1  UNL     1      32.355   6.423  48.187  1.00  0.00    -0.056 Br
BRANCH  17  19
HETATM   19  C15 UNL     1      30.425   8.279  48.962  1.00  0.00     0.041 C 
HETATM   20  C16 UNL     1      31.448   9.116  48.243  1.00  0.00     0.010 C 
ENDBRANCH  17  19
ENDBRANCH  15  16
ENDBRANCH  13  15
ENDBRANCH  10  13
BRANCH   1  21
HETATM   21  N1  UNL     1      27.367   1.008  52.418  1.00  0.00    -0.327 N 
HETATM   22  C3  UNL     1      28.086   1.351  53.596  1.00  0.00     0.221 C 
HETATM   23  O1  UNL     1      27.859   2.472  54.129  1.00  0.00    -0.273 OA
HETATM   24  H6  UNL     1      27.364   0.170  51.796  1.00  0.00     0.169 HD
BRANCH  22  25
HETATM   25  C2  UNL     1      29.008   0.210  53.940  1.00  0.00     0.098 C 
HETATM   26  C1  UNL     1      28.510  -1.048  53.291  1.00  0.00     0.014 C 
ENDBRANCH  22  25
ENDBRANCH   1  21
TORSDOF 6
ENDMDL
