MODEL 1
REMARK VINA RESULT:      -8.4      0.000      0.000
REMARK  3 active torsions:
REMARK  status: ('A' for Active; 'I' for Inactive)
REMARK    1  A    between atoms: N1_1  and  C1_2 
REMARK    2  A    between atoms: C7_11  and  N4_12 
REMARK    3  A    between atoms: N4_12  and  C8_13 
ROOT
HETATM    1  C1  UNL     1      22.009   2.126  48.867  1.00  0.00     0.199 C 
HETATM    2  C2  UNL     1      22.380   3.423  48.791  1.00  0.00     0.162 A 
HETATM    3  C3  UNL     1      22.328   4.315  47.730  1.00  0.00     0.091 A 
HETATM    4  C4  UNL     1      22.898   5.096  48.777  1.00  0.00     0.101 A 
HETATM    5  O1  UNL     1      23.235   4.776  50.131  1.00  0.00    -0.324 OA
HETATM    6  C5  UNL     1      24.499   4.065  50.230  1.00  0.00     0.248 A 
HETATM    7  N2  UNL     1      25.554   3.612  49.648  1.00  0.00    -0.372 NA
HETATM    8  C6  UNL     1      26.658   3.050  49.481  1.00  0.00     0.304 A 
HETATM    9  N3  UNL     1      26.822   2.696  50.819  1.00  0.00    -0.210 NA
HETATM   10  C7  UNL     1      25.819   3.056  51.705  1.00  0.00     0.162 A 
HETATM   11  C14 UNL     1      24.657   3.698  51.601  1.00  0.00     0.141 A 
HETATM   12  N5  UNL     1      23.935   3.745  52.860  1.00  0.00    -0.372 N 
HETATM   13  C15 UNL     1      23.291   2.440  52.617  1.00  0.00     0.214 C 
HETATM   14  C16 UNL     1      22.834   2.337  51.280  1.00  0.00    -0.085 C 
HETATM   15  C17 UNL     1      22.460   2.231  50.164  1.00  0.00    -0.068 C 
HETATM   16  H11 UNL     1      24.394   4.657  53.014  1.00  0.00     0.160 HD
ENDROOT
BRANCH  10  17
HETATM   17  N4  UNL     1      26.300   2.609  53.019  1.00  0.00    -0.339 N 
HETATM   18  H7  UNL     1      26.433   2.956  53.990  1.00  0.00     0.167 HD
BRANCH  17  19
HETATM   19  C8  UNL     1      26.724   1.251  52.928  1.00  0.00     0.035 A 
HETATM   20  C9  UNL     1      25.952   0.185  52.526  1.00  0.00     0.032 A 
HETATM   21  C10 UNL     1      26.260  -1.148  52.447  1.00  0.00     0.046 A 
HETATM   22  C11 UNL     1      27.546  -1.516  52.823  1.00  0.00     0.138 A 
HETATM   23  F1  UNL     1      27.874  -2.813  52.764  1.00  0.00    -0.204 F 
HETATM   24  C12 UNL     1      28.404  -0.530  53.239  1.00  0.00     0.074 A 
HETATM   25 CL1  UNL     1      30.049  -0.985  53.691  1.00  0.00    -0.081 Cl
HETATM   26  C13 UNL     1      28.014   0.795  53.292  1.00  0.00     0.056 A 
ENDBRANCH  17  19
ENDBRANCH  10  17
BRANCH   1  27
HETATM   27  N1  UNL     1      21.697   0.810  49.159  1.00  0.00     0.095 N 
HETATM   28  H1  UNL     1      22.260   0.245  49.805  1.00  0.00     0.314 HD
HETATM   29  H2  UNL     1      22.101   0.105  49.738  1.00  0.00     0.314 HD
ENDBRANCH   1  27
TORSDOF 3
ENDMDL
MODEL 2
REMARK VINA RESULT:      -8.0      3.605      4.955
REMARK  3 active torsions:
REMARK  status: ('A' for Active; 'I' for Inactive)
REMARK    1  A    between atoms: N1_1  and  C1_2 
REMARK    2  A    between atoms: C7_11  and  N4_12 
REMARK    3  A    between atoms: N4_12  and  C8_13 
ROOT
HETATM    1  C1  UNL     1      25.524   7.232  49.864  1.00  0.00     0.199 C 
HETATM    2  C2  UNL     1      24.177   7.193  49.973  1.00  0.00     0.162 A 
HETATM    3  C3  UNL     1      23.263   8.205  50.221  1.00  0.00     0.091 A 
HETATM    4  C4  UNL     1      22.437   7.050  50.109  1.00  0.00     0.101 A 
HETATM    5  O1  UNL     1      22.751   5.673  49.871  1.00  0.00    -0.324 OA
HETATM    6  C5  UNL     1      23.209   4.997  51.073  1.00  0.00     0.248 A 
HETATM    7  N2  UNL     1      23.422   5.034  52.343  1.00  0.00    -0.372 NA
HETATM    8  C6  UNL     1      23.753   4.674  53.493  1.00  0.00     0.304 A 
HETATM    9  N3  UNL     1      24.131   3.387  53.116  1.00  0.00    -0.210 NA
HETATM   10  C7  UNL     1      24.014   3.049  51.777  1.00  0.00     0.162 A 
HETATM   11  C14 UNL     1      23.604   3.682  50.680  1.00  0.00     0.141 A 
HETATM   12  N5  UNL     1      23.756   2.872  49.484  1.00  0.00    -0.372 N 
HETATM   13  C15 UNL     1      25.148   3.318  49.279  1.00  0.00     0.214 C 
HETATM   14  C16 UNL     1      25.273   4.714  49.486  1.00  0.00    -0.085 C 
HETATM   15  C17 UNL     1      25.396   5.875  49.670  1.00  0.00    -0.068 C 
HETATM   16  H11 UNL     1      22.781   2.572  49.642  1.00  0.00     0.160 HD
ENDROOT
BRANCH  10  17
HETATM   17  N4  UNL     1      24.422   1.640  51.707  1.00  0.00    -0.339 N 
HETATM   18  H7  UNL     1      25.174   1.036  51.318  1.00  0.00     0.167 HD
BRANCH  17  19
HETATM   19  C8  UNL     1      23.468   0.838  52.401  1.00  0.00     0.035 A 
HETATM   20  C9  UNL     1      23.729   0.004  53.463  1.00  0.00     0.032 A 
HETATM   21  C10 UNL     1      22.892  -0.827  54.160  1.00  0.00     0.046 A 
HETATM   22  C11 UNL     1      21.562  -0.856  53.757  1.00  0.00     0.138 A 
HETATM   23  F1  UNL     1      20.720  -1.664  54.414  1.00  0.00    -0.204 F 
HETATM   24  C12 UNL     1      21.188  -0.057  52.706  1.00  0.00     0.074 A 
HETATM   25 CL1  UNL     1      19.495  -0.065  52.206  1.00  0.00    -0.081 Cl
HETATM   26  C13 UNL     1      22.099   0.755  52.054  1.00  0.00     0.056 A 
ENDBRANCH  17  19
ENDBRANCH  10  17
BRANCH   1  27
HETATM   27  N1  UNL     1      26.888   7.052  49.717  1.00  0.00     0.095 N 
HETATM   28  H1  UNL     1      27.456   6.576  50.428  1.00  0.00     0.314 HD
HETATM   29  H2  UNL     1      27.603   6.632  50.272  1.00  0.00     0.314 HD
ENDBRANCH   1  27
TORSDOF 3
ENDMDL
MODEL 3
REMARK VINA RESULT:      -7.9      3.659      5.668
REMARK  3 active torsions:
REMARK  status: ('A' for Active; 'I' for Inactive)
REMARK    1  A    between atoms: N1_1  and  C1_2 
REMARK    2  A    between atoms: C7_11  and  N4_12 
REMARK    3  A    between atoms: N4_12  and  C8_13 
ROOT
HETATM    1  C1  UNL     1      24.247  -0.082  53.161  1.00  0.00     0.199 C 
HETATM    2  C2  UNL     1      22.899   0.008  53.125  1.00  0.00     0.162 A 
HETATM    3  C3  UNL     1      21.928  -0.980  53.159  1.00  0.00     0.091 A 
HETATM    4  C4  UNL     1      21.162   0.217  53.062  1.00  0.00     0.101 A 
HETATM    5  O1  UNL     1      21.549   1.592  52.975  1.00  0.00    -0.324 OA
HETATM    6  C5  UNL     1      21.951   1.966  51.628  1.00  0.00     0.248 A 
HETATM    7  N2  UNL     1      22.074   1.643  50.388  1.00  0.00    -0.372 NA
HETATM    8  C6  UNL     1      22.339   1.726  49.169  1.00  0.00     0.304 A 
HETATM    9  N3  UNL     1      22.797   3.041  49.232  1.00  0.00    -0.210 NA
HETATM   10  C7  UNL     1      22.787   3.667  50.468  1.00  0.00     0.162 A 
HETATM   11  C14 UNL     1      22.428   3.310  51.700  1.00  0.00     0.141 A 
HETATM   12  N5  UNL     1      22.697   4.349  52.678  1.00  0.00    -0.372 N 
HETATM   13  C15 UNL     1      24.079   3.880  52.894  1.00  0.00     0.214 C 
HETATM   14  C16 UNL     1      24.130   2.468  52.992  1.00  0.00    -0.085 C 
HETATM   15  C17 UNL     1      24.191   1.290  53.060  1.00  0.00    -0.068 C 
HETATM   16  H11 UNL     1      21.727   4.663  52.514  1.00  0.00     0.160 HD
ENDROOT
BRANCH  10  17
HETATM   17  N4  UNL     1      23.259   5.032  50.203  1.00  0.00    -0.339 N 
HETATM   18  H7  UNL     1      22.944   6.021  50.269  1.00  0.00     0.167 HD
BRANCH  17  19
HETATM   19  C8  UNL     1      24.585   4.980  49.683  1.00  0.00     0.035 A 
HETATM   20  C9  UNL     1      25.462   3.926  49.802  1.00  0.00     0.032 A 
HETATM   21  C10 UNL     1      26.758   3.803  49.374  1.00  0.00     0.046 A 
HETATM   22  C11 UNL     1      27.304   4.895  48.711  1.00  0.00     0.138 A 
HETATM   23  F1  UNL     1      28.571   4.808  48.287  1.00  0.00    -0.204 F 
HETATM   24  C12 UNL     1      26.514   6.003  48.532  1.00  0.00     0.074 A 
HETATM   25 CL1  UNL     1      27.189   7.384  47.664  1.00  0.00    -0.081 Cl
HETATM   26  C13 UNL     1      25.212   6.047  48.997  1.00  0.00     0.056 A 
ENDBRANCH  17  19
ENDBRANCH  10  17
BRANCH   1  27
HETATM   27  N1  UNL     1      25.624   0.048  53.185  1.00  0.00     0.095 N 
HETATM   28  H1  UNL     1      26.250  -0.764  53.246  1.00  0.00     0.314 HD
HETATM   29  H2  UNL     1      26.389  -0.590  53.243  1.00  0.00     0.314 HD
ENDBRANCH   1  27
TORSDOF 3
ENDMDL
MODEL 4
REMARK VINA RESULT:      -7.8      1.718      2.952
REMARK  3 active torsions:
REMARK  status: ('A' for Active; 'I' for Inactive)
REMARK    1  A    between atoms: N1_1  and  C1_2 
REMARK    2  A    between atoms: C7_11  and  N4_12 
REMARK    3  A    between atoms: N4_12  and  C8_13 
ROOT
HETATM    1  C1  UNL     1      21.356   4.885  50.174  1.00  0.00     0.199 C 
HETATM    2  C2  UNL     1      21.410   3.621  49.700  1.00  0.00     0.162 A 
HETATM    3  C3  UNL     1      20.394   2.738  49.368  1.00  0.00     0.091 A 
HETATM    4  C4  UNL     1      21.572   1.984  49.099  1.00  0.00     0.101 A 
HETATM    5  O1  UNL     1      22.961   2.302  49.240  1.00  0.00    -0.324 OA
HETATM    6  C5  UNL     1      23.418   2.171  50.613  1.00  0.00     0.248 A 
HETATM    7  N2  UNL     1      23.168   1.824  51.828  1.00  0.00    -0.372 NA
HETATM    8  C6  UNL     1      23.326   1.614  53.050  1.00  0.00     0.304 A 
HETATM    9  N3  UNL     1      24.647   2.055  53.082  1.00  0.00    -0.210 NA
HETATM   10  C7  UNL     1      25.204   2.503  51.894  1.00  0.00     0.162 A 
HETATM   11  C14 UNL     1      24.770   2.631  50.642  1.00  0.00     0.141 A 
HETATM   12  N5  UNL     1      25.761   3.240  49.772  1.00  0.00    -0.372 N 
HETATM   13  C15 UNL     1      25.321   4.606  50.115  1.00  0.00     0.214 C 
HETATM   14  C16 UNL     1      23.907   4.698  50.131  1.00  0.00    -0.085 C 
HETATM   15  C17 UNL     1      22.729   4.787  50.162  1.00  0.00    -0.068 C 
HETATM   16  H11 UNL     1      26.056   2.277  49.543  1.00  0.00     0.160 HD
ENDROOT
BRANCH  10  17
HETATM   17  N4  UNL     1      26.595   2.834  52.231  1.00  0.00    -0.339 N 
HETATM   18  H7  UNL     1      27.245   3.644  52.266  1.00  0.00     0.167 HD
BRANCH  17  19
HETATM   19  C8  UNL     1      27.274   1.649  52.642  1.00  0.00     0.035 A 
HETATM   20  C9  UNL     1      28.444   1.594  53.363  1.00  0.00     0.032 A 
HETATM   21  C10 UNL     1      29.184   0.512  53.765  1.00  0.00     0.046 A 
HETATM   22  C11 UNL     1      28.704  -0.741  53.406  1.00  0.00     0.138 A 
HETATM   23  F1  UNL     1      29.409  -1.817  53.777  1.00  0.00    -0.204 F 
HETATM   24  C12 UNL     1      27.537  -0.804  52.687  1.00  0.00     0.074 A 
HETATM   25 CL1  UNL     1      26.905  -2.394  52.251  1.00  0.00    -0.081 Cl
HETATM   26  C13 UNL     1      26.851   0.338  52.318  1.00  0.00     0.056 A 
ENDBRANCH  17  19
ENDBRANCH  10  17
BRANCH   1  27
HETATM   27  N1  UNL     1      21.524   6.171  50.656  1.00  0.00     0.095 N 
HETATM   28  H1  UNL     1      21.817   6.947  50.052  1.00  0.00     0.314 HD
HETATM   29  H2  UNL     1      21.798   7.041  50.252  1.00  0.00     0.314 HD
ENDBRANCH   1  27
TORSDOF 3
ENDMDL
MODEL 5
REMARK VINA RESULT:      -7.7      2.058      2.515
REMARK  3 active torsions:
REMARK  status: ('A' for Active; 'I' for Inactive)
REMARK    1  A    between atoms: N1_1  and  C1_2 
REMARK    2  A    between atoms: C7_11  and  N4_12 
REMARK    3  A    between atoms: N4_12  and  C8_13 
ROOT
HETATM    1  C1  UNL     1      20.992   2.329  49.663  1.00  0.00     0.199 C 
HETATM    2  C2  UNL     1      21.319   3.260  50.586  1.00  0.00     0.162 A 
HETATM    3  C3  UNL     1      21.297   4.645  50.517  1.00  0.00     0.091 A 
HETATM    4  C4  UNL     1      21.773   4.399  51.837  1.00  0.00     0.101 A 
HETATM    5  O1  UNL     1      22.038   3.182  52.544  1.00  0.00    -0.324 OA
HETATM    6  C5  UNL     1      23.319   2.602  52.179  1.00  0.00     0.248 A 
HETATM    7  N2  UNL     1      24.425   2.700  51.526  1.00  0.00    -0.372 NA
HETATM    8  C6  UNL     1      25.558   2.419  51.077  1.00  0.00     0.304 A 
HETATM    9  N3  UNL     1      25.652   1.195  51.736  1.00  0.00    -0.210 NA
HETATM   10  C7  UNL     1      24.584   0.809  52.531  1.00  0.00     0.162 A 
HETATM   11  C14 UNL     1      23.407   1.344  52.850  1.00  0.00     0.141 A 
HETATM   12  N5  UNL     1      22.609   0.467  53.688  1.00  0.00    -0.372 N 
HETATM   13  C15 UNL     1      22.031  -0.230  52.523  1.00  0.00     0.214 C 
HETATM   14  C16 UNL     1      21.660   0.689  51.510  1.00  0.00    -0.085 C 
HETATM   15  C17 UNL     1      21.360   1.441  50.650  1.00  0.00    -0.068 C 
HETATM   16  H11 UNL     1      23.023   0.966  54.491  1.00  0.00     0.160 HD
ENDROOT
BRANCH  10  17
HETATM   17  N4  UNL     1      25.000  -0.467  53.128  1.00  0.00    -0.339 N 
HETATM   18  H7  UNL     1      24.602  -1.358  53.485  1.00  0.00     0.167 HD
BRANCH  17  19
HETATM   19  C8  UNL     1      26.420  -0.484  53.262  1.00  0.00     0.035 A 
HETATM   20  C9  UNL     1      27.259  -1.505  52.879  1.00  0.00     0.032 A 
HETATM   21  C10 UNL     1      28.618  -1.625  53.004  1.00  0.00     0.046 A 
HETATM   22  C11 UNL     1      29.286  -0.566  53.607  1.00  0.00     0.138 A 
HETATM   23  F1  UNL     1      30.615  -0.658  53.751  1.00  0.00    -0.204 F 
HETATM   24  C12 UNL     1      28.546   0.510  54.025  1.00  0.00     0.074 A 
HETATM   25 CL1  UNL     1      29.390   1.872  54.766  1.00  0.00    -0.081 Cl
HETATM   26  C13 UNL     1      27.173   0.553  53.862  1.00  0.00     0.056 A 
ENDBRANCH  17  19
ENDBRANCH  10  17
BRANCH   1  27
HETATM   27  N1  UNL     1      20.713   1.226  48.876  1.00  0.00     0.095 N 
HETATM   28  H1  UNL     1      20.512   1.308  47.872  1.00  0.00     0.314 HD
HETATM   29  H2  UNL     1      20.495   1.090  47.912  1.00  0.00     0.314 HD
ENDBRANCH   1  27
TORSDOF 3
ENDMDL
MODEL 6
REMARK VINA RESULT:      -7.6      4.322      6.100
REMARK  3 active torsions:
REMARK  status: ('A' for Active; 'I' for Inactive)
REMARK    1  A    between atoms: N1_1  and  C1_2 
REMARK    2  A    between atoms: C7_11  and  N4_12 
REMARK    3  A    between atoms: N4_12  and  C8_13 
ROOT
HETATM    1  C1  UNL     1      22.023  -0.041  52.794  1.00  0.00     0.199 C 
HETATM    2  C2  UNL     1      21.211   1.016  52.573  1.00  0.00     0.162 A 
HETATM    3  C3  UNL     1      19.857   1.066  52.276  1.00  0.00     0.091 A 
HETATM    4  C4  UNL     1      20.232   2.440  52.290  1.00  0.00     0.101 A 
HETATM    5  O1  UNL     1      21.491   3.083  52.519  1.00  0.00    -0.324 OA
HETATM    6  C5  UNL     1      22.344   3.057  51.342  1.00  0.00     0.248 A 
HETATM    7  N2  UNL     1      22.490   2.767  50.095  1.00  0.00    -0.372 NA
HETATM    8  C6  UNL     1      23.016   2.646  48.967  1.00  0.00     0.304 A 
HETATM    9  N3  UNL     1      24.241   3.193  49.342  1.00  0.00    -0.210 NA
HETATM   10  C7  UNL     1      24.386   3.604  50.658  1.00  0.00     0.162 A 
HETATM   11  C14 UNL     1      23.601   3.611  51.733  1.00  0.00     0.141 A 
HETATM   12  N5  UNL     1      24.287   4.098  52.917  1.00  0.00    -0.372 N 
HETATM   13  C15 UNL     1      24.809   2.758  53.247  1.00  0.00     0.214 C 
HETATM   14  C16 UNL     1      23.810   1.767  53.087  1.00  0.00    -0.085 C 
HETATM   15  C17 UNL     1      22.991   0.927  52.943  1.00  0.00    -0.068 C 
HETATM   16  H11 UNL     1      23.913   5.028  52.670  1.00  0.00     0.160 HD
ENDROOT
BRANCH  10  17
HETATM   17  N4  UNL     1      25.736   4.180  50.726  1.00  0.00    -0.339 N 
HETATM   18  H7  UNL     1      26.652   4.035  51.195  1.00  0.00     0.167 HD
BRANCH  17  19
HETATM   19  C8  UNL     1      25.807   5.313  49.863  1.00  0.00     0.035 A 
HETATM   20  C9  UNL     1      26.778   5.553  48.917  1.00  0.00     0.032 A 
HETATM   21  C10 UNL     1      26.949   6.623  48.079  1.00  0.00     0.046 A 
HETATM   22  C11 UNL     1      26.013   7.646  48.171  1.00  0.00     0.138 A 
HETATM   23  F1  UNL     1      26.158   8.709  47.371  1.00  0.00    -0.204 F 
HETATM   24  C12 UNL     1      24.995   7.509  49.082  1.00  0.00     0.074 A 
HETATM   25 CL1  UNL     1      23.785   8.790  49.185  1.00  0.00    -0.081 Cl
HETATM   26  C13 UNL     1      24.895   6.394  49.894  1.00  0.00     0.056 A 
ENDBRANCH  17  19
ENDBRANCH  10  17
BRANCH   1  27
HETATM   27  N1  UNL     1      23.016  -0.970  53.049  1.00  0.00     0.095 N 
HETATM   28  H1  UNL     1      23.679  -1.275  52.326  1.00  0.00     0.314 HD
HETATM   29  H2  UNL     1      23.738  -1.392  52.505  1.00  0.00     0.314 HD
ENDBRANCH   1  27
TORSDOF 3
ENDMDL
MODEL 7
REMARK VINA RESULT:      -7.6      2.211      3.712
REMARK  3 active torsions:
REMARK  status: ('A' for Active; 'I' for Inactive)
REMARK    1  A    between atoms: N1_1  and  C1_2 
REMARK    2  A    between atoms: C7_11  and  N4_12 
REMARK    3  A    between atoms: N4_12  and  C8_13 
ROOT
HETATM    1  C1  UNL     1      25.582   7.076  49.850  1.00  0.00     0.199 C 
HETATM    2  C2  UNL     1      24.236   7.147  49.947  1.00  0.00     0.162 A 
HETATM    3  C3  UNL     1      23.407   8.225  50.217  1.00  0.00     0.091 A 
HETATM    4  C4  UNL     1      22.489   7.146  50.067  1.00  0.00     0.101 A 
HETATM    5  O1  UNL     1      22.688   5.756  49.792  1.00  0.00    -0.324 OA
HETATM    6  C5  UNL     1      23.077   5.011  50.978  1.00  0.00     0.248 A 
HETATM    7  N2  UNL     1      23.280   4.995  52.250  1.00  0.00    -0.372 NA
HETATM    8  C6  UNL     1      23.569   4.577  53.392  1.00  0.00     0.304 A 
HETATM    9  N3  UNL     1      23.842   3.274  52.982  1.00  0.00    -0.210 NA
HETATM   10  C7  UNL     1      23.710   2.984  51.633  1.00  0.00     0.162 A 
HETATM   11  C14 UNL     1      23.364   3.678  50.551  1.00  0.00     0.141 A 
HETATM   12  N5  UNL     1      23.460   2.892  49.334  1.00  0.00    -0.372 N 
HETATM   13  C15 UNL     1      24.886   3.225  49.152  1.00  0.00     0.214 C 
HETATM   14  C16 UNL     1      25.125   4.599  49.399  1.00  0.00    -0.085 C 
HETATM   15  C17 UNL     1      25.343   5.740  49.616  1.00  0.00    -0.068 C 
HETATM   16  H11 UNL     1      22.462   2.670  49.477  1.00  0.00     0.160 HD
ENDROOT
BRANCH  10  17
HETATM   17  N4  UNL     1      23.999   1.547  51.527  1.00  0.00    -0.339 N 
HETATM   18  H7  UNL     1      23.692   0.699  51.010  1.00  0.00     0.167 HD
BRANCH  17  19
HETATM   19  C8  UNL     1      25.046   1.210  52.435  1.00  0.00     0.035 A 
HETATM   20  C9  UNL     1      25.024   0.185  53.353  1.00  0.00     0.032 A 
HETATM   21  C10 UNL     1      25.957  -0.185  54.286  1.00  0.00     0.046 A 
HETATM   22  C11 UNL     1      27.122   0.571  54.338  1.00  0.00     0.138 A 
HETATM   23  F1  UNL     1      28.050   0.238  55.245  1.00  0.00    -0.204 F 
HETATM   24  C12 UNL     1      27.252   1.618  53.462  1.00  0.00     0.074 A 
HETATM   25 CL1  UNL     1      28.741   2.565  53.502  1.00  0.00    -0.081 Cl
HETATM   26  C13 UNL     1      26.260   1.927  52.550  1.00  0.00     0.056 A 
ENDBRANCH  17  19
ENDBRANCH  10  17
BRANCH   1  27
HETATM   27  N1  UNL     1      26.927   6.786  49.708  1.00  0.00     0.095 N 
HETATM   28  H1  UNL     1      27.266   5.833  49.533  1.00  0.00     0.314 HD
HETATM   29  H2  UNL     1      27.451   5.954  49.542  1.00  0.00     0.314 HD
ENDBRANCH   1  27
TORSDOF 3
ENDMDL
MODEL 8
REMARK VINA RESULT:      -7.5      3.715      6.207
REMARK  3 active torsions:
REMARK  status: ('A' for Active; 'I' for Inactive)
REMARK    1  A    between atoms: N1_1  and  C1_2 
REMARK    2  A    between atoms: C7_11  and  N4_12 
REMARK    3  A    between atoms: N4_12  and  C8_13 
ROOT
HETATM    1  C1  UNL     1      21.649  -0.186  54.376  1.00  0.00     0.199 C 
HETATM    2  C2  UNL     1      22.941  -0.369  54.025  1.00  0.00     0.162 A 
HETATM    3  C3  UNL     1      24.001  -0.911  54.737  1.00  0.00     0.091 A 
HETATM    4  C4  UNL     1      24.598  -0.560  53.492  1.00  0.00     0.101 A 
HETATM    5  O1  UNL     1      24.060   0.053  52.315  1.00  0.00    -0.324 OA
HETATM    6  C5  UNL     1      23.946   1.496  52.450  1.00  0.00     0.248 A 
HETATM    7  N2  UNL     1      24.169   2.557  53.146  1.00  0.00    -0.372 NA
HETATM    8  C6  UNL     1      24.195   3.760  53.485  1.00  0.00     0.304 A 
HETATM    9  N3  UNL     1      23.561   4.227  52.335  1.00  0.00    -0.210 NA
HETATM   10  C7  UNL     1      23.190   3.292  51.382  1.00  0.00     0.162 A 
HETATM   11  C14 UNL     1      23.288   1.968  51.274  1.00  0.00     0.141 A 
HETATM   12  N5  UNL     1      22.654   1.462  50.069  1.00  0.00    -0.372 N 
HETATM   13  C15 UNL     1      21.337   1.358  50.727  1.00  0.00     0.214 C 
HETATM   14  C16 UNL     1      21.456   0.804  52.025  1.00  0.00    -0.085 C 
HETATM   15  C17 UNL     1      21.541   0.357  53.115  1.00  0.00    -0.068 C 
HETATM   16  H11 UNL     1      23.583   1.541  49.626  1.00  0.00     0.160 HD
ENDROOT
BRANCH  10  17
HETATM   17  N4  UNL     1      22.615   4.081  50.284  1.00  0.00    -0.339 N 
HETATM   18  H7  UNL     1      21.716   4.230  49.782  1.00  0.00     0.167 HD
BRANCH  17  19
HETATM   19  C8  UNL     1      23.627   4.914  49.723  1.00  0.00     0.035 A 
HETATM   20  C9  UNL     1      23.464   6.211  49.294  1.00  0.00     0.032 A 
HETATM   21  C10 UNL     1      24.360   7.068  48.710  1.00  0.00     0.046 A 
HETATM   22  C11 UNL     1      25.646   6.582  48.505  1.00  0.00     0.138 A 
HETATM   23  F1  UNL     1      26.542   7.393  47.929  1.00  0.00    -0.204 F 
HETATM   24  C12 UNL     1      25.922   5.298  48.900  1.00  0.00     0.074 A 
HETATM   25 CL1  UNL     1      27.560   4.683  48.670  1.00  0.00    -0.081 Cl
HETATM   26  C13 UNL     1      24.957   4.496  49.483  1.00  0.00     0.056 A 
ENDBRANCH  17  19
ENDBRANCH  10  17
BRANCH   1  27
HETATM   27  N1  UNL     1      20.301   0.088  54.530  1.00  0.00     0.095 N 
HETATM   28  H1  UNL     1      19.779   0.660  53.856  1.00  0.00     0.314 HD
HETATM   29  H2  UNL     1      19.628   0.608  54.010  1.00  0.00     0.314 HD
ENDBRANCH   1  27
TORSDOF 3
ENDMDL
MODEL 9
REMARK VINA RESULT:      -7.4      1.980      2.613
REMARK  3 active torsions:
REMARK  status: ('A' for Active; 'I' for Inactive)
REMARK    1  A    between atoms: N1_1  and  C1_2 
REMARK    2  A    between atoms: C7_11  and  N4_12 
REMARK    3  A    between atoms: N4_12  and  C8_13 
ROOT
HETATM    1  C1  UNL     1      22.147   6.187  48.708  1.00  0.00     0.199 C 
HETATM    2  C2  UNL     1      22.951   6.823  49.589  1.00  0.00     0.162 A 
HETATM    3  C3  UNL     1      23.494   8.099  49.556  1.00  0.00     0.091 A 
HETATM    4  C4  UNL     1      23.999   7.569  50.778  1.00  0.00     0.101 A 
HETATM    5  O1  UNL     1      23.831   6.293  51.406  1.00  0.00    -0.324 OA
HETATM    6  C5  UNL     1      24.696   5.278  50.828  1.00  0.00     0.248 A 
HETATM    7  N2  UNL     1      25.644   4.976  50.010  1.00  0.00    -0.372 NA
HETATM    8  C6  UNL     1      26.488   4.301  49.381  1.00  0.00     0.304 A 
HETATM    9  N3  UNL     1      26.157   3.091  49.989  1.00  0.00    -0.210 NA
HETATM   10  C7  UNL     1      25.143   3.103  50.934  1.00  0.00     0.162 A 
HETATM   11  C14 UNL     1      24.347   4.039  51.448  1.00  0.00     0.141 A 
HETATM   12  N5  UNL     1      23.379   3.491  52.382  1.00  0.00    -0.372 N 
HETATM   13  C15 UNL     1      22.413   3.191  51.308  1.00  0.00     0.214 C 
HETATM   14  C16 UNL     1      22.322   4.264  50.388  1.00  0.00    -0.085 C 
HETATM   15  C17 UNL     1      22.245   5.145  49.604  1.00  0.00    -0.068 C 
HETATM   16  H11 UNL     1      24.067   3.709  53.120  1.00  0.00     0.160 HD
ENDROOT
BRANCH  10  17
HETATM   17  N4  UNL     1      25.072   1.722  51.428  1.00  0.00    -0.339 N 
HETATM   18  H7  UNL     1      24.443   0.894  51.419  1.00  0.00     0.167 HD
BRANCH  17  19
HETATM   19  C8  UNL     1      26.257   1.423  52.163  1.00  0.00     0.035 A 
HETATM   20  C9  UNL     1      27.062   2.332  52.808  1.00  0.00     0.032 A 
HETATM   21  C10 UNL     1      28.231   2.144  53.498  1.00  0.00     0.046 A 
HETATM   22  C11 UNL     1      28.705   0.840  53.579  1.00  0.00     0.138 A 
HETATM   23  F1  UNL     1      29.850   0.625  54.240  1.00  0.00    -0.204 F 
HETATM   24  C12 UNL     1      27.977  -0.151  52.973  1.00  0.00     0.074 A 
HETATM   25 CL1  UNL     1      28.556  -1.814  53.096  1.00  0.00    -0.081 Cl
HETATM   26  C13 UNL     1      26.804   0.124  52.293  1.00  0.00     0.056 A 
ENDBRANCH  17  19
ENDBRANCH  10  17
BRANCH   1  27
HETATM   27  N1  UNL     1      21.334   5.363  47.950  1.00  0.00     0.095 N 
HETATM   28  H1  UNL     1      21.710   4.743  47.223  1.00  0.00     0.314 HD
HETATM   29  H2  UNL     1      21.491   4.707  47.215  1.00  0.00     0.314 HD
ENDBRANCH   1  27
TORSDOF 3
ENDMDL
