MODEL 1
REMARK VINA RESULT:      -7.9      0.000      0.000
REMARK  4 active torsions:
REMARK  status: ('A' for Active; 'I' for Inactive)
REMARK    1  A    between atoms: N1_2  and  C3_4 
REMARK    2  A    between atoms: C3_4  and  C4_5 
REMARK    3  A    between atoms: C12_13  and  C13_14 
REMARK    4  A    between atoms: C13_14  and  O1_15 
ROOT
HETATM    1  C4  UNL     1      21.455   5.655  47.148  1.00  0.00     0.016 C 
HETATM    2  C5  UNL     1      20.775   5.053  48.102  1.00  0.00     0.011 C 
HETATM    3  C6  UNL     1      20.204   5.829  49.317  1.00  0.00     0.071 C 
HETATM    4  C7  UNL     1      20.722   5.031  50.518  1.00  0.00    -0.022 C 
HETATM    5  C8  UNL     1      20.886   4.350  51.622  1.00  0.00    -0.004 C 
HETATM    6  C9  UNL     1      21.891   3.693  52.405  1.00  0.00    -0.004 C 
HETATM    7  C10 UNL     1      23.134   3.389  52.492  1.00  0.00    -0.025 C 
HETATM    8  C11 UNL     1      24.509   3.412  51.985  1.00  0.00     0.054 C 
HETATM    9  C12 UNL     1      24.997   2.060  51.480  1.00  0.00     0.110 C 
HETATM   10  N2  UNL     1      24.422   0.895  51.977  1.00  0.00    -0.367 N 
HETATM   11  C14 UNL     1      23.195   0.348  52.507  1.00  0.00     0.139 A 
HETATM   12  N3  UNL     1      23.474  -0.207  53.724  1.00  0.00    -0.224 NA
HETATM   13  C15 UNL     1      22.577  -0.691  54.583  1.00  0.00     0.236 A 
HETATM   14  N4  UNL     1      21.260  -0.649  54.269  1.00  0.00    -0.234 NA
HETATM   15  C16 UNL     1      21.002  -0.082  53.029  1.00  0.00     0.114 A 
HETATM   16  S1  UNL     1      19.330   0.173  52.279  1.00  0.00    -0.072 SA
HETATM   17  C17 UNL     1      19.882   0.987  50.696  1.00  0.00     0.010 A 
HETATM   18  C18 UNL     1      21.229   0.854  51.135  1.00  0.00    -0.025 A 
HETATM   19  C19 UNL     1      21.920   0.414  52.138  1.00  0.00     0.053 A 
HETATM   20  C20 UNL     1      22.118   1.156  50.018  1.00  0.00     0.060 C 
HETATM   21  C21 UNL     1      21.320   1.084  48.645  1.00  0.00     0.131 C 
HETATM   22  N5  UNL     1      20.475   2.326  48.796  1.00  0.00    -0.343 N 
HETATM   23  C22 UNL     1      19.423   1.656  49.522  1.00  0.00     0.172 C 
HETATM   24  C23 UNL     1      20.734   3.626  48.344  1.00  0.00     0.250 C 
HETATM   25  O2  UNL     1      21.530   3.094  47.570  1.00  0.00    -0.268 OA
HETATM   26  H22 UNL     1      25.171   0.125  51.906  1.00  0.00     0.161 HD
ENDROOT
BRANCH   1  27
HETATM   27  C3  UNL     1      22.148   5.324  45.880  1.00  0.00     0.299 C 
BRANCH  27  28
HETATM   28  N1  UNL     1      21.311   5.496  44.746  1.00  0.00     0.083 N 
HETATM   29  C1  UNL     1      20.849   4.210  44.310  1.00  0.00     0.309 C 
HETATM   30  C2  UNL     1      20.355   6.535  44.823  1.00  0.00     0.309 C 
ENDBRANCH  27  28
ENDBRANCH   1  27
BRANCH   9  31
HETATM   31  C13 UNL     1      26.526   2.020  51.515  1.00  0.00     0.189 C 
BRANCH  31  32
HETATM   32  O1  UNL     1      27.065   3.264  51.311  1.00  0.00    -0.399 OA
HETATM   33  H21 UNL     1      27.110   3.751  52.159  1.00  0.00     0.209 HD
ENDBRANCH  31  32
ENDBRANCH   9  31
TORSDOF 4
ENDMDL
MODEL 2
REMARK VINA RESULT:      -7.8      3.136      3.738
REMARK  4 active torsions:
REMARK  status: ('A' for Active; 'I' for Inactive)
REMARK    1  A    between atoms: N1_2  and  C3_4 
REMARK    2  A    between atoms: C3_4  and  C4_5 
REMARK    3  A    between atoms: C12_13  and  C13_14 
REMARK    4  A    between atoms: C13_14  and  O1_15 
ROOT
HETATM    1  C4  UNL     1      25.699   6.999  49.202  1.00  0.00     0.016 C 
HETATM    2  C5  UNL     1      24.584   6.612  49.786  1.00  0.00     0.011 C 
HETATM    3  C6  UNL     1      24.101   7.226  51.126  1.00  0.00     0.071 C 
HETATM    4  C7  UNL     1      23.847   5.996  52.004  1.00  0.00    -0.022 C 
HETATM    5  C8  UNL     1      23.371   5.070  52.795  1.00  0.00    -0.004 C 
HETATM    6  C9  UNL     1      23.711   3.814  53.394  1.00  0.00    -0.004 C 
HETATM    7  C10 UNL     1      24.607   2.903  53.508  1.00  0.00    -0.025 C 
HETATM    8  C11 UNL     1      25.928   2.344  53.207  1.00  0.00     0.054 C 
HETATM    9  C12 UNL     1      25.883   1.118  52.303  1.00  0.00     0.110 C 
HETATM   10  N2  UNL     1      24.735   0.334  52.271  1.00  0.00    -0.367 N 
HETATM   11  C14 UNL     1      23.299   0.382  52.420  1.00  0.00     0.139 A 
HETATM   12  N3  UNL     1      22.945  -0.531  53.374  1.00  0.00    -0.224 NA
HETATM   13  C15 UNL     1      21.725  -0.686  53.887  1.00  0.00     0.236 A 
HETATM   14  N4  UNL     1      20.714   0.107  53.460  1.00  0.00    -0.234 NA
HETATM   15  C16 UNL     1      21.097   1.024  52.492  1.00  0.00     0.114 A 
HETATM   16  S1  UNL     1      20.002   2.287  51.699  1.00  0.00    -0.072 SA
HETATM   17  C17 UNL     1      21.280   3.077  50.597  1.00  0.00     0.010 A 
HETATM   18  C18 UNL     1      22.241   2.162  51.110  1.00  0.00    -0.025 A 
HETATM   19  C19 UNL     1      22.349   1.187  51.955  1.00  0.00     0.053 A 
HETATM   20  C20 UNL     1      23.447   2.239  50.290  1.00  0.00     0.060 C 
HETATM   21  C21 UNL     1      23.124   2.946  48.904  1.00  0.00     0.131 C 
HETATM   22  N5  UNL     1      22.917   4.357  49.398  1.00  0.00    -0.343 N 
HETATM   23  C22 UNL     1      21.520   4.164  49.703  1.00  0.00     0.172 C 
HETATM   24  C23 UNL     1      23.844   5.403  49.484  1.00  0.00     0.250 C 
HETATM   25  O2  UNL     1      24.502   4.758  48.667  1.00  0.00    -0.268 OA
HETATM   26  H22 UNL     1      25.048  -0.663  52.011  1.00  0.00     0.161 HD
ENDROOT
BRANCH   1  27
HETATM   27  C3  UNL     1      26.497   6.700  47.990  1.00  0.00     0.299 C 
BRANCH  27  28
HETATM   28  N1  UNL     1      27.855   6.414  48.294  1.00  0.00     0.083 N 
HETATM   29  C1  UNL     1      27.988   5.007  48.540  1.00  0.00     0.309 C 
HETATM   30  C2  UNL     1      28.826   7.022  47.465  1.00  0.00     0.309 C 
ENDBRANCH  27  28
ENDBRANCH   1  27
BRANCH   9  31
HETATM   31  C13 UNL     1      27.154   0.289  52.498  1.00  0.00     0.189 C 
BRANCH  31  32
HETATM   32  O1  UNL     1      26.890  -0.888  53.150  1.00  0.00    -0.399 OA
HETATM   33  H21 UNL     1      26.695  -0.710  54.093  1.00  0.00     0.209 HD
ENDBRANCH  31  32
ENDBRANCH   9  31
TORSDOF 4
ENDMDL
MODEL 3
REMARK VINA RESULT:      -7.7      2.332      3.262
REMARK  4 active torsions:
REMARK  status: ('A' for Active; 'I' for Inactive)
REMARK    1  A    between atoms: N1_2  and  C3_4 
REMARK    2  A    between atoms: C3_4  and  C4_5 
REMARK    3  A    between atoms: C12_13  and  C13_14 
REMARK    4  A    between atoms: C13_14  and  O1_15 
ROOT
HETATM    1  C4  UNL     1      20.147   6.397  47.171  1.00  0.00     0.016 C 
HETATM    2  C5  UNL     1      20.285   5.698  48.278  1.00  0.00     0.011 C 
HETATM    3  C6  UNL     1      20.052   6.323  49.679  1.00  0.00     0.071 C 
HETATM    4  C7  UNL     1      21.332   5.962  50.441  1.00  0.00    -0.022 C 
HETATM    5  C8  UNL     1      22.239   5.553  51.289  1.00  0.00    -0.004 C 
HETATM    6  C9  UNL     1      23.657   5.465  51.469  1.00  0.00    -0.004 C 
HETATM    7  C10 UNL     1      24.807   5.704  50.954  1.00  0.00    -0.025 C 
HETATM    8  C11 UNL     1      25.660   6.218  49.879  1.00  0.00     0.054 C 
HETATM    9  C12 UNL     1      26.385   5.128  49.099  1.00  0.00     0.110 C 
HETATM   10  N2  UNL     1      26.637   3.904  49.708  1.00  0.00    -0.367 N 
HETATM   11  C14 UNL     1      26.130   2.978  50.694  1.00  0.00     0.139 A 
HETATM   12  N3  UNL     1      27.126   2.743  51.600  1.00  0.00    -0.224 NA
HETATM   13  C15 UNL     1      27.002   2.050  52.731  1.00  0.00     0.236 A 
HETATM   14  N4  UNL     1      25.802   1.515  53.058  1.00  0.00    -0.234 NA
HETATM   15  C16 UNL     1      24.807   1.766  52.124  1.00  0.00     0.114 A 
HETATM   16  S1  UNL     1      23.042   1.224  52.245  1.00  0.00    -0.072 SA
HETATM   17  C17 UNL     1      22.433   1.984  50.656  1.00  0.00     0.010 A 
HETATM   18  C18 UNL     1      23.750   2.465  50.419  1.00  0.00    -0.025 A 
HETATM   19  C19 UNL     1      24.929   2.474  50.955  1.00  0.00     0.053 A 
HETATM   20  C20 UNL     1      23.829   2.958  49.047  1.00  0.00     0.060 C 
HETATM   21  C21 UNL     1      22.615   2.395  48.190  1.00  0.00     0.131 C 
HETATM   22  N5  UNL     1      21.495   3.195  48.810  1.00  0.00    -0.343 N 
HETATM   23  C22 UNL     1      21.265   2.254  49.880  1.00  0.00     0.172 C 
HETATM   24  C23 UNL     1      20.956   4.420  48.397  1.00  0.00     0.250 C 
HETATM   25  O2  UNL     1      21.462   4.163  47.304  1.00  0.00    -0.268 OA
HETATM   26  H22 UNL     1      27.520   3.501  49.240  1.00  0.00     0.161 HD
ENDROOT
BRANCH   1  27
HETATM   27  C3  UNL     1      20.267   6.218  45.705  1.00  0.00     0.299 C 
BRANCH  27  28
HETATM   28  N1  UNL     1      21.202   7.115  45.126  1.00  0.00     0.083 N 
HETATM   29  C1  UNL     1      21.065   8.398  45.754  1.00  0.00     0.309 C 
HETATM   30  C2  UNL     1      22.515   6.622  44.940  1.00  0.00     0.309 C 
ENDBRANCH  27  28
ENDBRANCH   1  27
BRANCH   9  31
HETATM   31  C13 UNL     1      27.627   5.716  48.427  1.00  0.00     0.189 C 
BRANCH  31  32
HETATM   32  O1  UNL     1      28.775   5.339  49.078  1.00  0.00    -0.399 OA
HETATM   33  H21 UNL     1      28.694   4.413  49.384  1.00  0.00     0.209 HD
ENDBRANCH  31  32
ENDBRANCH   9  31
TORSDOF 4
ENDMDL
MODEL 4
REMARK VINA RESULT:      -7.6      3.171      5.414
REMARK  4 active torsions:
REMARK  status: ('A' for Active; 'I' for Inactive)
REMARK    1  A    between atoms: N1_2  and  C3_4 
REMARK    2  A    between atoms: C3_4  and  C4_5 
REMARK    3  A    between atoms: C12_13  and  C13_14 
REMARK    4  A    between atoms: C13_14  and  O1_15 
ROOT
HETATM    1  C4  UNL     1      17.006   3.766  50.037  1.00  0.00     0.016 C 
HETATM    2  C5  UNL     1      18.215   3.772  49.515  1.00  0.00     0.011 C 
HETATM    3  C6  UNL     1      18.589   2.890  48.295  1.00  0.00     0.071 C 
HETATM    4  C7  UNL     1      19.848   2.154  48.765  1.00  0.00    -0.022 C 
HETATM    5  C8  UNL     1      21.034   1.626  48.919  1.00  0.00    -0.004 C 
HETATM    6  C9  UNL     1      21.810   0.841  49.833  1.00  0.00    -0.004 C 
HETATM    7  C10 UNL     1      21.822   0.235  50.963  1.00  0.00    -0.025 C 
HETATM    8  C11 UNL     1      21.176  -0.191  52.208  1.00  0.00     0.054 C 
HETATM    9  C12 UNL     1      21.706   0.521  53.446  1.00  0.00     0.110 C 
HETATM   10  N2  UNL     1      22.993   1.048  53.435  1.00  0.00    -0.367 N 
HETATM   11  C14 UNL     1      23.998   1.622  52.572  1.00  0.00     0.139 A 
HETATM   12  N3  UNL     1      25.145   0.894  52.720  1.00  0.00    -0.224 NA
HETATM   13  C15 UNL     1      26.253   1.030  51.992  1.00  0.00     0.236 A 
HETATM   14  N4  UNL     1      26.294   1.956  51.005  1.00  0.00    -0.234 NA
HETATM   15  C16 UNL     1      25.120   2.683  50.874  1.00  0.00     0.114 A 
HETATM   16  S1  UNL     1      24.795   4.005  49.621  1.00  0.00    -0.072 SA
HETATM   17  C17 UNL     1      23.043   4.402  50.118  1.00  0.00     0.010 A 
HETATM   18  C18 UNL     1      23.143   3.416  51.138  1.00  0.00    -0.025 A 
HETATM   19  C19 UNL     1      23.978   2.552  51.622  1.00  0.00     0.053 A 
HETATM   20  C20 UNL     1      21.995   3.547  52.031  1.00  0.00     0.060 C 
HETATM   21  C21 UNL     1      21.305   4.965  51.834  1.00  0.00     0.131 C 
HETATM   22  N5  UNL     1      20.695   4.747  50.470  1.00  0.00    -0.343 N 
HETATM   23  C22 UNL     1      21.881   5.147  49.753  1.00  0.00     0.172 C 
HETATM   24  C23 UNL     1      19.409   4.301  50.144  1.00  0.00     0.250 C 
HETATM   25  O2  UNL     1      19.106   4.640  51.289  1.00  0.00    -0.268 OA
HETATM   26  H22 UNL     1      23.338   1.043  54.455  1.00  0.00     0.161 HD
ENDROOT
BRANCH   1  27
HETATM   27  C3  UNL     1      16.254   4.407  51.141  1.00  0.00     0.299 C 
BRANCH  27  28
HETATM   28  N1  UNL     1      15.972   3.503  52.199  1.00  0.00     0.083 N 
HETATM   29  C1  UNL     1      15.130   4.159  53.157  1.00  0.00     0.309 C 
HETATM   30  C2  UNL     1      15.621   2.186  51.823  1.00  0.00     0.309 C 
ENDBRANCH  27  28
ENDBRANCH   1  27
BRANCH   9  31
HETATM   31  C13 UNL     1      21.432  -0.332  54.686  1.00  0.00     0.189 C 
BRANCH  31  32
HETATM   32  O1  UNL     1      20.401  -1.211  54.472  1.00  0.00    -0.399 OA
HETATM   33  H21 UNL     1      20.045  -1.522  55.330  1.00  0.00     0.209 HD
ENDBRANCH  31  32
ENDBRANCH   9  31
TORSDOF 4
ENDMDL
MODEL 5
REMARK VINA RESULT:      -7.5      2.749      4.663
REMARK  4 active torsions:
REMARK  status: ('A' for Active; 'I' for Inactive)
REMARK    1  A    between atoms: N1_2  and  C3_4 
REMARK    2  A    between atoms: C3_4  and  C4_5 
REMARK    3  A    between atoms: C12_13  and  C13_14 
REMARK    4  A    between atoms: C13_14  and  O1_15 
ROOT
HETATM    1  C4  UNL     1      20.526   6.722  48.020  1.00  0.00     0.016 C 
HETATM    2  C5  UNL     1      21.586   6.049  48.416  1.00  0.00     0.011 C 
HETATM    3  C6  UNL     1      22.415   5.174  47.439  1.00  0.00     0.071 C 
HETATM    4  C7  UNL     1      22.490   3.822  48.155  1.00  0.00    -0.022 C 
HETATM    5  C8  UNL     1      22.837   2.696  48.721  1.00  0.00    -0.004 C 
HETATM    6  C9  UNL     1      22.292   1.563  49.409  1.00  0.00    -0.004 C 
HETATM    7  C10 UNL     1      21.227   1.009  49.859  1.00  0.00    -0.025 C 
HETATM    8  C11 UNL     1      19.777   0.979  50.073  1.00  0.00     0.054 C 
HETATM    9  C12 UNL     1      19.368   1.189  51.525  1.00  0.00     0.110 C 
HETATM   10  N2  UNL     1      20.262   0.869  52.541  1.00  0.00    -0.367 N 
HETATM   11  C14 UNL     1      21.668   0.791  52.861  1.00  0.00     0.139 A 
HETATM   12  N3  UNL     1      21.930  -0.474  53.305  1.00  0.00    -0.224 NA
HETATM   13  C15 UNL     1      23.137  -0.973  53.567  1.00  0.00     0.236 A 
HETATM   14  N4  UNL     1      24.233  -0.198  53.391  1.00  0.00    -0.234 NA
HETATM   15  C16 UNL     1      23.943   1.082  52.941  1.00  0.00     0.114 A 
HETATM   16  S1  UNL     1      25.179   2.405  52.559  1.00  0.00    -0.072 SA
HETATM   17  C17 UNL     1      23.981   3.722  52.010  1.00  0.00     0.010 A 
HETATM   18  C18 UNL     1      22.916   2.814  52.264  1.00  0.00    -0.025 A 
HETATM   19  C19 UNL     1      22.703   1.604  52.673  1.00  0.00     0.053 A 
HETATM   20  C20 UNL     1      21.653   3.546  52.210  1.00  0.00     0.060 C 
HETATM   21  C21 UNL     1      21.917   5.107  52.334  1.00  0.00     0.131 C 
HETATM   22  N5  UNL     1      22.549   5.351  50.984  1.00  0.00    -0.343 N 
HETATM   23  C22 UNL     1      23.883   5.021  51.425  1.00  0.00     0.172 C 
HETATM   24  C23 UNL     1      21.941   5.754  49.789  1.00  0.00     0.250 C 
HETATM   25  O2  UNL     1      21.020   6.150  50.504  1.00  0.00    -0.268 OA
HETATM   26  H22 UNL     1      19.671   0.615  53.405  1.00  0.00     0.161 HD
ENDROOT
BRANCH   1  27
HETATM   27  C3  UNL     1      19.495   7.627  48.581  1.00  0.00     0.299 C 
BRANCH  27  28
HETATM   28  N1  UNL     1      20.017   8.909  48.901  1.00  0.00     0.083 N 
HETATM   29  C1  UNL     1      20.228   9.640  47.685  1.00  0.00     0.309 C 
HETATM   30  C2  UNL     1      19.391   9.594  49.968  1.00  0.00     0.309 C 
ENDBRANCH  27  28
ENDBRANCH   1  27
BRANCH   9  31
HETATM   31  C13 UNL     1      17.977   0.596  51.759  1.00  0.00     0.189 C 
BRANCH  31  32
HETATM   32  O1  UNL     1      18.052  -0.705  52.186  1.00  0.00    -0.399 OA
HETATM   33  H21 UNL     1      18.903  -1.100  51.903  1.00  0.00     0.209 HD
ENDBRANCH  31  32
ENDBRANCH   9  31
TORSDOF 4
ENDMDL
MODEL 6
REMARK VINA RESULT:      -7.4      3.618      6.359
REMARK  4 active torsions:
REMARK  status: ('A' for Active; 'I' for Inactive)
REMARK    1  A    between atoms: N1_2  and  C3_4 
REMARK    2  A    between atoms: C3_4  and  C4_5 
REMARK    3  A    between atoms: C12_13  and  C13_14 
REMARK    4  A    between atoms: C13_14  and  O1_15 
ROOT
HETATM    1  C4  UNL     1      26.745   6.467  48.552  1.00  0.00     0.016 C 
HETATM    2  C5  UNL     1      26.011   5.726  49.356  1.00  0.00     0.011 C 
HETATM    3  C6  UNL     1      26.350   4.240  49.642  1.00  0.00     0.071 C 
HETATM    4  C7  UNL     1      25.029   3.518  49.356  1.00  0.00    -0.022 C 
HETATM    5  C8  UNL     1      23.943   2.790  49.374  1.00  0.00    -0.004 C 
HETATM    6  C9  UNL     1      22.788   2.465  48.592  1.00  0.00    -0.004 C 
HETATM    7  C10 UNL     1      22.160   2.676  47.494  1.00  0.00    -0.025 C 
HETATM    8  C11 UNL     1      22.023   3.325  46.186  1.00  0.00     0.054 C 
HETATM    9  C12 UNL     1      20.914   4.369  46.135  1.00  0.00     0.110 C 
HETATM   10  N2  UNL     1      19.844   4.275  47.018  1.00  0.00    -0.367 N 
HETATM   11  C14 UNL     1      19.473   3.824  48.339  1.00  0.00     0.139 A 
HETATM   12  N3  UNL     1      18.421   2.961  48.209  1.00  0.00    -0.224 NA
HETATM   13  C15 UNL     1      17.886   2.233  49.188  1.00  0.00     0.236 A 
HETATM   14  N4  UNL     1      18.396   2.318  50.439  1.00  0.00    -0.234 NA
HETATM   15  C16 UNL     1      19.461   3.200  50.547  1.00  0.00     0.114 A 
HETATM   16  S1  UNL     1      20.427   3.553  52.085  1.00  0.00    -0.072 SA
HETATM   17  C17 UNL     1      21.634   4.770  51.355  1.00  0.00     0.010 A 
HETATM   18  C18 UNL     1      20.987   4.609  50.099  1.00  0.00    -0.025 A 
HETATM   19  C19 UNL     1      20.014   3.957  49.546  1.00  0.00     0.053 A 
HETATM   20  C20 UNL     1      21.469   5.642  49.187  1.00  0.00     0.060 C 
HETATM   21  C21 UNL     1      22.171   6.811  50.003  1.00  0.00     0.131 C 
HETATM   22  N5  UNL     1      23.420   6.084  50.437  1.00  0.00    -0.343 N 
HETATM   23  C22 UNL     1      22.816   5.525  51.623  1.00  0.00     0.172 C 
HETATM   24  C23 UNL     1      24.673   6.040  49.815  1.00  0.00     0.250 C 
HETATM   25  O2  UNL     1      24.311   7.062  49.231  1.00  0.00    -0.268 OA
HETATM   26  H22 UNL     1      19.001   4.738  46.534  1.00  0.00     0.161 HD
ENDROOT
BRANCH   1  27
HETATM   27  C3  UNL     1      26.785   7.849  48.020  1.00  0.00     0.299 C 
BRANCH  27  28
HETATM   28  N1  UNL     1      27.805   8.632  48.624  1.00  0.00     0.083 N 
HETATM   29  C1  UNL     1      27.332   9.110  49.891  1.00  0.00     0.309 C 
HETATM   30  C2  UNL     1      29.114   8.099  48.580  1.00  0.00     0.309 C 
ENDBRANCH  27  28
ENDBRANCH   1  27
BRANCH   9  31
HETATM   31  C13 UNL     1      20.463   4.568  44.686  1.00  0.00     0.189 C 
BRANCH  31  32
HETATM   32  O1  UNL     1      21.025   3.634  43.854  1.00  0.00    -0.399 OA
HETATM   33  H21 UNL     1      21.025   2.757  44.289  1.00  0.00     0.209 HD
ENDBRANCH  31  32
ENDBRANCH   9  31
TORSDOF 4
ENDMDL
MODEL 7
REMARK VINA RESULT:      -7.4      1.725      2.325
REMARK  4 active torsions:
REMARK  status: ('A' for Active; 'I' for Inactive)
REMARK    1  A    between atoms: N1_2  and  C3_4 
REMARK    2  A    between atoms: C3_4  and  C4_5 
REMARK    3  A    between atoms: C12_13  and  C13_14 
REMARK    4  A    between atoms: C13_14  and  O1_15 
ROOT
HETATM    1  C4  UNL     1      18.573   4.671  47.908  1.00  0.00     0.016 C 
HETATM    2  C5  UNL     1      18.759   3.957  48.998  1.00  0.00     0.011 C 
HETATM    3  C6  UNL     1      18.412   4.503  50.408  1.00  0.00     0.071 C 
HETATM    4  C7  UNL     1      19.701   4.270  51.203  1.00  0.00    -0.022 C 
HETATM    5  C8  UNL     1      20.623   3.941  52.068  1.00  0.00    -0.004 C 
HETATM    6  C9  UNL     1      22.036   4.014  52.295  1.00  0.00    -0.004 C 
HETATM    7  C10 UNL     1      23.165   4.403  51.826  1.00  0.00    -0.025 C 
HETATM    8  C11 UNL     1      23.984   5.049  50.796  1.00  0.00     0.054 C 
HETATM    9  C12 UNL     1      24.855   4.077  50.010  1.00  0.00     0.110 C 
HETATM   10  N2  UNL     1      25.232   2.871  50.591  1.00  0.00    -0.367 N 
HETATM   11  C14 UNL     1      24.808   1.861  51.532  1.00  0.00     0.139 A 
HETATM   12  N3  UNL     1      25.797   1.714  52.464  1.00  0.00    -0.224 NA
HETATM   13  C15 UNL     1      25.720   0.974  53.570  1.00  0.00     0.236 A 
HETATM   14  N4  UNL     1      24.582   0.292  53.840  1.00  0.00    -0.234 NA
HETATM   15  C16 UNL     1      23.594   0.455  52.880  1.00  0.00     0.114 A 
HETATM   16  S1  UNL     1      21.903  -0.293  52.924  1.00  0.00    -0.072 SA
HETATM   17  C17 UNL     1      21.257   0.442  51.339  1.00  0.00     0.010 A 
HETATM   18  C18 UNL     1      22.515   1.082  51.161  1.00  0.00    -0.025 A 
HETATM   19  C19 UNL     1      23.667   1.211  51.737  1.00  0.00     0.053 A 
HETATM   20  C20 UNL     1      22.577   1.626  49.807  1.00  0.00     0.060 C 
HETATM   21  C21 UNL     1      21.464   0.954  48.893  1.00  0.00     0.131 C 
HETATM   22  N5  UNL     1      20.239   1.596  49.498  1.00  0.00    -0.343 N 
HETATM   23  C22 UNL     1      20.090   0.600  50.531  1.00  0.00     0.172 C 
HETATM   24  C23 UNL     1      19.572   2.762  49.102  1.00  0.00     0.250 C 
HETATM   25  O2  UNL     1      20.139   2.603  48.020  1.00  0.00    -0.268 OA
HETATM   26  H22 UNL     1      26.170   2.591  50.142  1.00  0.00     0.161 HD
ENDROOT
BRANCH   1  27
HETATM   27  C3  UNL     1      18.758   4.555  46.442  1.00  0.00     0.299 C 
BRANCH  27  28
HETATM   28  N1  UNL     1      19.584   5.585  45.919  1.00  0.00     0.083 N 
HETATM   29  C1  UNL     1      19.072   6.854  46.351  1.00  0.00     0.309 C 
HETATM   30  C2  UNL     1      20.980   5.383  46.017  1.00  0.00     0.309 C 
ENDBRANCH  27  28
ENDBRANCH   1  27
BRANCH   9  31
HETATM   31  C13 UNL     1      26.040   4.829  49.399  1.00  0.00     0.189 C 
BRANCH  31  32
HETATM   32  O1  UNL     1      27.235   4.266  49.768  1.00  0.00    -0.399 OA
HETATM   33  H21 UNL     1      27.093   3.637  50.504  1.00  0.00     0.209 HD
ENDBRANCH  31  32
ENDBRANCH   9  31
TORSDOF 4
ENDMDL
MODEL 8
REMARK VINA RESULT:      -7.3      9.494     11.893
REMARK  4 active torsions:
REMARK  status: ('A' for Active; 'I' for Inactive)
REMARK    1  A    between atoms: N1_2  and  C3_4 
REMARK    2  A    between atoms: C3_4  and  C4_5 
REMARK    3  A    between atoms: C12_13  and  C13_14 
REMARK    4  A    between atoms: C13_14  and  O1_15 
ROOT
HETATM    1  C4  UNL     1      27.863  13.908  46.151  1.00  0.00     0.016 C 
HETATM    2  C5  UNL     1      28.897  13.142  45.869  1.00  0.00     0.011 C 
HETATM    3  C6  UNL     1      29.090  12.507  44.467  1.00  0.00     0.071 C 
HETATM    4  C7  UNL     1      29.309  11.023  44.781  1.00  0.00    -0.022 C 
HETATM    5  C8  UNL     1      29.731   9.790  44.885  1.00  0.00    -0.004 C 
HETATM    6  C9  UNL     1      29.415   8.537  45.504  1.00  0.00    -0.004 C 
HETATM    7  C10 UNL     1      28.603   7.912  46.274  1.00  0.00    -0.025 C 
HETATM    8  C11 UNL     1      27.408   7.857  47.122  1.00  0.00     0.054 C 
HETATM    9  C12 UNL     1      27.719   7.728  48.609  1.00  0.00     0.110 C 
HETATM   10  N2  UNL     1      28.924   7.164  49.010  1.00  0.00    -0.367 N 
HETATM   11  C14 UNL     1      30.305   6.990  48.621  1.00  0.00     0.139 A 
HETATM   12  N3  UNL     1      30.579   5.651  48.631  1.00  0.00    -0.224 NA
HETATM   13  C15 UNL     1      31.705   5.085  48.201  1.00  0.00     0.236 A 
HETATM   14  N4  UNL     1      32.694   5.861  47.697  1.00  0.00    -0.234 NA
HETATM   15  C16 UNL     1      32.393   7.215  47.698  1.00  0.00     0.114 A 
HETATM   16  S1  UNL     1      33.481   8.569  47.062  1.00  0.00    -0.072 SA
HETATM   17  C17 UNL     1      32.336   9.998  47.404  1.00  0.00     0.010 A 
HETATM   18  C18 UNL     1      31.394   9.075  47.934  1.00  0.00    -0.025 A 
HETATM   19  C19 UNL     1      31.239   7.806  48.144  1.00  0.00     0.053 A 
HETATM   20  C20 UNL     1      30.339   9.820  48.616  1.00  0.00     0.060 C 
HETATM   21  C21 UNL     1      30.820  11.305  48.913  1.00  0.00     0.131 C 
HETATM   22  N5  UNL     1      30.809  11.847  47.504  1.00  0.00    -0.343 N 
HETATM   23  C22 UNL     1      32.148  11.400  47.203  1.00  0.00     0.172 C 
HETATM   24  C23 UNL     1      29.787  12.528  46.833  1.00  0.00     0.250 C 
HETATM   25  O2  UNL     1      29.338  12.762  47.955  1.00  0.00    -0.268 OA
HETATM   26  H22 UNL     1      28.754   6.725  49.978  1.00  0.00     0.161 HD
ENDROOT
BRANCH   1  27
HETATM   27  C3  UNL     1      27.310  14.674  47.293  1.00  0.00     0.299 C 
BRANCH  27  28
HETATM   28  N1  UNL     1      25.936  14.390  47.519  1.00  0.00     0.083 N 
HETATM   29  C1  UNL     1      25.808  13.023  47.934  1.00  0.00     0.309 C 
HETATM   30  C2  UNL     1      25.206  15.359  48.244  1.00  0.00     0.309 C 
ENDBRANCH  27  28
ENDBRANCH   1  27
BRANCH   9  31
HETATM   31  C13 UNL     1      26.516   7.121  49.334  1.00  0.00     0.189 C 
BRANCH  31  32
HETATM   32  O1  UNL     1      26.465   7.523  50.644  1.00  0.00    -0.399 OA
HETATM   33  H21 UNL     1      25.996   6.852  51.180  1.00  0.00     0.209 HD
ENDBRANCH  31  32
ENDBRANCH   9  31
TORSDOF 4
ENDMDL
MODEL 9
REMARK VINA RESULT:      -7.2      3.103      4.541
REMARK  4 active torsions:
REMARK  status: ('A' for Active; 'I' for Inactive)
REMARK    1  A    between atoms: N1_2  and  C3_4 
REMARK    2  A    between atoms: C3_4  and  C4_5 
REMARK    3  A    between atoms: C12_13  and  C13_14 
REMARK    4  A    between atoms: C13_14  and  O1_15 
ROOT
HETATM    1  C4  UNL     1      25.169   5.276  49.840  1.00  0.00     0.016 C 
HETATM    2  C5  UNL     1      23.861   5.313  49.687  1.00  0.00     0.011 C 
HETATM    3  C6  UNL     1      22.960   6.242  50.542  1.00  0.00     0.071 C 
HETATM    4  C7  UNL     1      21.895   5.288  51.093  1.00  0.00    -0.022 C 
HETATM    5  C8  UNL     1      20.802   4.669  51.456  1.00  0.00    -0.004 C 
HETATM    6  C9  UNL     1      20.342   3.479  52.108  1.00  0.00    -0.004 C 
HETATM    7  C10 UNL     1      20.687   2.384  52.679  1.00  0.00    -0.025 C 
HETATM    8  C11 UNL     1      21.700   1.438  53.155  1.00  0.00     0.054 C 
HETATM    9  C12 UNL     1      21.758   0.146  52.348  1.00  0.00     0.110 C 
HETATM   10  N2  UNL     1      20.629  -0.280  51.656  1.00  0.00    -0.367 N 
HETATM   11  C14 UNL     1      19.445   0.191  50.976  1.00  0.00     0.139 A 
HETATM   12  N3  UNL     1      18.363  -0.423  51.542  1.00  0.00    -0.224 NA
HETATM   13  C15 UNL     1      17.086  -0.147  51.279  1.00  0.00     0.236 A 
HETATM   14  N4  UNL     1      16.783   0.820  50.381  1.00  0.00    -0.234 NA
HETATM   15  C16 UNL     1      17.896   1.427  49.819  1.00  0.00     0.114 A 
HETATM   16  S1  UNL     1      17.875   2.804  48.583  1.00  0.00    -0.072 SA
HETATM   17  C17 UNL     1      19.717   3.020  48.410  1.00  0.00     0.010 A 
HETATM   18  C18 UNL     1      19.897   1.965  49.348  1.00  0.00    -0.025 A 
HETATM   19  C19 UNL     1      19.213   1.146  50.081  1.00  0.00     0.053 A 
HETATM   20  C20 UNL     1      21.303   1.571  49.347  1.00  0.00     0.060 C 
HETATM   21  C21 UNL     1      22.024   2.112  48.038  1.00  0.00     0.131 C 
HETATM   22  N5  UNL     1      22.049   3.584  48.369  1.00  0.00    -0.343 N 
HETATM   23  C22 UNL     1      20.734   3.841  47.834  1.00  0.00     0.172 C 
HETATM   24  C23 UNL     1      23.060   4.329  48.989  1.00  0.00     0.250 C 
HETATM   25  O2  UNL     1      23.806   3.405  48.664  1.00  0.00    -0.268 OA
HETATM   26  H22 UNL     1      20.694  -1.353  51.589  1.00  0.00     0.161 HD
ENDROOT
BRANCH   1  27
HETATM   27  C3  UNL     1      26.347   4.577  49.276  1.00  0.00     0.299 C 
BRANCH  27  28
HETATM   28  N1  UNL     1      27.161   5.436  48.490  1.00  0.00     0.083 N 
HETATM   29  C1  UNL     1      26.830   6.798  48.799  1.00  0.00     0.309 C 
HETATM   30  C2  UNL     1      28.533   5.105  48.412  1.00  0.00     0.309 C 
ENDBRANCH  27  28
ENDBRANCH   1  27
BRANCH   9  31
HETATM   31  C13 UNL     1      22.378  -0.964  53.199  1.00  0.00     0.189 C 
BRANCH  31  32
HETATM   32  O1  UNL     1      21.456  -1.518  54.049  1.00  0.00    -0.399 OA
HETATM   33  H21 UNL     1      21.551  -2.493  54.053  1.00  0.00     0.209 HD
ENDBRANCH  31  32
ENDBRANCH   9  31
TORSDOF 4
ENDMDL
