MODEL 1
REMARK VINA RESULT:      -7.2      0.000      0.000
REMARK  8 active torsions:
REMARK  status: ('A' for Active; 'I' for Inactive)
REMARK    1  A    between atoms: C3_3  and  O1_4 
REMARK    2  A    between atoms: C4_6  and  C5_7 
REMARK    3  A    between atoms: C5_7  and  N1_8 
REMARK    4  A    between atoms: N1_8  and  C6_9 
REMARK    5  A    between atoms: C6_9  and  C7_10 
REMARK    6  A    between atoms: C7_10  and  C8_11 
REMARK    7  A    between atoms: C8_11  and  C9_12 
REMARK    8  A    between atoms: C9_12  and  C10_13 
ROOT
HETATM    1  N1  UNL     1      25.182   3.288  51.897  1.00  0.00     0.089 N 
HETATM    2  H7  UNL     1      25.824   2.835  51.213  1.00  0.00     0.316 HD
ENDROOT
BRANCH   1   3
HETATM    3  C5  UNL     1      25.073   2.604  53.140  1.00  0.00     0.334 C 
BRANCH   3   4
HETATM    4  C4  UNL     1      25.963   1.427  53.297  1.00  0.00     0.084 C 
HETATM    5  O2  UNL     1      26.933   1.470  54.285  1.00  0.00    -0.290 OA
HETATM    6  C3  UNL     1      28.220   0.911  54.307  1.00  0.00     0.189 C 
HETATM    7  C2  UNL     1      28.555  -0.239  53.707  1.00  0.00    -0.004 C 
HETATM    8  C1  UNL     1      29.958  -0.759  53.784  1.00  0.00     0.053 C 
HETATM    9  C17 UNL     1      27.685  -1.138  52.925  1.00  0.00     0.012 C 
HETATM   10  C16 UNL     1      26.487  -0.902  52.381  1.00  0.00     0.003 C 
HETATM   11  C15 UNL     1      25.784   0.390  52.480  1.00  0.00     0.035 C 
BRANCH   6  12
HETATM   12  O1  UNL     1      29.299   1.509  54.966  1.00  0.00    -0.340 OA
HETATM   13  H4  UNL     1      29.109   2.386  55.419  1.00  0.00     0.220 HD
ENDBRANCH   6  12
ENDBRANCH   3   4
ENDBRANCH   1   3
BRANCH   1  14
HETATM   14  C6  UNL     1      23.957   3.727  51.304  1.00  0.00     0.270 C 
BRANCH  14  15
HETATM   15  C7  UNL     1      23.582   2.708  50.238  1.00  0.00     0.030 C 
BRANCH  15  16
HETATM   16  C8  UNL     1      22.271   2.092  50.580  1.00  0.00     0.004 C 
BRANCH  16  17
HETATM   17  C9  UNL     1      22.270   0.877  51.415  1.00  0.00     0.029 C 
BRANCH  17  18
HETATM   18  C10 UNL     1      21.629   0.865  52.747  1.00  0.00     0.104 A 
HETATM   19  C11 UNL     1      22.448  -0.068  53.642  1.00  0.00    -0.002 A 
HETATM   20  C12 UNL     1      22.187  -1.133  54.374  1.00  0.00    -0.001 A 
HETATM   21  C13 UNL     1      20.770  -1.519  54.322  1.00  0.00     0.016 A 
HETATM   22  C14 UNL     1      19.919  -0.785  53.577  1.00  0.00     0.083 A 
HETATM   23  N2  UNL     1      20.272   0.379  52.804  1.00  0.00    -0.391 N 
HETATM   24  H21 UNL     1      19.340   0.632  52.429  1.00  0.00     0.159 HD
ENDBRANCH  17  18
ENDBRANCH  16  17
ENDBRANCH  15  16
ENDBRANCH  14  15
ENDBRANCH   1  14
TORSDOF 8
ENDMDL
MODEL 2
REMARK VINA RESULT:      -7.0      2.311      5.873
REMARK  8 active torsions:
REMARK  status: ('A' for Active; 'I' for Inactive)
REMARK    1  A    between atoms: C3_3  and  O1_4 
REMARK    2  A    between atoms: C4_6  and  C5_7 
REMARK    3  A    between atoms: C5_7  and  N1_8 
REMARK    4  A    between atoms: N1_8  and  C6_9 
REMARK    5  A    between atoms: C6_9  and  C7_10 
REMARK    6  A    between atoms: C7_10  and  C8_11 
REMARK    7  A    between atoms: C8_11  and  C9_12 
REMARK    8  A    between atoms: C9_12  and  C10_13 
ROOT
HETATM    1  N1  UNL     1      25.132   3.517  51.461  1.00  0.00     0.089 N 
HETATM    2  H7  UNL     1      25.243   3.442  52.494  1.00  0.00     0.316 HD
ENDROOT
BRANCH   1   3
HETATM    3  C5  UNL     1      23.858   3.109  50.976  1.00  0.00     0.334 C 
BRANCH   3   4
HETATM    4  C4  UNL     1      23.007   2.390  51.958  1.00  0.00     0.084 C 
HETATM    5  O2  UNL     1      23.626   1.537  52.856  1.00  0.00    -0.290 OA
HETATM    6  C3  UNL     1      23.167   0.337  53.419  1.00  0.00     0.189 C 
HETATM    7  C2  UNL     1      21.884   0.079  53.706  1.00  0.00    -0.004 C 
HETATM    8  C1  UNL     1      21.486  -1.234  54.308  1.00  0.00     0.053 C 
HETATM    9  C17 UNL     1      20.717   0.960  53.506  1.00  0.00     0.012 C 
HETATM   10  C16 UNL     1      20.599   2.054  52.746  1.00  0.00     0.003 C 
HETATM   11  C15 UNL     1      21.692   2.603  51.924  1.00  0.00     0.035 C 
BRANCH   6  12
HETATM   12  O1  UNL     1      24.015  -0.728  53.742  1.00  0.00    -0.340 OA
HETATM   13  H4  UNL     1      24.933  -0.700  53.335  1.00  0.00     0.220 HD
ENDBRANCH   6  12
ENDBRANCH   3   4
ENDBRANCH   1   3
BRANCH   1  14
HETATM   14  C6  UNL     1      26.270   3.030  50.742  1.00  0.00     0.270 C 
BRANCH  14  15
HETATM   15  C7  UNL     1      26.657   1.696  51.364  1.00  0.00     0.030 C 
BRANCH  15  16
HETATM   16  C8  UNL     1      27.477   1.936  52.583  1.00  0.00     0.004 C 
BRANCH  16  17
HETATM   17  C9  UNL     1      26.961   1.451  53.875  1.00  0.00     0.029 C 
BRANCH  17  18
HETATM   18  C10 UNL     1      27.354   0.129  54.407  1.00  0.00     0.104 A 
HETATM   19  C11 UNL     1      28.883   0.062  54.391  1.00  0.00    -0.002 A 
HETATM   20  C12 UNL     1      29.781  -0.752  53.872  1.00  0.00    -0.001 A 
HETATM   21  C13 UNL     1      29.171  -1.868  53.135  1.00  0.00     0.016 A 
HETATM   22  C14 UNL     1      27.827  -1.949  53.066  1.00  0.00     0.083 A 
HETATM   23  N2  UNL     1      26.899  -1.023  53.667  1.00  0.00    -0.391 N 
HETATM   24  H21 UNL     1      26.004  -1.469  53.397  1.00  0.00     0.159 HD
ENDBRANCH  17  18
ENDBRANCH  16  17
ENDBRANCH  15  16
ENDBRANCH  14  15
ENDBRANCH   1  14
TORSDOF 8
ENDMDL
MODEL 3
REMARK VINA RESULT:      -6.8      3.607      6.632
REMARK  8 active torsions:
REMARK  status: ('A' for Active; 'I' for Inactive)
REMARK    1  A    between atoms: C3_3  and  O1_4 
REMARK    2  A    between atoms: C4_6  and  C5_7 
REMARK    3  A    between atoms: C5_7  and  N1_8 
REMARK    4  A    between atoms: N1_8  and  C6_9 
REMARK    5  A    between atoms: C6_9  and  C7_10 
REMARK    6  A    between atoms: C7_10  and  C8_11 
REMARK    7  A    between atoms: C8_11  and  C9_12 
REMARK    8  A    between atoms: C9_12  and  C10_13 
ROOT
HETATM    1  N1  UNL     1      25.081   3.625  52.254  1.00  0.00     0.089 N 
HETATM    2  H7  UNL     1      25.953   4.045  52.637  1.00  0.00     0.316 HD
ENDROOT
BRANCH   1   3
HETATM    3  C5  UNL     1      24.663   2.436  52.915  1.00  0.00     0.334 C 
BRANCH   3   4
HETATM    4  C4  UNL     1      25.741   1.455  53.196  1.00  0.00     0.084 C 
HETATM    5  O2  UNL     1      26.801   1.861  53.991  1.00  0.00    -0.290 OA
HETATM    6  C3  UNL     1      28.154   1.492  53.943  1.00  0.00     0.189 C 
HETATM    7  C2  UNL     1      28.594   0.282  53.574  1.00  0.00    -0.004 C 
HETATM    8  C1  UNL     1      30.061  -0.022  53.553  1.00  0.00     0.053 C 
HETATM    9  C17 UNL     1      27.793  -0.884  53.156  1.00  0.00     0.012 C 
HETATM   10  C16 UNL     1      26.517  -0.941  52.760  1.00  0.00     0.003 C 
HETATM   11  C15 UNL     1      25.634   0.235  52.671  1.00  0.00     0.035 C 
BRANCH   6  12
HETATM   12  O1  UNL     1      29.194   2.365  54.280  1.00  0.00    -0.340 OA
HETATM   13  H4  UNL     1      29.863   2.555  53.554  1.00  0.00     0.220 HD
ENDBRANCH   6  12
ENDBRANCH   3   4
ENDBRANCH   1   3
BRANCH   1  14
HETATM   14  C6  UNL     1      25.057   3.598  50.824  1.00  0.00     0.270 C 
BRANCH  14  15
HETATM   15  C7  UNL     1      26.489   3.386  50.354  1.00  0.00     0.030 C 
BRANCH  15  16
HETATM   16  C8  UNL     1      26.786   4.317  49.231  1.00  0.00     0.004 C 
BRANCH  16  17
HETATM   17  C9  UNL     1      25.952   5.524  49.090  1.00  0.00     0.029 C 
BRANCH  17  18
HETATM   18  C10 UNL     1      26.560   6.870  49.036  1.00  0.00     0.104 A 
HETATM   19  C11 UNL     1      26.131   7.516  47.716  1.00  0.00    -0.002 A 
HETATM   20  C12 UNL     1      26.757   8.049  46.685  1.00  0.00    -0.001 A 
HETATM   21  C13 UNL     1      28.219   8.021  46.839  1.00  0.00     0.016 A 
HETATM   22  C14 UNL     1      28.750   7.487  47.957  1.00  0.00     0.083 A 
HETATM   23  N2  UNL     1      28.001   6.926  49.055  1.00  0.00    -0.391 N 
HETATM   24  H21 UNL     1      28.781   6.670  49.687  1.00  0.00     0.159 HD
ENDBRANCH  17  18
ENDBRANCH  16  17
ENDBRANCH  15  16
ENDBRANCH  14  15
ENDBRANCH   1  14
TORSDOF 8
ENDMDL
MODEL 4
REMARK VINA RESULT:      -6.6      2.829      6.393
REMARK  8 active torsions:
REMARK  status: ('A' for Active; 'I' for Inactive)
REMARK    1  A    between atoms: C3_3  and  O1_4 
REMARK    2  A    between atoms: C4_6  and  C5_7 
REMARK    3  A    between atoms: C5_7  and  N1_8 
REMARK    4  A    between atoms: N1_8  and  C6_9 
REMARK    5  A    between atoms: C6_9  and  C7_10 
REMARK    6  A    between atoms: C7_10  and  C8_11 
REMARK    7  A    between atoms: C8_11  and  C9_12 
REMARK    8  A    between atoms: C9_12  and  C10_13 
ROOT
HETATM    1  N1  UNL     1      24.899   3.477  52.151  1.00  0.00     0.089 N 
HETATM    2  H7  UNL     1      25.452   2.869  52.791  1.00  0.00     0.316 HD
ENDROOT
BRANCH   1   3
HETATM    3  C5  UNL     1      23.514   3.554  52.466  1.00  0.00     0.334 C 
BRANCH   3   4
HETATM    4  C4  UNL     1      22.797   2.254  52.496  1.00  0.00     0.084 C 
HETATM    5  O2  UNL     1      21.567   2.173  51.865  1.00  0.00    -0.290 OA
HETATM    6  C3  UNL     1      20.434   1.416  52.198  1.00  0.00     0.189 C 
HETATM    7  C2  UNL     1      20.476   0.207  52.774  1.00  0.00    -0.004 C 
HETATM    8  C1  UNL     1      19.211  -0.530  53.094  1.00  0.00     0.053 C 
HETATM    9  C17 UNL     1      21.669  -0.566  53.169  1.00  0.00     0.012 C 
HETATM   10  C16 UNL     1      22.932  -0.157  53.332  1.00  0.00     0.003 C 
HETATM   11  C15 UNL     1      23.374   1.233  53.127  1.00  0.00     0.035 C 
BRANCH   6  12
HETATM   12  O1  UNL     1      19.126   1.854  51.959  1.00  0.00    -0.340 OA
HETATM   13  H4  UNL     1      18.631   1.382  51.223  1.00  0.00     0.220 HD
ENDBRANCH   6  12
ENDBRANCH   3   4
ENDBRANCH   1   3
BRANCH   1  14
HETATM   14  C6  UNL     1      25.227   3.278  50.773  1.00  0.00     0.270 C 
BRANCH  14  15
HETATM   15  C7  UNL     1      26.559   2.543  50.729  1.00  0.00     0.030 C 
BRANCH  15  16
HETATM   16  C8  UNL     1      26.746   1.781  51.994  1.00  0.00     0.004 C 
BRANCH  16  17
HETATM   17  C9  UNL     1      26.729   0.309  51.928  1.00  0.00     0.029 C 
BRANCH  17  18
HETATM   18  C10 UNL     1      27.138  -0.513  53.087  1.00  0.00     0.104 A 
HETATM   19  C11 UNL     1      28.558  -0.092  53.471  1.00  0.00    -0.002 A 
HETATM   20  C12 UNL     1      29.713  -0.711  53.620  1.00  0.00    -0.001 A 
HETATM   21  C13 UNL     1      29.615  -2.154  53.359  1.00  0.00     0.016 A 
HETATM   22  C14 UNL     1      28.422  -2.678  53.015  1.00  0.00     0.083 A 
HETATM   23  N2  UNL     1      27.191  -1.939  52.877  1.00  0.00    -0.391 N 
HETATM   24  H21 UNL     1      26.546  -2.714  52.638  1.00  0.00     0.159 HD
ENDBRANCH  17  18
ENDBRANCH  16  17
ENDBRANCH  15  16
ENDBRANCH  14  15
ENDBRANCH   1  14
TORSDOF 8
ENDMDL
MODEL 5
REMARK VINA RESULT:      -6.6      3.810      6.577
REMARK  8 active torsions:
REMARK  status: ('A' for Active; 'I' for Inactive)
REMARK    1  A    between atoms: C3_3  and  O1_4 
REMARK    2  A    between atoms: C4_6  and  C5_7 
REMARK    3  A    between atoms: C5_7  and  N1_8 
REMARK    4  A    between atoms: N1_8  and  C6_9 
REMARK    5  A    between atoms: C6_9  and  C7_10 
REMARK    6  A    between atoms: C7_10  and  C8_11 
REMARK    7  A    between atoms: C8_11  and  C9_12 
REMARK    8  A    between atoms: C9_12  and  C10_13 
ROOT
HETATM    1  N1  UNL     1      25.447   3.463  51.591  1.00  0.00     0.089 N 
HETATM    2  H7  UNL     1      25.980   4.311  51.874  1.00  0.00     0.316 HD
ENDROOT
BRANCH   1   3
HETATM    3  C5  UNL     1      25.404   3.238  50.187  1.00  0.00     0.334 C 
BRANCH   3   4
HETATM    4  C4  UNL     1      25.856   4.377  49.349  1.00  0.00     0.084 C 
HETATM    5  O2  UNL     1      27.162   4.370  48.887  1.00  0.00    -0.290 OA
HETATM    6  C3  UNL     1      28.042   5.438  48.658  1.00  0.00     0.189 C 
HETATM    7  C2  UNL     1      27.661   6.655  48.247  1.00  0.00    -0.004 C 
HETATM    8  C1  UNL     1      28.673   7.738  48.029  1.00  0.00     0.053 C 
HETATM    9  C17 UNL     1      26.293   7.125  47.954  1.00  0.00     0.012 C 
HETATM   10  C16 UNL     1      25.118   6.588  48.299  1.00  0.00     0.003 C 
HETATM   11  C15 UNL     1      24.983   5.348  49.083  1.00  0.00     0.035 C 
BRANCH   6  12
HETATM   12  O1  UNL     1      29.426   5.339  48.840  1.00  0.00    -0.340 OA
HETATM   13  H4  UNL     1      29.992   5.566  48.042  1.00  0.00     0.220 HD
ENDBRANCH   6  12
ENDBRANCH   3   4
ENDBRANCH   1   3
BRANCH   1  14
HETATM   14  C6  UNL     1      24.208   3.324  52.294  1.00  0.00     0.270 C 
BRANCH  14  15
HETATM   15  C7  UNL     1      23.970   1.834  52.493  1.00  0.00     0.030 C 
BRANCH  15  16
HETATM   16  C8  UNL     1      25.138   1.234  53.194  1.00  0.00     0.004 C 
BRANCH  16  17
HETATM   17  C9  UNL     1      25.502  -0.158  52.874  1.00  0.00     0.029 C 
BRANCH  17  18
HETATM   18  C10 UNL     1      26.444  -0.917  53.723  1.00  0.00     0.104 A 
HETATM   19  C11 UNL     1      27.192   0.094  54.596  1.00  0.00    -0.002 A 
HETATM   20  C12 UNL     1      28.459   0.390  54.813  1.00  0.00    -0.001 A 
HETATM   21  C13 UNL     1      29.375  -0.455  54.035  1.00  0.00     0.016 A 
HETATM   22  C14 UNL     1      28.863  -1.401  53.222  1.00  0.00     0.083 A 
HETATM   23  N2  UNL     1      27.460  -1.676  53.037  1.00  0.00    -0.391 N 
HETATM   24  H21 UNL     1      27.521  -2.469  52.373  1.00  0.00     0.159 HD
ENDBRANCH  17  18
ENDBRANCH  16  17
ENDBRANCH  15  16
ENDBRANCH  14  15
ENDBRANCH   1  14
TORSDOF 8
ENDMDL
MODEL 6
REMARK VINA RESULT:      -6.5      4.227      6.408
REMARK  8 active torsions:
REMARK  status: ('A' for Active; 'I' for Inactive)
REMARK    1  A    between atoms: C3_3  and  O1_4 
REMARK    2  A    between atoms: C4_6  and  C5_7 
REMARK    3  A    between atoms: C5_7  and  N1_8 
REMARK    4  A    between atoms: N1_8  and  C6_9 
REMARK    5  A    between atoms: C6_9  and  C7_10 
REMARK    6  A    between atoms: C7_10  and  C8_11 
REMARK    7  A    between atoms: C8_11  and  C9_12 
REMARK    8  A    between atoms: C9_12  and  C10_13 
ROOT
HETATM    1  N1  UNL     1      24.203   5.316  51.905  1.00  0.00     0.089 N 
HETATM    2  H7  UNL     1      24.122   6.017  52.671  1.00  0.00     0.316 HD
ENDROOT
BRANCH   1   3
HETATM    3  C5  UNL     1      24.218   5.877  50.597  1.00  0.00     0.334 C 
BRANCH   3   4
HETATM    4  C4  UNL     1      25.561   5.996  49.974  1.00  0.00     0.084 C 
HETATM    5  O2  UNL     1      26.175   7.238  49.981  1.00  0.00    -0.290 OA
HETATM    6  C3  UNL     1      27.030   7.823  49.036  1.00  0.00     0.189 C 
HETATM    7  C2  UNL     1      27.901   7.141  48.280  1.00  0.00    -0.004 C 
HETATM    8  C1  UNL     1      28.776   7.853  47.294  1.00  0.00     0.053 C 
HETATM    9  C17 UNL     1      28.148   5.686  48.274  1.00  0.00     0.012 C 
HETATM   10  C16 UNL     1      27.397   4.694  48.764  1.00  0.00     0.003 C 
HETATM   11  C15 UNL     1      26.106   4.903  49.442  1.00  0.00     0.035 C 
BRANCH   6  12
HETATM   12  O1  UNL     1      27.059   9.199  48.782  1.00  0.00    -0.340 OA
HETATM   13  H4  UNL     1      26.879   9.796  49.569  1.00  0.00     0.220 HD
ENDBRANCH   6  12
ENDBRANCH   3   4
ENDBRANCH   1   3
BRANCH   1  14
HETATM   14  C6  UNL     1      23.356   4.179  52.098  1.00  0.00     0.270 C 
BRANCH  14  15
HETATM   15  C7  UNL     1      24.198   3.100  52.763  1.00  0.00     0.030 C 
BRANCH  15  16
HETATM   16  C8  UNL     1      25.020   2.408  51.734  1.00  0.00     0.004 C 
BRANCH  16  17
HETATM   17  C9  UNL     1      26.487   2.456  51.867  1.00  0.00     0.029 C 
BRANCH  17  18
HETATM   18  C10 UNL     1      27.214   1.455  52.678  1.00  0.00     0.104 A 
HETATM   19  C11 UNL     1      26.741   0.070  52.230  1.00  0.00    -0.002 A 
HETATM   20  C12 UNL     1      26.215  -0.981  52.828  1.00  0.00    -0.001 A 
HETATM   21  C13 UNL     1      26.043  -0.777  54.274  1.00  0.00     0.016 A 
HETATM   22  C14 UNL     1      26.421   0.396  54.820  1.00  0.00     0.083 A 
HETATM   23  N2  UNL     1      27.000   1.505  54.104  1.00  0.00    -0.391 N 
HETATM   24  H21 UNL     1      27.157   2.161  54.890  1.00  0.00     0.159 HD
ENDBRANCH  17  18
ENDBRANCH  16  17
ENDBRANCH  15  16
ENDBRANCH  14  15
ENDBRANCH   1  14
TORSDOF 8
ENDMDL
MODEL 7
REMARK VINA RESULT:      -6.5      1.905      3.390
REMARK  8 active torsions:
REMARK  status: ('A' for Active; 'I' for Inactive)
REMARK    1  A    between atoms: C3_3  and  O1_4 
REMARK    2  A    between atoms: C4_6  and  C5_7 
REMARK    3  A    between atoms: C5_7  and  N1_8 
REMARK    4  A    between atoms: N1_8  and  C6_9 
REMARK    5  A    between atoms: C6_9  and  C7_10 
REMARK    6  A    between atoms: C7_10  and  C8_11 
REMARK    7  A    between atoms: C8_11  and  C9_12 
REMARK    8  A    between atoms: C9_12  and  C10_13 
ROOT
HETATM    1  N1  UNL     1      24.446   2.496  51.719  1.00  0.00     0.089 N 
HETATM    2  H7  UNL     1      24.522   1.613  51.173  1.00  0.00     0.316 HD
ENDROOT
BRANCH   1   3
HETATM    3  C5  UNL     1      24.997   2.426  53.029  1.00  0.00     0.334 C 
BRANCH   3   4
HETATM    4  C4  UNL     1      25.968   1.325  53.249  1.00  0.00     0.084 C 
HETATM    5  O2  UNL     1      26.984   1.526  54.170  1.00  0.00    -0.290 OA
HETATM    6  C3  UNL     1      28.303   1.049  54.172  1.00  0.00     0.189 C 
HETATM    7  C2  UNL     1      28.679  -0.135  53.671  1.00  0.00    -0.004 C 
HETATM    8  C1  UNL     1      30.115  -0.561  53.717  1.00  0.00     0.053 C 
HETATM    9  C17 UNL     1      27.830  -1.159  53.034  1.00  0.00     0.012 C 
HETATM   10  C16 UNL     1      26.592  -1.050  52.540  1.00  0.00     0.003 C 
HETATM   11  C15 UNL     1      25.814   0.201  52.551  1.00  0.00     0.035 C 
BRANCH   6  12
HETATM   12  O1  UNL     1      29.375   1.774  54.705  1.00  0.00    -0.340 OA
HETATM   13  H4  UNL     1      29.191   2.737  54.922  1.00  0.00     0.220 HD
ENDBRANCH   6  12
ENDBRANCH   3   4
ENDBRANCH   1   3
BRANCH   1  14
HETATM   14  C6  UNL     1      23.161   3.115  51.603  1.00  0.00     0.270 C 
BRANCH  14  15
HETATM   15  C7  UNL     1      22.141   2.140  52.173  1.00  0.00     0.030 C 
BRANCH  15  16
HETATM   16  C8  UNL     1      22.041   0.950  51.284  1.00  0.00     0.004 C 
BRANCH  16  17
HETATM   17  C9  UNL     1      20.765   0.708  50.587  1.00  0.00     0.029 C 
BRANCH  17  18
HETATM   18  C10 UNL     1      20.464   1.362  49.296  1.00  0.00     0.104 A 
HETATM   19  C11 UNL     1      21.733   1.300  48.442  1.00  0.00    -0.002 A 
HETATM   20  C12 UNL     1      22.489   2.183  47.820  1.00  0.00    -0.001 A 
HETATM   21  C13 UNL     1      21.994   3.558  47.978  1.00  0.00     0.016 A 
HETATM   22  C14 UNL     1      20.877   3.774  48.701  1.00  0.00     0.083 A 
HETATM   23  N2  UNL     1      20.091   2.754  49.352  1.00  0.00    -0.391 N 
HETATM   24  H21 UNL     1      19.337   3.342  49.751  1.00  0.00     0.159 HD
ENDBRANCH  17  18
ENDBRANCH  16  17
ENDBRANCH  15  16
ENDBRANCH  14  15
ENDBRANCH   1  14
TORSDOF 8
ENDMDL
MODEL 8
REMARK VINA RESULT:      -6.4      3.758      6.751
REMARK  8 active torsions:
REMARK  status: ('A' for Active; 'I' for Inactive)
REMARK    1  A    between atoms: C3_3  and  O1_4 
REMARK    2  A    between atoms: C4_6  and  C5_7 
REMARK    3  A    between atoms: C5_7  and  N1_8 
REMARK    4  A    between atoms: N1_8  and  C6_9 
REMARK    5  A    between atoms: C6_9  and  C7_10 
REMARK    6  A    between atoms: C7_10  and  C8_11 
REMARK    7  A    between atoms: C8_11  and  C9_12 
REMARK    8  A    between atoms: C9_12  and  C10_13 
ROOT
HETATM    1  N1  UNL     1      24.437   2.939  51.879  1.00  0.00     0.089 N 
HETATM    2  H7  UNL     1      24.250   3.260  52.852  1.00  0.00     0.316 HD
ENDROOT
BRANCH   1   3
HETATM    3  C5  UNL     1      24.067   3.874  50.872  1.00  0.00     0.334 C 
BRANCH   3   4
HETATM    4  C4  UNL     1      25.195   4.605  50.241  1.00  0.00     0.084 C 
HETATM    5  O2  UNL     1      25.200   5.988  50.317  1.00  0.00    -0.290 OA
HETATM    6  C3  UNL     1      25.673   6.937  49.398  1.00  0.00     0.189 C 
HETATM    7  C2  UNL     1      26.726   6.748  48.591  1.00  0.00    -0.004 C 
HETATM    8  C1  UNL     1      27.159   7.820  47.639  1.00  0.00     0.053 C 
HETATM    9  C17 UNL     1      27.586   5.554  48.491  1.00  0.00     0.012 C 
HETATM   10  C16 UNL     1      27.368   4.309  48.928  1.00  0.00     0.003 C 
HETATM   11  C15 UNL     1      26.144   3.893  49.635  1.00  0.00     0.035 C 
BRANCH   6  12
HETATM   12  O1  UNL     1      25.084   8.195  49.230  1.00  0.00    -0.340 OA
HETATM   13  H4  UNL     1      25.392   8.914  49.860  1.00  0.00     0.220 HD
ENDBRANCH   6  12
ENDBRANCH   3   4
ENDBRANCH   1   3
BRANCH   1  14
HETATM   14  C6  UNL     1      24.049   1.580  51.657  1.00  0.00     0.270 C 
BRANCH  14  15
HETATM   15  C7  UNL     1      23.714   0.981  53.015  1.00  0.00     0.030 C 
BRANCH  15  16
HETATM   16  C8  UNL     1      24.536  -0.240  53.235  1.00  0.00     0.004 C 
BRANCH  16  17
HETATM   17  C9  UNL     1      25.963  -0.193  52.866  1.00  0.00     0.029 C 
BRANCH  17  18
HETATM   18  C10 UNL     1      27.016  -0.542  53.842  1.00  0.00     0.104 A 
HETATM   19  C11 UNL     1      27.880   0.705  54.052  1.00  0.00    -0.002 A 
HETATM   20  C12 UNL     1      29.164   0.985  53.947  1.00  0.00    -0.001 A 
HETATM   21  C13 UNL     1      29.962  -0.178  53.534  1.00  0.00     0.016 A 
HETATM   22  C14 UNL     1      29.341  -1.355  53.317  1.00  0.00     0.083 A 
HETATM   23  N2  UNL     1      27.926  -1.594  53.458  1.00  0.00    -0.391 N 
HETATM   24  H21 UNL     1      27.894  -2.604  53.230  1.00  0.00     0.159 HD
ENDBRANCH  17  18
ENDBRANCH  16  17
ENDBRANCH  15  16
ENDBRANCH  14  15
ENDBRANCH   1  14
TORSDOF 8
ENDMDL
MODEL 9
REMARK VINA RESULT:      -6.2      2.217      4.797
REMARK  8 active torsions:
REMARK  status: ('A' for Active; 'I' for Inactive)
REMARK    1  A    between atoms: C3_3  and  O1_4 
REMARK    2  A    between atoms: C4_6  and  C5_7 
REMARK    3  A    between atoms: C5_7  and  N1_8 
REMARK    4  A    between atoms: N1_8  and  C6_9 
REMARK    5  A    between atoms: C6_9  and  C7_10 
REMARK    6  A    between atoms: C7_10  and  C8_11 
REMARK    7  A    between atoms: C8_11  and  C9_12 
REMARK    8  A    between atoms: C9_12  and  C10_13 
ROOT
HETATM    1  N1  UNL     1      23.219   0.636  52.336  1.00  0.00     0.089 N 
HETATM    2  H7  UNL     1      22.944  -0.050  51.603  1.00  0.00     0.316 HD
ENDROOT
BRANCH   1   3
HETATM    3  C5  UNL     1      23.982   0.082  53.401  1.00  0.00     0.334 C 
BRANCH   3   4
HETATM    4  C4  UNL     1      25.455   0.166  53.237  1.00  0.00     0.084 C 
HETATM    5  O2  UNL     1      26.118  -0.934  52.718  1.00  0.00    -0.290 OA
HETATM    6  C3  UNL     1      27.403  -1.423  52.995  1.00  0.00     0.189 C 
HETATM    7  C2  UNL     1      28.452  -0.653  53.312  1.00  0.00    -0.004 C 
HETATM    8  C1  UNL     1      29.791  -1.265  53.593  1.00  0.00     0.053 C 
HETATM    9  C17 UNL     1      28.492   0.817  53.434  1.00  0.00     0.012 C 
HETATM   10  C16 UNL     1      27.484   1.687  53.559  1.00  0.00     0.003 C 
HETATM   11  C15 UNL     1      26.064   1.295  53.596  1.00  0.00     0.035 C 
BRANCH   6  12
HETATM   12  O1  UNL     1      27.723  -2.785  52.968  1.00  0.00    -0.340 OA
HETATM   13  H4  UNL     1      27.076  -3.399  53.429  1.00  0.00     0.220 HD
ENDBRANCH   6  12
ENDBRANCH   3   4
ENDBRANCH   1   3
BRANCH   1  14
HETATM   14  C6  UNL     1      22.151   1.511  52.709  1.00  0.00     0.270 C 
BRANCH  14  15
HETATM   15  C7  UNL     1      21.388   1.856  51.438  1.00  0.00     0.030 C 
BRANCH  15  16
HETATM   16  C8  UNL     1      22.353   2.092  50.329  1.00  0.00     0.004 C 
BRANCH  16  17
HETATM   17  C9  UNL     1      22.760   3.480  50.046  1.00  0.00     0.029 C 
BRANCH  17  18
HETATM   18  C10 UNL     1      23.741   3.787  48.983  1.00  0.00     0.104 A 
HETATM   19  C11 UNL     1      25.113   3.321  49.476  1.00  0.00    -0.002 A 
HETATM   20  C12 UNL     1      26.293   3.887  49.642  1.00  0.00    -0.001 A 
HETATM   21  C13 UNL     1      26.294   5.306  49.259  1.00  0.00     0.016 A 
HETATM   22  C14 UNL     1      25.156   5.861  48.798  1.00  0.00     0.083 A 
HETATM   23  N2  UNL     1      23.897   5.178  48.634  1.00  0.00    -0.391 N 
HETATM   24  H21 UNL     1      23.327   5.948  48.241  1.00  0.00     0.159 HD
ENDBRANCH  17  18
ENDBRANCH  16  17
ENDBRANCH  15  16
ENDBRANCH  14  15
ENDBRANCH   1  14
TORSDOF 8
ENDMDL
