MODEL 1
REMARK VINA RESULT:      -8.5      0.000      0.000
REMARK  3 active torsions:
REMARK  status: ('A' for Active; 'I' for Inactive)
REMARK    1  A    between atoms: N1_8  and  N2_9 
REMARK    2  A    between atoms: N2_9  and  C8_10 
REMARK    3  A    between atoms: C8_10  and  N3_11 
ROOT
HETATM    1  C1  UNL     1      21.400   0.163  51.316  1.00  0.00     0.015 C 
HETATM    2  C2  UNL     1      21.115   1.088  52.483  1.00  0.00     0.020 C 
HETATM    3  C3  UNL     1      21.311   0.274  53.722  1.00  0.00     0.007 C 
HETATM    4  C4  UNL     1      21.812  -0.454  54.698  1.00  0.00     0.021 C 
HETATM    5  C5  UNL     1      23.142  -1.036  55.105  1.00  0.00    -0.019 C 
HETATM    6  C6  UNL     1      24.460  -1.258  54.930  1.00  0.00     0.026 C 
HETATM    7  C7  UNL     1      25.132  -0.690  53.741  1.00  0.00     0.063 C 
HETATM    8  N1  UNL     1      26.328  -1.093  53.650  1.00  0.00    -0.177 NA
HETATM    9  C9  UNL     1      25.014   0.350  52.669  1.00  0.00     0.076 C 
HETATM   10  C10 UNL     1      24.366   1.417  52.153  1.00  0.00    -0.003 C 
HETATM   11  C11 UNL     1      23.277   2.427  52.200  1.00  0.00    -0.033 A 
HETATM   12  C12 UNL     1      23.916   3.639  52.079  1.00  0.00     0.011 A 
HETATM   13  C13 UNL     1      23.240   4.857  52.104  1.00  0.00     0.001 A 
HETATM   14  C14 UNL     1      21.882   4.702  52.261  1.00  0.00     0.001 A 
HETATM   15  C15 UNL     1      21.260   3.487  52.380  1.00  0.00     0.008 A 
HETATM   16  C16 UNL     1      21.928   2.281  52.355  1.00  0.00    -0.044 A 
ENDROOT
BRANCH   8  17
HETATM   17  N2  UNL     1      27.326  -0.861  52.760  1.00  0.00    -0.253 N 
HETATM   18  H9  UNL     1      27.460  -0.280  51.905  1.00  0.00     0.191 HD
BRANCH  17  19
HETATM   19  C8  UNL     1      28.440  -1.651  53.175  1.00  0.00     0.185 C 
HETATM   20  S1  UNL     1      29.831  -1.001  53.704  1.00  0.00    -0.040 SA
BRANCH  19  21
HETATM   21  N3  UNL     1      28.406  -3.073  53.149  1.00  0.00    -0.375 N 
HETATM   22  H10 UNL     1      29.144  -3.724  53.489  1.00  0.00     0.158 HD
HETATM   23  H11 UNL     1      27.466  -3.277  52.710  1.00  0.00     0.158 HD
ENDBRANCH  19  21
ENDBRANCH  17  19
ENDBRANCH   8  17
TORSDOF 3
ENDMDL
MODEL 2
REMARK VINA RESULT:      -8.2      3.129      4.538
REMARK  3 active torsions:
REMARK  status: ('A' for Active; 'I' for Inactive)
REMARK    1  A    between atoms: N1_8  and  N2_9 
REMARK    2  A    between atoms: N2_9  and  C8_10 
REMARK    3  A    between atoms: C8_10  and  N3_11 
ROOT
HETATM    1  C1  UNL     1      23.406   3.725  48.865  1.00  0.00     0.015 C 
HETATM    2  C2  UNL     1      23.905   5.018  49.482  1.00  0.00     0.020 C 
HETATM    3  C3  UNL     1      23.575   4.942  50.938  1.00  0.00     0.007 C 
HETATM    4  C4  UNL     1      23.510   4.610  52.212  1.00  0.00     0.021 C 
HETATM    5  C5  UNL     1      24.111   3.590  53.145  1.00  0.00    -0.019 C 
HETATM    6  C6  UNL     1      24.910   2.541  53.424  1.00  0.00     0.026 C 
HETATM    7  C7  UNL     1      25.709   1.937  52.336  1.00  0.00     0.063 C 
HETATM    8  N1  UNL     1      26.301   0.888  52.724  1.00  0.00    -0.177 NA
HETATM    9  C9  UNL     1      26.260   2.182  50.964  1.00  0.00     0.076 C 
HETATM   10  C10 UNL     1      26.479   3.029  49.935  1.00  0.00    -0.003 C 
HETATM   11  C11 UNL     1      26.375   4.373  49.309  1.00  0.00    -0.033 A 
HETATM   12  C12 UNL     1      27.658   4.681  48.921  1.00  0.00     0.011 A 
HETATM   13  C13 UNL     1      27.995   5.887  48.309  1.00  0.00     0.001 A 
HETATM   14  C14 UNL     1      26.909   6.715  48.144  1.00  0.00     0.001 A 
HETATM   15  C15 UNL     1      25.636   6.393  48.536  1.00  0.00     0.008 A 
HETATM   16  C16 UNL     1      25.301   5.200  49.142  1.00  0.00    -0.044 A 
ENDROOT
BRANCH   8  17
HETATM   17  N2  UNL     1      27.129   0.004  52.113  1.00  0.00    -0.253 N 
HETATM   18  H9  UNL     1      27.375  -0.253  51.133  1.00  0.00     0.191 HD
BRANCH  17  19
HETATM   19  C8  UNL     1      27.797  -0.718  53.148  1.00  0.00     0.185 C 
HETATM   20  S1  UNL     1      28.537   0.015  54.394  1.00  0.00    -0.040 SA
BRANCH  19  21
HETATM   21  N3  UNL     1      27.861  -2.138  53.154  1.00  0.00    -0.375 N 
HETATM   22  H10 UNL     1      27.402  -2.783  53.830  1.00  0.00     0.158 HD
HETATM   23  H11 UNL     1      28.476  -2.349  52.320  1.00  0.00     0.158 HD
ENDBRANCH  19  21
ENDBRANCH  17  19
ENDBRANCH   8  17
TORSDOF 3
ENDMDL
MODEL 3
REMARK VINA RESULT:      -7.7      2.117      4.184
REMARK  3 active torsions:
REMARK  status: ('A' for Active; 'I' for Inactive)
REMARK    1  A    between atoms: N1_8  and  N2_9 
REMARK    2  A    between atoms: N2_9  and  C8_10 
REMARK    3  A    between atoms: C8_10  and  N3_11 
ROOT
HETATM    1  C1  UNL     1      22.427   4.484  52.355  1.00  0.00     0.015 C 
HETATM    2  C2  UNL     1      22.008   3.430  51.348  1.00  0.00     0.020 C 
HETATM    3  C3  UNL     1      22.970   3.535  50.208  1.00  0.00     0.007 C 
HETATM    4  C4  UNL     1      24.046   3.528  49.448  1.00  0.00     0.021 C 
HETATM    5  C5  UNL     1      25.520   3.237  49.579  1.00  0.00    -0.019 C 
HETATM    6  C6  UNL     1      26.616   2.880  50.277  1.00  0.00     0.026 C 
HETATM    7  C7  UNL     1      26.480   2.559  51.714  1.00  0.00     0.063 C 
HETATM    8  N1  UNL     1      27.608   2.372  52.255  1.00  0.00    -0.177 NA
HETATM    9  C9  UNL     1      25.495   2.174  52.777  1.00  0.00     0.076 C 
HETATM   10  C10 UNL     1      24.244   1.803  53.120  1.00  0.00    -0.003 C 
HETATM   11  C11 UNL     1      22.840   1.467  52.763  1.00  0.00    -0.033 A 
HETATM   12  C12 UNL     1      22.612   0.243  53.345  1.00  0.00     0.011 A 
HETATM   13  C13 UNL     1      21.403  -0.440  53.222  1.00  0.00     0.001 A 
HETATM   14  C14 UNL     1      20.485   0.247  52.462  1.00  0.00     0.001 A 
HETATM   15  C15 UNL     1      20.728   1.467  51.888  1.00  0.00     0.008 A 
HETATM   16  C16 UNL     1      21.924   2.144  52.009  1.00  0.00    -0.044 A 
ENDROOT
BRANCH   8  17
HETATM   17  N2  UNL     1      27.997   2.061  53.517  1.00  0.00    -0.253 N 
HETATM   18  H9  UNL     1      27.910   2.486  54.465  1.00  0.00     0.191 HD
BRANCH  17  19
HETATM   19  C8  UNL     1      28.698   0.820  53.438  1.00  0.00     0.185 C 
HETATM   20  S1  UNL     1      27.941  -0.611  53.306  1.00  0.00    -0.040 SA
BRANCH  19  21
HETATM   21  N3  UNL     1      30.119   0.754  53.471  1.00  0.00    -0.375 N 
HETATM   22  H10 UNL     1      30.770   0.860  52.666  1.00  0.00     0.158 HD
HETATM   23  H11 UNL     1      30.322   0.576  54.493  1.00  0.00     0.158 HD
ENDBRANCH  19  21
ENDBRANCH  17  19
ENDBRANCH   8  17
TORSDOF 3
ENDMDL
MODEL 4
REMARK VINA RESULT:      -7.6      4.033      5.997
REMARK  3 active torsions:
REMARK  status: ('A' for Active; 'I' for Inactive)
REMARK    1  A    between atoms: N1_8  and  N2_9 
REMARK    2  A    between atoms: N2_9  and  C8_10 
REMARK    3  A    between atoms: C8_10  and  N3_11 
ROOT
HETATM    1  C1  UNL     1      20.551   2.309  52.671  1.00  0.00     0.015 C 
HETATM    2  C2  UNL     1      20.876   0.902  52.205  1.00  0.00     0.020 C 
HETATM    3  C3  UNL     1      20.921   0.955  50.711  1.00  0.00     0.007 C 
HETATM    4  C4  UNL     1      21.231   1.213  49.456  1.00  0.00     0.021 C 
HETATM    5  C5  UNL     1      22.247   2.017  48.687  1.00  0.00    -0.019 C 
HETATM    6  C6  UNL     1      23.304   2.849  48.600  1.00  0.00     0.026 C 
HETATM    7  C7  UNL     1      23.942   3.333  49.843  1.00  0.00     0.063 C 
HETATM    8  N1  UNL     1      24.829   4.203  49.599  1.00  0.00    -0.177 NA
HETATM    9  C9  UNL     1      24.088   3.062  51.309  1.00  0.00     0.076 C 
HETATM   10  C10 UNL     1      23.865   2.255  52.369  1.00  0.00    -0.003 C 
HETATM   11  C11 UNL     1      23.318   1.007  52.963  1.00  0.00    -0.033 A 
HETATM   12  C12 UNL     1      24.371   0.454  53.652  1.00  0.00     0.011 A 
HETATM   13  C13 UNL     1      24.277  -0.755  54.338  1.00  0.00     0.001 A 
HETATM   14  C14 UNL     1      23.024  -1.316  54.244  1.00  0.00     0.001 A 
HETATM   15  C15 UNL     1      21.984  -0.753  53.553  1.00  0.00     0.008 A 
HETATM   16  C16 UNL     1      22.077   0.444  52.874  1.00  0.00    -0.044 A 
ENDROOT
BRANCH   8  17
HETATM   17  N2  UNL     1      25.668   4.924  50.384  1.00  0.00    -0.253 N 
HETATM   18  H9  UNL     1      26.312   4.734  51.181  1.00  0.00     0.191 HD
BRANCH  17  19
HETATM   19  C8  UNL     1      25.590   6.278  49.935  1.00  0.00     0.185 C 
HETATM   20  S1  UNL     1      24.958   6.692  48.498  1.00  0.00    -0.040 SA
BRANCH  19  21
HETATM   21  N3  UNL     1      26.066   7.360  50.725  1.00  0.00    -0.375 N 
HETATM   22  H10 UNL     1      27.056   7.572  50.966  1.00  0.00     0.158 HD
HETATM   23  H11 UNL     1      25.177   7.868  50.988  1.00  0.00     0.158 HD
ENDBRANCH  19  21
ENDBRANCH  17  19
ENDBRANCH   8  17
TORSDOF 3
ENDMDL
MODEL 5
REMARK VINA RESULT:      -6.9      4.609      6.855
REMARK  3 active torsions:
REMARK  status: ('A' for Active; 'I' for Inactive)
REMARK    1  A    between atoms: N1_8  and  N2_9 
REMARK    2  A    between atoms: N2_9  and  C8_10 
REMARK    3  A    between atoms: C8_10  and  N3_11 
ROOT
HETATM    1  C1  UNL     1      25.611   0.432  52.030  1.00  0.00     0.015 C 
HETATM    2  C2  UNL     1      25.066   0.816  53.392  1.00  0.00     0.020 C 
HETATM    3  C3  UNL     1      24.829   2.291  53.349  1.00  0.00     0.007 C 
HETATM    4  C4  UNL     1      24.386   3.500  53.070  1.00  0.00     0.021 C 
HETATM    5  C5  UNL     1      23.377   4.150  52.158  1.00  0.00    -0.019 C 
HETATM    6  C6  UNL     1      22.421   4.120  51.208  1.00  0.00     0.026 C 
HETATM    7  C7  UNL     1      22.015   2.817  50.640  1.00  0.00     0.063 C 
HETATM    8  N1  UNL     1      21.211   2.964  49.674  1.00  0.00    -0.177 NA
HETATM    9  C9  UNL     1      22.035   1.337  50.877  1.00  0.00     0.076 C 
HETATM   10  C10 UNL     1      22.302   0.296  51.694  1.00  0.00    -0.003 C 
HETATM   11  C11 UNL     1      22.775  -0.253  52.992  1.00  0.00    -0.033 A 
HETATM   12  C12 UNL     1      21.766  -1.089  53.409  1.00  0.00     0.011 A 
HETATM   13  C13 UNL     1      21.811  -1.787  54.614  1.00  0.00     0.001 A 
HETATM   14  C14 UNL     1      22.966  -1.544  55.321  1.00  0.00     0.001 A 
HETATM   15  C15 UNL     1      23.963  -0.708  54.891  1.00  0.00     0.008 A 
HETATM   16  C16 UNL     1      23.920  -0.017  53.699  1.00  0.00    -0.044 A 
ENDROOT
BRANCH   8  17
HETATM   17  N2  UNL     1      20.573   2.095  48.851  1.00  0.00    -0.253 N 
HETATM   18  H9  UNL     1      20.298   1.089  48.874  1.00  0.00     0.191 HD
BRANCH  17  19
HETATM   19  C8  UNL     1      20.220   2.824  47.675  1.00  0.00     0.185 C 
HETATM   20  S1  UNL     1      21.283   3.740  46.856  1.00  0.00    -0.040 SA
BRANCH  19  21
HETATM   21  N3  UNL     1      18.902   2.798  47.140  1.00  0.00    -0.375 N 
HETATM   22  H10 UNL     1      18.145   2.123  47.373  1.00  0.00     0.158 HD
HETATM   23  H11 UNL     1      18.904   3.617  46.471  1.00  0.00     0.158 HD
ENDBRANCH  19  21
ENDBRANCH  17  19
ENDBRANCH   8  17
TORSDOF 3
ENDMDL
MODEL 6
REMARK VINA RESULT:      -6.8      2.936      4.956
REMARK  3 active torsions:
REMARK  status: ('A' for Active; 'I' for Inactive)
REMARK    1  A    between atoms: N1_8  and  N2_9 
REMARK    2  A    between atoms: N2_9  and  C8_10 
REMARK    3  A    between atoms: C8_10  and  N3_11 
ROOT
HETATM    1  C1  UNL     1      19.257   3.721  51.357  1.00  0.00     0.015 C 
HETATM    2  C2  UNL     1      19.195   2.394  50.624  1.00  0.00     0.020 C 
HETATM    3  C3  UNL     1      20.252   2.448  49.568  1.00  0.00     0.007 C 
HETATM    4  C4  UNL     1      21.395   2.512  48.915  1.00  0.00     0.021 C 
HETATM    5  C5  UNL     1      22.867   2.607  49.223  1.00  0.00    -0.019 C 
HETATM    6  C6  UNL     1      23.916   2.684  50.066  1.00  0.00     0.026 C 
HETATM    7  C7  UNL     1      23.666   2.685  51.524  1.00  0.00     0.063 C 
HETATM    8  N1  UNL     1      24.731   2.895  52.175  1.00  0.00    -0.177 NA
HETATM    9  C9  UNL     1      22.655   2.343  52.575  1.00  0.00     0.076 C 
HETATM   10  C10 UNL     1      21.473   1.785  52.911  1.00  0.00    -0.003 C 
HETATM   11  C11 UNL     1      20.225   1.062  52.551  1.00  0.00    -0.033 A 
HETATM   12  C12 UNL     1      20.179  -0.011  53.409  1.00  0.00     0.011 A 
HETATM   13  C13 UNL     1      19.163  -0.964  53.378  1.00  0.00     0.001 A 
HETATM   14  C14 UNL     1      18.228  -0.703  52.403  1.00  0.00     0.001 A 
HETATM   15  C15 UNL     1      18.287   0.371  51.555  1.00  0.00     0.008 A 
HETATM   16  C16 UNL     1      19.292   1.315  51.585  1.00  0.00    -0.044 A 
ENDROOT
BRANCH   8  17
HETATM   17  N2  UNL     1      25.012   2.985  53.499  1.00  0.00    -0.253 N 
HETATM   18  H9  UNL     1      24.634   3.502  54.322  1.00  0.00     0.191 HD
BRANCH  17  19
HETATM   19  C8  UNL     1      26.121   2.119  53.745  1.00  0.00     0.185 C 
HETATM   20  S1  UNL     1      25.972   0.505  53.840  1.00  0.00    -0.040 SA
BRANCH  19  21
HETATM   21  N3  UNL     1      27.440   2.619  53.926  1.00  0.00    -0.375 N 
HETATM   22  H10 UNL     1      28.260   2.465  53.303  1.00  0.00     0.158 HD
HETATM   23  H11 UNL     1      27.362   3.166  54.828  1.00  0.00     0.158 HD
ENDBRANCH  19  21
ENDBRANCH  17  19
ENDBRANCH   8  17
TORSDOF 3
ENDMDL
MODEL 7
REMARK VINA RESULT:      -6.7     10.319     12.943
REMARK  3 active torsions:
REMARK  status: ('A' for Active; 'I' for Inactive)
REMARK    1  A    between atoms: N1_8  and  N2_9 
REMARK    2  A    between atoms: N2_9  and  C8_10 
REMARK    3  A    between atoms: C8_10  and  N3_11 
ROOT
HETATM    1  C1  UNL     1      32.488   6.572  44.368  1.00  0.00     0.015 C 
HETATM    2  C2  UNL     1      33.724   6.447  45.238  1.00  0.00     0.020 C 
HETATM    3  C3  UNL     1      33.878   7.758  45.941  1.00  0.00     0.007 C 
HETATM    4  C4  UNL     1      33.709   8.819  46.703  1.00  0.00     0.021 C 
HETATM    5  C5  UNL     1      32.706   9.349  47.696  1.00  0.00    -0.019 C 
HETATM    6  C6  UNL     1      31.563   9.271  48.406  1.00  0.00     0.026 C 
HETATM    7  C7  UNL     1      30.700   8.081  48.250  1.00  0.00     0.063 C 
HETATM    8  N1  UNL     1      29.608   8.215  48.876  1.00  0.00    -0.177 NA
HETATM    9  C9  UNL     1      30.680   6.657  47.781  1.00  0.00     0.076 C 
HETATM   10  C10 UNL     1      31.347   5.574  47.330  1.00  0.00    -0.003 C 
HETATM   11  C11 UNL     1      32.608   4.892  46.937  1.00  0.00    -0.033 A 
HETATM   12  C12 UNL     1      32.621   3.727  47.667  1.00  0.00     0.011 A 
HETATM   13  C13 UNL     1      33.664   2.805  47.604  1.00  0.00     0.001 A 
HETATM   14  C14 UNL     1      34.659   3.195  46.737  1.00  0.00     0.001 A 
HETATM   15  C15 UNL     1      34.631   4.360  46.016  1.00  0.00     0.008 A 
HETATM   16  C16 UNL     1      33.599   5.273  46.077  1.00  0.00    -0.044 A 
ENDROOT
BRANCH   8  17
HETATM   17  N2  UNL     1      28.520   7.421  49.035  1.00  0.00    -0.253 N 
HETATM   18  H9  UNL     1      28.312   6.401  48.990  1.00  0.00     0.191 HD
BRANCH  17  19
HETATM   19  C8  UNL     1      27.423   8.283  49.342  1.00  0.00     0.185 C 
HETATM   20  S1  UNL     1      26.933   9.471  48.348  1.00  0.00    -0.040 SA
BRANCH  19  21
HETATM   21  N3  UNL     1      26.682   8.156  50.549  1.00  0.00    -0.375 N 
HETATM   22  H10 UNL     1      27.043   7.850  51.477  1.00  0.00     0.158 HD
HETATM   23  H11 UNL     1      25.708   8.447  50.259  1.00  0.00     0.158 HD
ENDBRANCH  19  21
ENDBRANCH  17  19
ENDBRANCH   8  17
TORSDOF 3
ENDMDL
MODEL 8
REMARK VINA RESULT:      -6.6      4.739      6.867
REMARK  3 active torsions:
REMARK  status: ('A' for Active; 'I' for Inactive)
REMARK    1  A    between atoms: N1_8  and  N2_9 
REMARK    2  A    between atoms: N2_9  and  C8_10 
REMARK    3  A    between atoms: C8_10  and  N3_11 
ROOT
HETATM    1  C1  UNL     1      24.783   2.306  50.460  1.00  0.00     0.015 C 
HETATM    2  C2  UNL     1      25.014   2.778  51.883  1.00  0.00     0.020 C 
HETATM    3  C3  UNL     1      24.000   3.845  52.141  1.00  0.00     0.007 C 
HETATM    4  C4  UNL     1      22.884   4.521  52.326  1.00  0.00     0.021 C 
HETATM    5  C5  UNL     1      21.398   4.265  52.341  1.00  0.00    -0.019 C 
HETATM    6  C6  UNL     1      20.315   3.471  52.229  1.00  0.00     0.026 C 
HETATM    7  C7  UNL     1      20.505   2.034  51.934  1.00  0.00     0.063 C 
HETATM    8  N1  UNL     1      19.400   1.453  51.729  1.00  0.00    -0.177 NA
HETATM    9  C9  UNL     1      21.505   0.918  51.963  1.00  0.00     0.076 C 
HETATM   10  C10 UNL     1      22.726   0.461  52.315  1.00  0.00    -0.003 C 
HETATM   11  C11 UNL     1      24.057   0.657  52.948  1.00  0.00    -0.033 A 
HETATM   12  C12 UNL     1      24.182  -0.386  53.834  1.00  0.00     0.011 A 
HETATM   13  C13 UNL     1      25.294  -0.552  54.657  1.00  0.00     0.001 A 
HETATM   14  C14 UNL     1      26.234   0.436  54.476  1.00  0.00     0.001 A 
HETATM   15  C15 UNL     1      26.095   1.470  53.588  1.00  0.00     0.008 A 
HETATM   16  C16 UNL     1      24.994   1.635  52.773  1.00  0.00    -0.044 A 
ENDROOT
BRANCH   8  17
HETATM   17  N2  UNL     1      19.059   0.175  51.430  1.00  0.00    -0.253 N 
HETATM   18  H9  UNL     1      19.398  -0.779  51.679  1.00  0.00     0.191 HD
BRANCH  17  19
HETATM   19  C8  UNL     1      17.940   0.243  50.545  1.00  0.00     0.185 C 
HETATM   20  S1  UNL     1      16.536  -0.517  50.843  1.00  0.00    -0.040 SA
BRANCH  19  21
HETATM   21  N3  UNL     1      17.984   0.986  49.333  1.00  0.00    -0.375 N 
HETATM   22  H10 UNL     1      18.124   2.013  49.232  1.00  0.00     0.158 HD
HETATM   23  H11 UNL     1      17.841   0.242  48.596  1.00  0.00     0.158 HD
ENDBRANCH  19  21
ENDBRANCH  17  19
ENDBRANCH   8  17
TORSDOF 3
ENDMDL
MODEL 9
REMARK VINA RESULT:      -6.5      6.058      8.216
REMARK  3 active torsions:
REMARK  status: ('A' for Active; 'I' for Inactive)
REMARK    1  A    between atoms: N1_8  and  N2_9 
REMARK    2  A    between atoms: N2_9  and  C8_10 
REMARK    3  A    between atoms: C8_10  and  N3_11 
ROOT
HETATM    1  C1  UNL     1      21.551   0.975  49.280  1.00  0.00     0.015 C 
HETATM    2  C2  UNL     1      22.181   1.729  50.435  1.00  0.00     0.020 C 
HETATM    3  C3  UNL     1      21.456   3.034  50.529  1.00  0.00     0.007 C 
HETATM    4  C4  UNL     1      20.549   3.975  50.689  1.00  0.00     0.021 C 
HETATM    5  C5  UNL     1      19.085   4.086  51.032  1.00  0.00    -0.019 C 
HETATM    6  C6  UNL     1      17.883   3.566  51.347  1.00  0.00     0.026 C 
HETATM    7  C7  UNL     1      17.744   2.098  51.469  1.00  0.00     0.063 C 
HETATM    8  N1  UNL     1      16.537   1.760  51.638  1.00  0.00    -0.177 NA
HETATM    9  C9  UNL     1      18.512   0.826  51.661  1.00  0.00     0.076 C 
HETATM   10  C10 UNL     1      19.681   0.203  51.922  1.00  0.00    -0.003 C 
HETATM   11  C11 UNL     1      21.134   0.238  52.233  1.00  0.00    -0.033 A 
HETATM   12  C12 UNL     1      21.273  -0.541  53.357  1.00  0.00     0.011 A 
HETATM   13  C13 UNL     1      22.497  -0.745  53.991  1.00  0.00     0.001 A 
HETATM   14  C14 UNL     1      23.530  -0.085  53.365  1.00  0.00     0.001 A 
HETATM   15  C15 UNL     1      23.375   0.689  52.245  1.00  0.00     0.008 A 
HETATM   16  C16 UNL     1      22.164   0.891  51.617  1.00  0.00    -0.044 A 
ENDROOT
BRANCH   8  17
HETATM   17  N2  UNL     1      15.917   0.564  51.798  1.00  0.00    -0.253 N 
HETATM   18  H9  UNL     1      16.043  -0.409  51.446  1.00  0.00     0.191 HD
BRANCH  17  19
HETATM   19  C8  UNL     1      14.826   0.782  52.693  1.00  0.00     0.185 C 
HETATM   20  S1  UNL     1      14.091   2.222  52.849  1.00  0.00    -0.040 SA
BRANCH  19  21
HETATM   21  N3  UNL     1      14.308  -0.257  53.515  1.00  0.00    -0.375 N 
HETATM   22  H10 UNL     1      13.647  -0.153  54.313  1.00  0.00     0.158 HD
HETATM   23  H11 UNL     1      14.758  -1.123  53.110  1.00  0.00     0.158 HD
ENDBRANCH  19  21
ENDBRANCH  17  19
ENDBRANCH   8  17
TORSDOF 3
ENDMDL
