MODEL 1
REMARK VINA RESULT:      -9.5      0.000      0.000
REMARK  1 active torsions:
REMARK  status: ('A' for Active; 'I' for Inactive)
REMARK    1  A    between atoms: C3_3  and  N1_4 
ROOT
HETATM    1  C1  UNL     1      26.265   2.904  50.899  1.00  0.00     0.083 C 
HETATM    2  C2  UNL     1      26.558   1.632  51.077  1.00  0.00     0.029 C 
HETATM    3  C3  UNL     1      26.557   0.541  52.043  1.00  0.00     0.270 C 
HETATM    4  C8  UNL     1      25.434   0.686  53.044  1.00  0.00     0.015 C 
HETATM    5  C9  UNL     1      24.178   0.420  52.770  1.00  0.00     0.031 C 
HETATM    6  C10 UNL     1      22.761   0.293  53.021  1.00  0.00     0.071 A 
HETATM    7  N2  UNL     1      22.237  -0.823  53.558  1.00  0.00    -0.241 NA
HETATM    8  C11 UNL     1      20.911  -0.890  53.771  1.00  0.00     0.234 A 
HETATM    9  N3  UNL     1      20.022   0.107  53.480  1.00  0.00    -0.241 NA
HETATM   10  C12 UNL     1      20.524   1.257  52.932  1.00  0.00     0.072 A 
HETATM   11  C13 UNL     1      21.878   1.299  52.727  1.00  0.00     0.035 A 
HETATM   12  C14 UNL     1      22.073   2.603  52.160  1.00  0.00     0.015 A 
HETATM   13  C15 UNL     1      22.607   3.654  51.653  1.00  0.00     0.064 A 
HETATM   14  C16 UNL     1      21.361   4.448  51.493  1.00  0.00     0.105 A 
HETATM   15  C17 UNL     1      20.768   3.243  52.076  1.00  0.00    -0.036 A 
HETATM   16  C18 UNL     1      19.807   2.461  52.534  1.00  0.00     0.041 A 
HETATM   17  O2  UNL     1      23.932   3.816  51.408  1.00  0.00    -0.335 OA
HETATM   18  C19 UNL     1      24.549   4.313  50.238  1.00  0.00     0.297 C 
HETATM   19  N4  UNL     1      25.999   4.254  50.564  1.00  0.00    -0.378 N 
HETATM   20  H20 UNL     1      26.811   4.908  50.606  1.00  0.00     0.161 HD
ENDROOT
BRANCH   3  21
HETATM   21  N1  UNL     1      27.787   0.290  52.733  1.00  0.00     0.104 N 
HETATM   22  C4  UNL     1      28.025  -1.059  53.121  1.00  0.00     0.299 C 
HETATM   23  C5  UNL     1      29.454  -1.101  53.677  1.00  0.00     0.198 C 
HETATM   24  O1  UNL     1      30.039   0.159  53.715  1.00  0.00    -0.388 OA
HETATM   25  C6  UNL     1      29.272   1.001  54.523  1.00  0.00     0.198 C 
HETATM   26  C7  UNL     1      27.923   1.164  53.860  1.00  0.00     0.299 C 
ENDBRANCH   3  21
TORSDOF 1
ENDMDL
MODEL 2
REMARK VINA RESULT:      -9.0      2.698      5.891
REMARK  1 active torsions:
REMARK  status: ('A' for Active; 'I' for Inactive)
REMARK    1  A    between atoms: C3_3  and  N1_4 
ROOT
HETATM    1  C1  UNL     1      23.284   2.972  49.474  1.00  0.00     0.083 C 
HETATM    2  C2  UNL     1      24.500   3.184  49.014  1.00  0.00     0.029 C 
HETATM    3  C3  UNL     1      25.820   3.702  49.351  1.00  0.00     0.270 C 
HETATM    4  C8  UNL     1      26.132   3.516  50.818  1.00  0.00     0.015 C 
HETATM    5  C9  UNL     1      26.469   2.364  51.348  1.00  0.00     0.031 C 
HETATM    6  C10 UNL     1      26.854   1.443  52.394  1.00  0.00     0.071 A 
HETATM    7  N2  UNL     1      28.138   1.285  52.757  1.00  0.00    -0.241 NA
HETATM    8  C11 UNL     1      28.442   0.415  53.736  1.00  0.00     0.234 A 
HETATM    9  N3  UNL     1      27.532  -0.348  54.414  1.00  0.00    -0.241 NA
HETATM   10  C12 UNL     1      26.214  -0.210  54.067  1.00  0.00     0.072 A 
HETATM   11  C13 UNL     1      25.933   0.684  53.067  1.00  0.00     0.035 A 
HETATM   12  C14 UNL     1      24.505   0.591  52.952  1.00  0.00     0.015 A 
HETATM   13  C15 UNL     1      23.290   0.770  52.582  1.00  0.00     0.064 A 
HETATM   14  C16 UNL     1      22.658  -0.198  53.518  1.00  0.00     0.105 A 
HETATM   15  C17 UNL     1      24.050  -0.386  53.929  1.00  0.00    -0.036 A 
HETATM   16  C18 UNL     1      25.054  -0.892  54.623  1.00  0.00     0.041 A 
HETATM   17  O2  UNL     1      22.886   1.628  51.611  1.00  0.00    -0.335 OA
HETATM   18  C19 UNL     1      21.984   1.385  50.551  1.00  0.00     0.297 C 
HETATM   19  N4  UNL     1      21.944   2.687  49.831  1.00  0.00    -0.378 N 
HETATM   20  H20 UNL     1      21.230   3.391  49.544  1.00  0.00     0.161 HD
ENDROOT
BRANCH   3  21
HETATM   21  N1  UNL     1      26.099   5.054  48.967  1.00  0.00     0.104 N 
HETATM   22  C4  UNL     1      27.453   5.346  48.638  1.00  0.00     0.299 C 
HETATM   23  C5  UNL     1      27.466   6.783  48.104  1.00  0.00     0.198 C 
HETATM   24  O1  UNL     1      26.213   7.382  48.178  1.00  0.00    -0.388 OA
HETATM   25  C6  UNL     1      25.790   7.404  49.509  1.00  0.00     0.198 C 
HETATM   26  C7  UNL     1      25.619   5.970  49.958  1.00  0.00     0.299 C 
ENDBRANCH   3  21
TORSDOF 1
ENDMDL
MODEL 3
REMARK VINA RESULT:      -9.0      2.179      4.114
REMARK  1 active torsions:
REMARK  status: ('A' for Active; 'I' for Inactive)
REMARK    1  A    between atoms: C3_3  and  N1_4 
ROOT
HETATM    1  C1  UNL     1      24.669  -0.975  55.196  1.00  0.00     0.083 C 
HETATM    2  C2  UNL     1      25.653  -0.135  54.952  1.00  0.00     0.029 C 
HETATM    3  C3  UNL     1      26.551   0.370  53.920  1.00  0.00     0.270 C 
HETATM    4  C8  UNL     1      25.905   0.331  52.555  1.00  0.00     0.015 C 
HETATM    5  C9  UNL     1      24.995   1.189  52.157  1.00  0.00     0.031 C 
HETATM    6  C10 UNL     1      24.043   1.794  51.253  1.00  0.00     0.071 A 
HETATM    7  N2  UNL     1      24.417   2.712  50.345  1.00  0.00    -0.241 NA
HETATM    8  C11 UNL     1      23.491   3.244  49.528  1.00  0.00     0.234 A 
HETATM    9  N3  UNL     1      22.162   2.925  49.542  1.00  0.00    -0.241 NA
HETATM   10  C12 UNL     1      21.748   1.994  50.456  1.00  0.00     0.072 A 
HETATM   11  C13 UNL     1      22.713   1.467  51.275  1.00  0.00     0.035 A 
HETATM   12  C14 UNL     1      21.969   0.548  52.089  1.00  0.00     0.015 A 
HETATM   13  C15 UNL     1      21.648  -0.333  52.966  1.00  0.00     0.064 A 
HETATM   14  C16 UNL     1      20.193  -0.386  52.663  1.00  0.00     0.105 A 
HETATM   15  C17 UNL     1      20.578   0.614  51.666  1.00  0.00    -0.036 A 
HETATM   16  C18 UNL     1      20.405   1.477  50.681  1.00  0.00     0.041 A 
HETATM   17  O2  UNL     1      22.510  -0.930  53.827  1.00  0.00    -0.335 OA
HETATM   18  C19 UNL     1      22.357  -1.131  55.217  1.00  0.00     0.297 C 
HETATM   19  N4  UNL     1      23.614  -1.828  55.602  1.00  0.00    -0.378 N 
HETATM   20  H20 UNL     1      23.894  -2.722  56.062  1.00  0.00     0.161 HD
ENDROOT
BRANCH   3  21
HETATM   21  N1  UNL     1      27.853  -0.222  53.854  1.00  0.00     0.104 N 
HETATM   22  C4  UNL     1      28.909   0.632  53.424  1.00  0.00     0.299 C 
HETATM   23  C5  UNL     1      30.206  -0.167  53.598  1.00  0.00     0.198 C 
HETATM   24  O1  UNL     1      29.968  -1.469  54.026  1.00  0.00    -0.388 OA
HETATM   25  C6  UNL     1      29.165  -2.122  53.090  1.00  0.00     0.198 C 
HETATM   26  C7  UNL     1      27.827  -1.417  53.064  1.00  0.00     0.299 C 
ENDBRANCH   3  21
TORSDOF 1
ENDMDL
MODEL 4
REMARK VINA RESULT:      -8.6      2.490      7.829
REMARK  1 active torsions:
REMARK  status: ('A' for Active; 'I' for Inactive)
REMARK    1  A    between atoms: C3_3  and  N1_4 
ROOT
HETATM    1  C1  UNL     1      20.270  -0.382  53.254  1.00  0.00     0.083 C 
HETATM    2  C2  UNL     1      19.896   0.235  52.152  1.00  0.00     0.029 C 
HETATM    3  C3  UNL     1      19.918   1.507  51.441  1.00  0.00     0.270 C 
HETATM    4  C8  UNL     1      21.155   2.308  51.774  1.00  0.00     0.015 C 
HETATM    5  C9  UNL     1      22.345   2.040  51.290  1.00  0.00     0.031 C 
HETATM    6  C10 UNL     1      23.767   2.205  51.089  1.00  0.00     0.071 A 
HETATM    7  N2  UNL     1      24.255   3.040  50.155  1.00  0.00    -0.241 NA
HETATM    8  C11 UNL     1      25.586   3.157  50.009  1.00  0.00     0.234 A 
HETATM    9  N3  UNL     1      26.516   2.479  50.748  1.00  0.00    -0.241 NA
HETATM   10  C12 UNL     1      26.050   1.620  51.707  1.00  0.00     0.072 A 
HETATM   11  C13 UNL     1      24.690   1.521  51.835  1.00  0.00     0.035 A 
HETATM   12  C14 UNL     1      24.540   0.567  52.898  1.00  0.00     0.015 A 
HETATM   13  C15 UNL     1      24.039  -0.218  53.781  1.00  0.00     0.064 A 
HETATM   14  C16 UNL     1      25.321  -0.734  54.330  1.00  0.00     0.105 A 
HETATM   15  C17 UNL     1      25.875   0.170  53.320  1.00  0.00    -0.036 A 
HETATM   16  C18 UNL     1      26.814   0.785  52.624  1.00  0.00     0.041 A 
HETATM   17  O2  UNL     1      22.713  -0.397  54.006  1.00  0.00    -0.335 OA
HETATM   18  C19 UNL     1      22.010  -1.612  54.163  1.00  0.00     0.297 C 
HETATM   19  N4  UNL     1      20.607  -1.170  54.381  1.00  0.00    -0.378 N 
HETATM   20  H20 UNL     1      19.862  -1.285  55.102  1.00  0.00     0.161 HD
ENDROOT
BRANCH   3  21
HETATM   21  N1  UNL     1      18.757   2.337  51.572  1.00  0.00     0.104 N 
HETATM   22  C4  UNL     1      17.500   1.682  51.441  1.00  0.00     0.299 C 
HETATM   23  C5  UNL     1      16.432   2.728  51.785  1.00  0.00     0.198 C 
HETATM   24  O1  UNL     1      16.984   3.980  52.030  1.00  0.00    -0.388 OA
HETATM   25  C6  UNL     1      17.677   4.409  50.897  1.00  0.00     0.198 C 
HETATM   26  C7  UNL     1      18.831   3.456  50.680  1.00  0.00     0.299 C 
ENDBRANCH   3  21
TORSDOF 1
ENDMDL
MODEL 5
REMARK VINA RESULT:      -8.5      1.846      4.384
REMARK  1 active torsions:
REMARK  status: ('A' for Active; 'I' for Inactive)
REMARK    1  A    between atoms: C3_3  and  N1_4 
ROOT
HETATM    1  C1  UNL     1      23.874  -0.278  53.411  1.00  0.00     0.083 C 
HETATM    2  C2  UNL     1      24.893   0.476  53.767  1.00  0.00     0.029 C 
HETATM    3  C3  UNL     1      26.124   1.102  53.300  1.00  0.00     0.270 C 
HETATM    4  C8  UNL     1      26.044   1.458  51.834  1.00  0.00     0.015 C 
HETATM    5  C9  UNL     1      25.369   2.485  51.372  1.00  0.00     0.031 C 
HETATM    6  C10 UNL     1      24.842   3.390  50.376  1.00  0.00     0.071 A 
HETATM    7  N2  UNL     1      25.550   4.446  49.937  1.00  0.00    -0.241 NA
HETATM    8  C11 UNL     1      25.013   5.258  49.009  1.00  0.00     0.234 A 
HETATM    9  N3  UNL     1      23.772   5.099  48.457  1.00  0.00    -0.241 NA
HETATM   10  C12 UNL     1      23.026   4.034  48.884  1.00  0.00     0.072 A 
HETATM   11  C13 UNL     1      23.597   3.223  49.829  1.00  0.00     0.035 A 
HETATM   12  C14 UNL     1      22.583   2.231  50.049  1.00  0.00     0.015 A 
HETATM   13  C15 UNL     1      21.938   1.212  50.488  1.00  0.00     0.064 A 
HETATM   14  C16 UNL     1      20.706   1.399  49.676  1.00  0.00     0.105 A 
HETATM   15  C17 UNL     1      21.459   2.554  49.184  1.00  0.00    -0.036 A 
HETATM   16  C18 UNL     1      21.689   3.637  48.464  1.00  0.00     0.041 A 
HETATM   17  O2  UNL     1      22.398   0.335  51.416  1.00  0.00    -0.335 OA
HETATM   18  C19 UNL     1      21.725  -0.167  52.552  1.00  0.00     0.297 C 
HETATM   19  N4  UNL     1      22.728  -1.075  53.171  1.00  0.00    -0.378 N 
HETATM   20  H20 UNL     1      22.796  -2.078  53.452  1.00  0.00     0.161 HD
ENDROOT
BRANCH   3  21
HETATM   21  N1  UNL     1      27.343   0.396  53.558  1.00  0.00     0.104 N 
HETATM   22  C4  UNL     1      28.545   1.147  53.418  1.00  0.00     0.299 C 
HETATM   23  C5  UNL     1      29.680   0.239  53.906  1.00  0.00     0.198 C 
HETATM   24  O1  UNL     1      29.226  -1.031  54.245  1.00  0.00    -0.388 OA
HETATM   25  C6  UNL     1      28.630  -1.622  53.129  1.00  0.00     0.198 C 
HETATM   26  C7  UNL     1      27.411  -0.801  52.774  1.00  0.00     0.299 C 
ENDBRANCH   3  21
TORSDOF 1
ENDMDL
MODEL 6
REMARK VINA RESULT:      -8.4      2.568      6.144
REMARK  1 active torsions:
REMARK  status: ('A' for Active; 'I' for Inactive)
REMARK    1  A    between atoms: C3_3  and  N1_4 
ROOT
HETATM    1  C1  UNL     1      25.222   3.184  50.186  1.00  0.00     0.083 C 
HETATM    2  C2  UNL     1      23.973   3.597  50.125  1.00  0.00     0.029 C 
HETATM    3  C3  UNL     1      22.594   3.174  49.913  1.00  0.00     0.270 C 
HETATM    4  C8  UNL     1      22.370   1.755  50.381  1.00  0.00     0.015 C 
HETATM    5  C9  UNL     1      22.260   1.416  51.644  1.00  0.00     0.031 C 
HETATM    6  C10 UNL     1      22.079   0.531  52.773  1.00  0.00     0.071 A 
HETATM    7  N2  UNL     1      20.855   0.191  53.214  1.00  0.00    -0.241 NA
HETATM    8  C11 UNL     1      20.743  -0.636  54.268  1.00  0.00     0.234 A 
HETATM    9  N3  UNL     1      21.796  -1.177  54.952  1.00  0.00    -0.241 NA
HETATM   10  C12 UNL     1      23.056  -0.850  54.527  1.00  0.00     0.072 A 
HETATM   11  C13 UNL     1      23.141  -0.006  53.451  1.00  0.00     0.035 A 
HETATM   12  C14 UNL     1      24.558   0.129  53.267  1.00  0.00     0.015 A 
HETATM   13  C15 UNL     1      25.710   0.472  52.816  1.00  0.00     0.064 A 
HETATM   14  C16 UNL     1      26.534  -0.292  53.791  1.00  0.00     0.105 A 
HETATM   15  C17 UNL     1      25.212  -0.675  54.288  1.00  0.00    -0.036 A 
HETATM   16  C18 UNL     1      24.336  -1.282  55.070  1.00  0.00     0.041 A 
HETATM   17  O2  UNL     1      25.923   1.293  51.757  1.00  0.00    -0.335 OA
HETATM   18  C19 UNL     1      26.817   2.383  51.664  1.00  0.00     0.297 C 
HETATM   19  N4  UNL     1      26.602   2.884  50.279  1.00  0.00    -0.378 N 
HETATM   20  H20 UNL     1      27.171   3.057  49.422  1.00  0.00     0.161 HD
ENDROOT
BRANCH   3  21
HETATM   21  N1  UNL     1      22.069   3.332  48.590  1.00  0.00     0.104 N 
HETATM   22  C4  UNL     1      22.492   4.493  47.882  1.00  0.00     0.299 C 
HETATM   23  C5  UNL     1      21.943   4.353  46.457  1.00  0.00     0.198 C 
HETATM   24  O1  UNL     1      21.153   3.219  46.309  1.00  0.00    -0.388 OA
HETATM   25  C6  UNL     1      20.077   3.286  47.195  1.00  0.00     0.198 C 
HETATM   26  C7  UNL     1      20.639   3.249  48.599  1.00  0.00     0.299 C 
ENDBRANCH   3  21
TORSDOF 1
ENDMDL
MODEL 7
REMARK VINA RESULT:      -8.2      2.636      6.931
REMARK  1 active torsions:
REMARK  status: ('A' for Active; 'I' for Inactive)
REMARK    1  A    between atoms: C3_3  and  N1_4 
ROOT
HETATM    1  C1  UNL     1      21.611   3.225  50.700  1.00  0.00     0.083 C 
HETATM    2  C2  UNL     1      20.662   2.958  51.573  1.00  0.00     0.029 C 
HETATM    3  C3  UNL     1      19.920   1.886  52.225  1.00  0.00     0.270 C 
HETATM    4  C8  UNL     1      20.760   0.640  52.373  1.00  0.00     0.015 C 
HETATM    5  C9  UNL     1      21.707   0.505  53.272  1.00  0.00     0.031 C 
HETATM    6  C10 UNL     1      22.773  -0.154  53.992  1.00  0.00     0.071 A 
HETATM    7  N2  UNL     1      22.525  -0.970  55.030  1.00  0.00    -0.241 NA
HETATM    8  C11 UNL     1      23.553  -1.558  55.666  1.00  0.00     0.234 A 
HETATM    9  N3  UNL     1      24.871  -1.393  55.338  1.00  0.00    -0.241 NA
HETATM   10  C12 UNL     1      25.158  -0.567  54.284  1.00  0.00     0.072 A 
HETATM   11  C13 UNL     1      24.090   0.018  53.655  1.00  0.00     0.035 A 
HETATM   12  C14 UNL     1      24.718   0.797  52.625  1.00  0.00     0.015 A 
HETATM   13  C15 UNL     1      24.918   1.579  51.628  1.00  0.00     0.064 A 
HETATM   14  C16 UNL     1      26.402   1.490  51.607  1.00  0.00     0.105 A 
HETATM   15  C17 UNL     1      26.155   0.598  52.740  1.00  0.00    -0.036 A 
HETATM   16  C18 UNL     1      26.460  -0.221  53.732  1.00  0.00     0.041 A 
HETATM   17  O2  UNL     1      23.947   2.211  50.922  1.00  0.00    -0.335 OA
HETATM   18  C19 UNL     1      23.896   3.566  50.526  1.00  0.00     0.297 C 
HETATM   19  N4  UNL     1      22.606   3.660  49.791  1.00  0.00    -0.378 N 
HETATM   20  H20 UNL     1      22.273   3.943  48.843  1.00  0.00     0.161 HD
ENDROOT
BRANCH   3  21
HETATM   21  N1  UNL     1      18.649   1.546  51.658  1.00  0.00     0.104 N 
HETATM   22  C4  UNL     1      18.676   0.651  50.550  1.00  0.00     0.299 C 
HETATM   23  C5  UNL     1      17.214   0.311  50.236  1.00  0.00     0.198 C 
HETATM   24  O1  UNL     1      16.326   1.018  51.039  1.00  0.00    -0.388 OA
HETATM   25  C6  UNL     1      16.517   2.387  50.844  1.00  0.00     0.198 C 
HETATM   26  C7  UNL     1      17.910   2.727  51.325  1.00  0.00     0.299 C 
ENDBRANCH   3  21
TORSDOF 1
ENDMDL
MODEL 8
REMARK VINA RESULT:      -7.6      6.324      8.366
REMARK  1 active torsions:
REMARK  status: ('A' for Active; 'I' for Inactive)
REMARK    1  A    between atoms: C3_3  and  N1_4 
ROOT
HETATM    1  C1  UNL     1      30.941   8.491  46.852  1.00  0.00     0.083 C 
HETATM    2  C2  UNL     1      31.196   7.232  46.564  1.00  0.00     0.029 C 
HETATM    3  C3  UNL     1      31.325   5.892  47.123  1.00  0.00     0.270 C 
HETATM    4  C8  UNL     1      30.426   5.701  48.321  1.00  0.00     0.015 C 
HETATM    5  C9  UNL     1      29.128   5.520  48.234  1.00  0.00     0.031 C 
HETATM    6  C10 UNL     1      27.781   5.303  48.711  1.00  0.00     0.071 A 
HETATM    7  N2  UNL     1      27.313   4.069  48.967  1.00  0.00    -0.241 NA
HETATM    8  C11 UNL     1      26.052   3.923  49.409  1.00  0.00     0.234 A 
HETATM    9  N3  UNL     1      25.176   4.950  49.626  1.00  0.00    -0.241 NA
HETATM   10  C12 UNL     1      25.622   6.220  49.374  1.00  0.00     0.072 A 
HETATM   11  C13 UNL     1      26.912   6.340  48.926  1.00  0.00     0.035 A 
HETATM   12  C14 UNL     1      27.060   7.759  48.766  1.00  0.00     0.015 A 
HETATM   13  C15 UNL     1      27.541   8.922  48.514  1.00  0.00     0.064 A 
HETATM   14  C16 UNL     1      26.329   9.711  48.861  1.00  0.00     0.105 A 
HETATM   15  C17 UNL     1      25.799   8.377  49.146  1.00  0.00    -0.036 A 
HETATM   16  C18 UNL     1      24.905   7.479  49.520  1.00  0.00     0.041 A 
HETATM   17  O2  UNL     1      28.800   9.169  48.073  1.00  0.00    -0.335 OA
HETATM   18  C19 UNL     1      29.205  10.017  47.017  1.00  0.00     0.297 C 
HETATM   19  N4  UNL     1      30.686   9.875  47.013  1.00  0.00    -0.378 N 
HETATM   20  H20 UNL     1      31.523  10.492  47.094  1.00  0.00     0.161 HD
ENDROOT
BRANCH   3  21
HETATM   21  N1  UNL     1      32.650   5.451  47.441  1.00  0.00     0.104 N 
HETATM   22  C4  UNL     1      32.832   4.044  47.564  1.00  0.00     0.299 C 
HETATM   23  C5  UNL     1      34.339   3.817  47.733  1.00  0.00     0.198 C 
HETATM   24  O1  UNL     1      35.045   5.013  47.800  1.00  0.00    -0.388 OA
HETATM   25  C6  UNL     1      34.583   5.762  48.884  1.00  0.00     0.198 C 
HETATM   26  C7  UNL     1      33.139   6.120  48.610  1.00  0.00     0.299 C 
ENDBRANCH   3  21
TORSDOF 1
ENDMDL
MODEL 9
REMARK VINA RESULT:      -7.4      4.185      6.206
REMARK  1 active torsions:
REMARK  status: ('A' for Active; 'I' for Inactive)
REMARK    1  A    between atoms: C3_3  and  N1_4 
ROOT
HETATM    1  C1  UNL     1      19.504   3.047  49.467  1.00  0.00     0.083 C 
HETATM    2  C2  UNL     1      20.811   3.167  49.563  1.00  0.00     0.029 C 
HETATM    3  C3  UNL     1      21.914   3.414  50.485  1.00  0.00     0.270 C 
HETATM    4  C8  UNL     1      21.602   2.906  51.873  1.00  0.00     0.015 C 
HETATM    5  C9  UNL     1      21.634   1.637  52.205  1.00  0.00     0.031 C 
HETATM    6  C10 UNL     1      21.517   0.486  53.072  1.00  0.00     0.071 A 
HETATM    7  N2  UNL     1      22.537   0.078  53.845  1.00  0.00    -0.241 NA
HETATM    8  C11 UNL     1      22.376  -0.999  54.633  1.00  0.00     0.234 A 
HETATM    9  N3  UNL     1      21.229  -1.739  54.719  1.00  0.00    -0.241 NA
HETATM   10  C12 UNL     1      20.170  -1.350  53.943  1.00  0.00     0.072 A 
HETATM   11  C13 UNL     1      20.363  -0.249  53.150  1.00  0.00     0.035 A 
HETATM   12  C14 UNL     1      19.097  -0.111  52.487  1.00  0.00     0.015 A 
HETATM   13  C15 UNL     1      18.143   0.308  51.738  1.00  0.00     0.064 A 
HETATM   14  C16 UNL     1      17.137  -0.721  52.112  1.00  0.00     0.105 A 
HETATM   15  C17 UNL     1      18.235  -1.183  52.962  1.00  0.00    -0.036 A 
HETATM   16  C18 UNL     1      18.848  -1.953  53.844  1.00  0.00     0.041 A 
HETATM   17  O2  UNL     1      18.209   1.386  50.917  1.00  0.00    -0.335 OA
HETATM   18  C19 UNL     1      17.795   1.485  49.570  1.00  0.00     0.297 C 
HETATM   19  N4  UNL     1      18.119   2.893  49.214  1.00  0.00    -0.378 N 
HETATM   20  H20 UNL     1      17.619   3.735  48.853  1.00  0.00     0.161 HD
ENDROOT
BRANCH   3  21
HETATM   21  N1  UNL     1      22.397   4.761  50.562  1.00  0.00     0.104 N 
HETATM   22  C4  UNL     1      23.573   4.961  51.339  1.00  0.00     0.299 C 
HETATM   23  C5  UNL     1      23.983   6.424  51.131  1.00  0.00     0.198 C 
HETATM   24  O1  UNL     1      23.070   7.118  50.345  1.00  0.00    -0.388 OA
HETATM   25  C6  UNL     1      21.816   7.089  50.959  1.00  0.00     0.198 C 
HETATM   26  C7  UNL     1      21.358   5.648  50.995  1.00  0.00     0.299 C 
ENDBRANCH   3  21
TORSDOF 1
ENDMDL
