MODEL 1
REMARK VINA RESULT:      -7.3      0.000      0.000
REMARK  7 active torsions:
REMARK  status: ('A' for Active; 'I' for Inactive)
REMARK    1  A    between atoms: C2_2  and  C3_3 
REMARK    2  A    between atoms: C3_3  and  C4_4 
REMARK    3  A    between atoms: C4_4  and  O2_6 
REMARK    4  A    between atoms: O2_6  and  C5_7 
REMARK    5  A    between atoms: C7_9  and  S1_10 
REMARK    6  A    between atoms: S1_10  and  C8_11 
REMARK    7  A    between atoms: N1_18  and  C15_19 
ROOT
HETATM    1  C5  UNL     1      26.261  -0.303  52.799  1.00  0.00     0.097 A 
HETATM    2  C6  UNL     1      25.755   0.834  52.188  1.00  0.00     0.076 A 
HETATM    3  C7  UNL     1      24.454   0.891  52.649  1.00  0.00     0.079 A 
HETATM    4  N1  UNL     1      24.176  -0.129  53.480  1.00  0.00    -0.344 N 
HETATM    5  C18 UNL     1      25.288  -0.886  53.588  1.00  0.00     0.129 A 
ENDROOT
BRANCH   3   6
HETATM    6  S1  UNL     1      23.234   2.121  52.246  1.00  0.00    -0.072 SA
BRANCH   6   7
HETATM    7  C8  UNL     1      22.687   1.992  50.560  1.00  0.00     0.013 A 
HETATM    8  C9  UNL     1      21.677   1.126  50.159  1.00  0.00     0.019 A 
HETATM    9  C10 UNL     1      21.294   1.072  48.817  1.00  0.00     0.001 A 
HETATM   10  C11 UNL     1      21.945   1.901  47.901  1.00  0.00     0.001 A 
HETATM   11  C12 UNL     1      22.958   2.771  48.296  1.00  0.00     0.008 A 
HETATM   12  C13 UNL     1      23.325   2.808  49.641  1.00  0.00    -0.045 A 
HETATM   13  C14 UNL     1      24.421   3.760  50.025  1.00  0.00     0.049 C 
ENDBRANCH   6   7
ENDBRANCH   3   6
BRANCH   4  14
HETATM   14  C15 UNL     1      23.009  -0.526  54.213  1.00  0.00     0.082 C 
HETATM   15  C16 UNL     1      23.467  -1.319  55.438  1.00  0.00     0.032 C 
HETATM   16  C17 UNL     1      22.025  -1.314  53.414  1.00  0.00     0.032 C 
ENDBRANCH   4  14
BRANCH   1  17
HETATM   17  O2  UNL     1      27.570  -0.742  52.606  1.00  0.00    -0.277 OA
BRANCH  17  18
HETATM   18  C4  UNL     1      28.498  -0.858  53.643  1.00  0.00     0.264 C 
HETATM   19  O1  UNL     1      29.302  -1.850  53.681  1.00  0.00    -0.265 OA
BRANCH  18  20
HETATM   20  C3  UNL     1      28.434   0.249  54.634  1.00  0.00     0.111 C 
BRANCH  20  21
HETATM   21  C2  UNL     1      29.439   1.318  54.280  1.00  0.00     0.005 C 
HETATM   22  C1  UNL     1      28.666   2.471  53.670  1.00  0.00     0.005 C 
ENDBRANCH  20  21
ENDBRANCH  18  20
ENDBRANCH  17  18
ENDBRANCH   1  17
TORSDOF 7
ENDMDL
MODEL 2
REMARK VINA RESULT:      -7.3      0.363      1.493
REMARK  7 active torsions:
REMARK  status: ('A' for Active; 'I' for Inactive)
REMARK    1  A    between atoms: C2_2  and  C3_3 
REMARK    2  A    between atoms: C3_3  and  C4_4 
REMARK    3  A    between atoms: C4_4  and  O2_6 
REMARK    4  A    between atoms: O2_6  and  C5_7 
REMARK    5  A    between atoms: C7_9  and  S1_10 
REMARK    6  A    between atoms: S1_10  and  C8_11 
REMARK    7  A    between atoms: N1_18  and  C15_19 
ROOT
HETATM    1  C5  UNL     1      26.099  -0.322  52.797  1.00  0.00     0.097 A 
HETATM    2  C6  UNL     1      25.520   0.766  52.161  1.00  0.00     0.076 A 
HETATM    3  C7  UNL     1      24.238   0.790  52.674  1.00  0.00     0.079 A 
HETATM    4  N1  UNL     1      24.037  -0.203  53.559  1.00  0.00    -0.344 N 
HETATM    5  C18 UNL     1      25.184  -0.909  53.651  1.00  0.00     0.129 A 
ENDROOT
BRANCH   3   6
HETATM    6  S1  UNL     1      22.950   1.951  52.273  1.00  0.00    -0.072 SA
BRANCH   6   7
HETATM    7  C8  UNL     1      22.718   2.109  50.518  1.00  0.00     0.013 A 
HETATM    8  C9  UNL     1      23.460   2.985  49.735  1.00  0.00     0.019 A 
HETATM    9  C10 UNL     1      23.228   3.062  48.359  1.00  0.00     0.001 A 
HETATM   10  C11 UNL     1      22.244   2.244  47.801  1.00  0.00     0.001 A 
HETATM   11  C12 UNL     1      21.497   1.364  48.579  1.00  0.00     0.008 A 
HETATM   12  C13 UNL     1      21.745   1.304  49.950  1.00  0.00    -0.045 A 
HETATM   13  C14 UNL     1      20.917   0.343  50.754  1.00  0.00     0.049 C 
ENDBRANCH   6   7
ENDBRANCH   3   6
BRANCH   4  14
HETATM   14  C15 UNL     1      22.919  -0.615  54.357  1.00  0.00     0.082 C 
HETATM   15  C16 UNL     1      23.460  -1.342  55.588  1.00  0.00     0.032 C 
HETATM   16  C17 UNL     1      21.933  -1.470  53.633  1.00  0.00     0.032 C 
ENDBRANCH   4  14
BRANCH   1  17
HETATM   17  O2  UNL     1      27.415  -0.715  52.567  1.00  0.00    -0.277 OA
BRANCH  17  18
HETATM   18  C4  UNL     1      28.353  -0.882  53.589  1.00  0.00     0.264 C 
HETATM   19  O1  UNL     1      29.110  -1.911  53.607  1.00  0.00    -0.265 OA
BRANCH  18  20
HETATM   20  C3  UNL     1      28.356   0.218  54.588  1.00  0.00     0.111 C 
BRANCH  20  21
HETATM   21  C2  UNL     1      29.365   1.271  54.195  1.00  0.00     0.005 C 
HETATM   22  C1  UNL     1      28.588   2.434  53.608  1.00  0.00     0.005 C 
ENDBRANCH  20  21
ENDBRANCH  18  20
ENDBRANCH  17  18
ENDBRANCH   1  17
TORSDOF 7
ENDMDL
MODEL 3
REMARK VINA RESULT:      -7.2      2.924      6.167
REMARK  7 active torsions:
REMARK  status: ('A' for Active; 'I' for Inactive)
REMARK    1  A    between atoms: C2_2  and  C3_3 
REMARK    2  A    between atoms: C3_3  and  C4_4 
REMARK    3  A    between atoms: C4_4  and  O2_6 
REMARK    4  A    between atoms: O2_6  and  C5_7 
REMARK    5  A    between atoms: C7_9  and  S1_10 
REMARK    6  A    between atoms: S1_10  and  C8_11 
REMARK    7  A    between atoms: N1_18  and  C15_19 
ROOT
HETATM    1  C5  UNL     1      23.970   2.862  51.975  1.00  0.00     0.097 A 
HETATM    2  C6  UNL     1      24.965   2.134  52.611  1.00  0.00     0.076 A 
HETATM    3  C7  UNL     1      24.313   0.981  53.003  1.00  0.00     0.079 A 
HETATM    4  N1  UNL     1      23.019   0.992  52.638  1.00  0.00    -0.344 N 
HETATM    5  C18 UNL     1      22.782   2.155  51.996  1.00  0.00     0.129 A 
ENDROOT
BRANCH   3   6
HETATM    6  S1  UNL     1      25.019  -0.395  53.882  1.00  0.00    -0.072 SA
BRANCH   6   7
HETATM    7  C8  UNL     1      26.795  -0.325  53.917  1.00  0.00     0.013 A 
HETATM    8  C9  UNL     1      27.498   0.583  54.700  1.00  0.00     0.019 A 
HETATM    9  C10 UNL     1      28.895   0.587  54.682  1.00  0.00     0.001 A 
HETATM   10  C11 UNL     1      29.556  -0.334  53.867  1.00  0.00     0.001 A 
HETATM   11  C12 UNL     1      28.858  -1.246  53.081  1.00  0.00     0.008 A 
HETATM   12  C13 UNL     1      27.463  -1.233  53.114  1.00  0.00    -0.045 A 
HETATM   13  C14 UNL     1      26.749  -2.232  52.251  1.00  0.00     0.049 C 
ENDBRANCH   6   7
ENDBRANCH   3   6
BRANCH   4  14
HETATM   14  C15 UNL     1      21.932   0.069  52.794  1.00  0.00     0.082 C 
HETATM   15  C16 UNL     1      20.941   0.310  51.655  1.00  0.00     0.032 C 
HETATM   16  C17 UNL     1      21.245   0.151  54.116  1.00  0.00     0.032 C 
ENDBRANCH   4  14
BRANCH   1  17
HETATM   17  O2  UNL     1      24.198   4.118  51.415  1.00  0.00    -0.277 OA
BRANCH  17  18
HETATM   18  C4  UNL     1      24.291   4.336  50.039  1.00  0.00     0.264 C 
HETATM   19  O1  UNL     1      23.368   3.925  49.257  1.00  0.00    -0.265 OA
BRANCH  18  20
HETATM   20  C3  UNL     1      25.523   5.059  49.626  1.00  0.00     0.111 C 
BRANCH  20  21
HETATM   21  C2  UNL     1      26.651   4.079  49.411  1.00  0.00     0.005 C 
HETATM   22  C1  UNL     1      27.736   4.811  48.645  1.00  0.00     0.005 C 
ENDBRANCH  20  21
ENDBRANCH  18  20
ENDBRANCH  17  18
ENDBRANCH   1  17
TORSDOF 7
ENDMDL
MODEL 4
REMARK VINA RESULT:      -7.1      2.138      4.725
REMARK  7 active torsions:
REMARK  status: ('A' for Active; 'I' for Inactive)
REMARK    1  A    between atoms: C2_2  and  C3_3 
REMARK    2  A    between atoms: C3_3  and  C4_4 
REMARK    3  A    between atoms: C4_4  and  O2_6 
REMARK    4  A    between atoms: O2_6  and  C5_7 
REMARK    5  A    between atoms: C7_9  and  S1_10 
REMARK    6  A    between atoms: S1_10  and  C8_11 
REMARK    7  A    between atoms: N1_18  and  C15_19 
ROOT
HETATM    1  C5  UNL     1      26.838   1.753  51.931  1.00  0.00     0.097 A 
HETATM    2  C6  UNL     1      25.638   1.119  52.217  1.00  0.00     0.076 A 
HETATM    3  C7  UNL     1      24.705   1.888  51.549  1.00  0.00     0.079 A 
HETATM    4  N1  UNL     1      25.281   2.917  50.900  1.00  0.00    -0.344 N 
HETATM    5  C18 UNL     1      26.610   2.852  51.124  1.00  0.00     0.129 A 
ENDROOT
BRANCH   3   6
HETATM    6  S1  UNL     1      22.946   1.626  51.499  1.00  0.00    -0.072 SA
BRANCH   6   7
HETATM    7  C8  UNL     1      22.414   0.441  52.712  1.00  0.00     0.013 A 
HETATM    8  C9  UNL     1      23.260  -0.069  53.690  1.00  0.00     0.019 A 
HETATM    9  C10 UNL     1      22.779  -0.999  54.615  1.00  0.00     0.001 A 
HETATM   10  C11 UNL     1      21.443  -1.397  54.531  1.00  0.00     0.001 A 
HETATM   11  C12 UNL     1      20.590  -0.890  53.554  1.00  0.00     0.008 A 
HETATM   12  C13 UNL     1      21.091   0.037  52.640  1.00  0.00    -0.045 A 
HETATM   13  C14 UNL     1      20.139   0.559  51.603  1.00  0.00     0.049 C 
ENDBRANCH   6   7
ENDBRANCH   3   6
BRANCH   4  14
HETATM   14  C15 UNL     1      24.781   3.981  50.080  1.00  0.00     0.082 C 
HETATM   15  C16 UNL     1      25.948   4.537  49.264  1.00  0.00     0.032 C 
HETATM   16  C17 UNL     1      24.104   5.073  50.840  1.00  0.00     0.032 C 
ENDBRANCH   4  14
BRANCH   1  17
HETATM   17  O2  UNL     1      28.063   1.298  52.416  1.00  0.00    -0.277 OA
BRANCH  17  18
HETATM   18  C4  UNL     1      28.468   1.462  53.742  1.00  0.00     0.264 C 
HETATM   19  O1  UNL     1      28.527   2.628  54.260  1.00  0.00    -0.265 OA
BRANCH  18  20
HETATM   20  C3  UNL     1      28.801   0.187  54.431  1.00  0.00     0.111 C 
BRANCH  20  21
HETATM   21  C2  UNL     1      29.877  -0.547  53.668  1.00  0.00     0.005 C 
HETATM   22  C1  UNL     1      29.316  -1.910  53.307  1.00  0.00     0.005 C 
ENDBRANCH  20  21
ENDBRANCH  18  20
ENDBRANCH  17  18
ENDBRANCH   1  17
TORSDOF 7
ENDMDL
MODEL 5
REMARK VINA RESULT:      -7.1      2.846      6.863
REMARK  7 active torsions:
REMARK  status: ('A' for Active; 'I' for Inactive)
REMARK    1  A    between atoms: C2_2  and  C3_3 
REMARK    2  A    between atoms: C3_3  and  C4_4 
REMARK    3  A    between atoms: C4_4  and  O2_6 
REMARK    4  A    between atoms: O2_6  and  C5_7 
REMARK    5  A    between atoms: C7_9  and  S1_10 
REMARK    6  A    between atoms: S1_10  and  C8_11 
REMARK    7  A    between atoms: N1_18  and  C15_19 
ROOT
HETATM    1  C5  UNL     1      23.002   1.067  51.903  1.00  0.00     0.097 A 
HETATM    2  C6  UNL     1      23.962   0.818  52.874  1.00  0.00     0.076 A 
HETATM    3  C7  UNL     1      24.973   1.704  52.557  1.00  0.00     0.079 A 
HETATM    4  N1  UNL     1      24.665   2.445  51.477  1.00  0.00    -0.344 N 
HETATM    5  C18 UNL     1      23.441   2.065  51.053  1.00  0.00     0.129 A 
ENDROOT
BRANCH   3   6
HETATM    6  S1  UNL     1      26.519   1.907  53.413  1.00  0.00    -0.072 SA
BRANCH   6   7
HETATM    7  C8  UNL     1      27.524   0.444  53.332  1.00  0.00     0.013 A 
HETATM    8  C9  UNL     1      27.048  -0.772  52.857  1.00  0.00     0.019 A 
HETATM    9  C10 UNL     1      27.890  -1.887  52.819  1.00  0.00     0.001 A 
HETATM   10  C11 UNL     1      29.205  -1.746  53.266  1.00  0.00     0.001 A 
HETATM   11  C12 UNL     1      29.689  -0.531  53.743  1.00  0.00     0.008 A 
HETATM   12  C13 UNL     1      28.831   0.568  53.772  1.00  0.00    -0.045 A 
HETATM   13  C14 UNL     1      29.391   1.860  54.294  1.00  0.00     0.049 C 
ENDBRANCH   6   7
ENDBRANCH   3   6
BRANCH   4  14
HETATM   14  C15 UNL     1      25.344   3.480  50.753  1.00  0.00     0.082 C 
HETATM   15  C16 UNL     1      24.301   4.253  49.945  1.00  0.00     0.032 C 
HETATM   16  C17 UNL     1      26.439   2.989  49.866  1.00  0.00     0.032 C 
ENDBRANCH   4  14
BRANCH   1  17
HETATM   17  O2  UNL     1      21.792   0.380  51.848  1.00  0.00    -0.277 OA
BRANCH  17  18
HETATM   18  C4  UNL     1      20.663   0.759  52.577  1.00  0.00     0.264 C 
HETATM   19  O1  UNL     1      19.745   1.458  52.028  1.00  0.00    -0.265 OA
BRANCH  18  20
HETATM   20  C3  UNL     1      20.666   0.278  53.984  1.00  0.00     0.111 C 
BRANCH  20  21
HETATM   21  C2  UNL     1      20.783  -1.227  54.016  1.00  0.00     0.005 C 
HETATM   22  C1  UNL     1      22.002  -1.561  54.855  1.00  0.00     0.005 C 
ENDBRANCH  20  21
ENDBRANCH  18  20
ENDBRANCH  17  18
ENDBRANCH   1  17
TORSDOF 7
ENDMDL
MODEL 6
REMARK VINA RESULT:      -7.0      2.337      3.571
REMARK  7 active torsions:
REMARK  status: ('A' for Active; 'I' for Inactive)
REMARK    1  A    between atoms: C2_2  and  C3_3 
REMARK    2  A    between atoms: C3_3  and  C4_4 
REMARK    3  A    between atoms: C4_4  and  O2_6 
REMARK    4  A    between atoms: O2_6  and  C5_7 
REMARK    5  A    between atoms: C7_9  and  S1_10 
REMARK    6  A    between atoms: S1_10  and  C8_11 
REMARK    7  A    between atoms: N1_18  and  C15_19 
ROOT
HETATM    1  C5  UNL     1      25.577   1.630  53.445  1.00  0.00     0.097 A 
HETATM    2  C6  UNL     1      25.747   2.404  52.307  1.00  0.00     0.076 A 
HETATM    3  C7  UNL     1      24.569   2.209  51.611  1.00  0.00     0.079 A 
HETATM    4  N1  UNL     1      23.736   1.379  52.265  1.00  0.00    -0.344 N 
HETATM    5  C18 UNL     1      24.344   1.007  53.411  1.00  0.00     0.129 A 
ENDROOT
BRANCH   3   6
HETATM    6  S1  UNL     1      24.127   2.922  50.042  1.00  0.00    -0.072 SA
BRANCH   6   7
HETATM    7  C8  UNL     1      25.355   4.068  49.461  1.00  0.00     0.013 A 
HETATM    8  C9  UNL     1      26.684   3.713  49.263  1.00  0.00     0.019 A 
HETATM    9  C10 UNL     1      27.601   4.662  48.803  1.00  0.00     0.001 A 
HETATM   10  C11 UNL     1      27.150   5.960  48.552  1.00  0.00     0.001 A 
HETATM   11  C12 UNL     1      25.820   6.322  48.748  1.00  0.00     0.008 A 
HETATM   12  C13 UNL     1      24.922   5.358  49.207  1.00  0.00    -0.045 A 
HETATM   13  C14 UNL     1      23.498   5.790  49.406  1.00  0.00     0.049 C 
ENDBRANCH   6   7
ENDBRANCH   3   6
BRANCH   4  14
HETATM   14  C15 UNL     1      22.427   0.862  51.991  1.00  0.00     0.082 C 
HETATM   15  C16 UNL     1      21.404   1.911  52.429  1.00  0.00     0.032 C 
HETATM   16  C17 UNL     1      22.142  -0.453  52.636  1.00  0.00     0.032 C 
ENDBRANCH   4  14
BRANCH   1  17
HETATM   17  O2  UNL     1      26.547   1.535  54.442  1.00  0.00    -0.277 OA
BRANCH  17  18
HETATM   18  C4  UNL     1      27.094   0.322  54.863  1.00  0.00     0.264 C 
HETATM   19  O1  UNL     1      26.331  -0.637  55.226  1.00  0.00    -0.265 OA
BRANCH  18  20
HETATM   20  C3  UNL     1      28.580   0.290  54.838  1.00  0.00     0.111 C 
BRANCH  20  21
HETATM   21  C2  UNL     1      29.067  -0.016  53.442  1.00  0.00     0.005 C 
HETATM   22  C1  UNL     1      29.400  -1.495  53.403  1.00  0.00     0.005 C 
ENDBRANCH  20  21
ENDBRANCH  18  20
ENDBRANCH  17  18
ENDBRANCH   1  17
TORSDOF 7
ENDMDL
MODEL 7
REMARK VINA RESULT:      -7.0      3.076      6.428
REMARK  7 active torsions:
REMARK  status: ('A' for Active; 'I' for Inactive)
REMARK    1  A    between atoms: C2_2  and  C3_3 
REMARK    2  A    between atoms: C3_3  and  C4_4 
REMARK    3  A    between atoms: C4_4  and  O2_6 
REMARK    4  A    between atoms: O2_6  and  C5_7 
REMARK    5  A    between atoms: C7_9  and  S1_10 
REMARK    6  A    between atoms: S1_10  and  C8_11 
REMARK    7  A    between atoms: N1_18  and  C15_19 
ROOT
HETATM    1  C5  UNL     1      25.816   3.086  50.280  1.00  0.00     0.097 A 
HETATM    2  C6  UNL     1      26.689   2.517  51.195  1.00  0.00     0.076 A 
HETATM    3  C7  UNL     1      25.859   2.132  52.230  1.00  0.00     0.079 A 
HETATM    4  N1  UNL     1      24.574   2.437  51.977  1.00  0.00    -0.344 N 
HETATM    5  C18 UNL     1      24.523   3.033  50.767  1.00  0.00     0.129 A 
ENDROOT
BRANCH   3   6
HETATM    6  S1  UNL     1      26.342   1.328  53.742  1.00  0.00    -0.072 SA
BRANCH   6   7
HETATM    7  C8  UNL     1      27.308  -0.133  53.441  1.00  0.00     0.013 A 
HETATM    8  C9  UNL     1      26.769  -1.295  52.901  1.00  0.00     0.019 A 
HETATM    9  C10 UNL     1      27.583  -2.411  52.689  1.00  0.00     0.001 A 
HETATM   10  C11 UNL     1      28.935  -2.327  53.030  1.00  0.00     0.001 A 
HETATM   11  C12 UNL     1      29.481  -1.167  53.570  1.00  0.00     0.008 A 
HETATM   12  C13 UNL     1      28.650  -0.065  53.774  1.00  0.00    -0.045 A 
HETATM   13  C14 UNL     1      29.279   1.167  54.359  1.00  0.00     0.049 C 
ENDBRANCH   6   7
ENDBRANCH   3   6
BRANCH   4  14
HETATM   14  C15 UNL     1      23.347   2.260  52.699  1.00  0.00     0.082 C 
HETATM   15  C16 UNL     1      22.949   0.787  52.599  1.00  0.00     0.032 C 
HETATM   16  C17 UNL     1      22.233   3.139  52.237  1.00  0.00     0.032 C 
ENDBRANCH   4  14
BRANCH   1  17
HETATM   17  O2  UNL     1      26.241   3.617  49.064  1.00  0.00    -0.277 OA
BRANCH  17  18
HETATM   18  C4  UNL     1      26.979   4.798  48.963  1.00  0.00     0.264 C 
HETATM   19  O1  UNL     1      28.221   4.759  48.665  1.00  0.00    -0.265 OA
BRANCH  18  20
HETATM   20  C3  UNL     1      26.187   6.028  49.229  1.00  0.00     0.111 C 
BRANCH  20  21
HETATM   21  C2  UNL     1      26.935   7.242  48.734  1.00  0.00     0.005 C 
HETATM   22  C1  UNL     1      26.253   7.694  47.457  1.00  0.00     0.005 C 
ENDBRANCH  20  21
ENDBRANCH  18  20
ENDBRANCH  17  18
ENDBRANCH   1  17
TORSDOF 7
ENDMDL
MODEL 8
REMARK VINA RESULT:      -7.0      1.762      2.527
REMARK  7 active torsions:
REMARK  status: ('A' for Active; 'I' for Inactive)
REMARK    1  A    between atoms: C2_2  and  C3_3 
REMARK    2  A    between atoms: C3_3  and  C4_4 
REMARK    3  A    between atoms: C4_4  and  O2_6 
REMARK    4  A    between atoms: O2_6  and  C5_7 
REMARK    5  A    between atoms: C7_9  and  S1_10 
REMARK    6  A    between atoms: S1_10  and  C8_11 
REMARK    7  A    between atoms: N1_18  and  C15_19 
ROOT
HETATM    1  C5  UNL     1      25.455  -0.085  53.637  1.00  0.00     0.097 A 
HETATM    2  C6  UNL     1      25.316   0.825  52.599  1.00  0.00     0.076 A 
HETATM    3  C7  UNL     1      23.962   0.792  52.326  1.00  0.00     0.079 A 
HETATM    4  N1  UNL     1      23.313  -0.069  53.131  1.00  0.00    -0.344 N 
HETATM    5  C18 UNL     1      24.224  -0.627  53.956  1.00  0.00     0.129 A 
ENDROOT
BRANCH   3   6
HETATM    6  S1  UNL     1      23.101   1.734  51.087  1.00  0.00    -0.072 SA
BRANCH   6   7
HETATM    7  C8  UNL     1      23.974   3.220  50.652  1.00  0.00     0.013 A 
HETATM    8  C9  UNL     1      25.008   3.242  49.724  1.00  0.00     0.019 A 
HETATM    9  C10 UNL     1      25.655   4.445  49.427  1.00  0.00     0.001 A 
HETATM   10  C11 UNL     1      25.239   5.607  50.079  1.00  0.00     0.001 A 
HETATM   11  C12 UNL     1      24.204   5.592  51.011  1.00  0.00     0.008 A 
HETATM   12  C13 UNL     1      23.573   4.380  51.292  1.00  0.00    -0.045 A 
HETATM   13  C14 UNL     1      22.462   4.406  52.302  1.00  0.00     0.049 C 
ENDBRANCH   6   7
ENDBRANCH   3   6
BRANCH   4  14
HETATM   14  C15 UNL     1      21.942  -0.468  53.263  1.00  0.00     0.082 C 
HETATM   15  C16 UNL     1      21.171   0.691  53.896  1.00  0.00     0.032 C 
HETATM   16  C17 UNL     1      21.744  -1.723  54.046  1.00  0.00     0.032 C 
ENDBRANCH   4  14
BRANCH   1  17
HETATM   17  O2  UNL     1      26.684  -0.368  54.229  1.00  0.00    -0.277 OA
BRANCH  17  18
HETATM   18  C4  UNL     1      27.749  -0.952  53.540  1.00  0.00     0.264 C 
HETATM   19  O1  UNL     1      27.642  -2.137  53.073  1.00  0.00    -0.265 OA
BRANCH  18  20
HETATM   20  C3  UNL     1      28.945  -0.077  53.427  1.00  0.00     0.111 C 
BRANCH  20  21
HETATM   21  C2  UNL     1      28.868   1.038  54.442  1.00  0.00     0.005 C 
HETATM   22  C1  UNL     1      28.721   2.335  53.669  1.00  0.00     0.005 C 
ENDBRANCH  20  21
ENDBRANCH  18  20
ENDBRANCH  17  18
ENDBRANCH   1  17
TORSDOF 7
ENDMDL
MODEL 9
REMARK VINA RESULT:      -7.0      2.683      4.245
REMARK  7 active torsions:
REMARK  status: ('A' for Active; 'I' for Inactive)
REMARK    1  A    between atoms: C2_2  and  C3_3 
REMARK    2  A    between atoms: C3_3  and  C4_4 
REMARK    3  A    between atoms: C4_4  and  O2_6 
REMARK    4  A    between atoms: O2_6  and  C5_7 
REMARK    5  A    between atoms: C7_9  and  S1_10 
REMARK    6  A    between atoms: S1_10  and  C8_11 
REMARK    7  A    between atoms: N1_18  and  C15_19 
ROOT
HETATM    1  C5  UNL     1      26.012   2.066  53.326  1.00  0.00     0.097 A 
HETATM    2  C6  UNL     1      26.829   2.375  52.248  1.00  0.00     0.076 A 
HETATM    3  C7  UNL     1      25.930   2.685  51.246  1.00  0.00     0.079 A 
HETATM    4  N1  UNL     1      24.657   2.578  51.668  1.00  0.00    -0.344 N 
HETATM    5  C18 UNL     1      24.684   2.193  52.962  1.00  0.00     0.129 A 
ENDROOT
BRANCH   3   6
HETATM    6  S1  UNL     1      26.318   3.175  49.580  1.00  0.00    -0.072 SA
BRANCH   6   7
HETATM    7  C8  UNL     1      25.976   4.895  49.294  1.00  0.00     0.013 A 
HETATM    8  C9  UNL     1      24.750   5.479  49.586  1.00  0.00     0.019 A 
HETATM    9  C10 UNL     1      24.545   6.839  49.336  1.00  0.00     0.001 A 
HETATM   10  C11 UNL     1      25.594   7.584  48.794  1.00  0.00     0.001 A 
HETATM   11  C12 UNL     1      26.826   7.006  48.500  1.00  0.00     0.008 A 
HETATM   12  C13 UNL     1      27.008   5.647  48.757  1.00  0.00    -0.045 A 
HETATM   13  C14 UNL     1      28.350   5.062  48.425  1.00  0.00     0.049 C 
ENDBRANCH   6   7
ENDBRANCH   3   6
BRANCH   4  14
HETATM   14  C15 UNL     1      23.381   2.782  51.046  1.00  0.00     0.082 C 
HETATM   15  C16 UNL     1      22.516   3.604  52.002  1.00  0.00     0.032 C 
HETATM   16  C17 UNL     1      22.683   1.522  50.655  1.00  0.00     0.032 C 
ENDBRANCH   4  14
BRANCH   1  17
HETATM   17  O2  UNL     1      26.516   1.689  54.569  1.00  0.00    -0.277 OA
BRANCH  17  18
HETATM   18  C4  UNL     1      26.848   0.372  54.891  1.00  0.00     0.264 C 
HETATM   19  O1  UNL     1      25.936  -0.462  55.216  1.00  0.00    -0.265 OA
BRANCH  18  20
HETATM   20  C3  UNL     1      28.305   0.083  54.815  1.00  0.00     0.111 C 
BRANCH  20  21
HETATM   21  C2  UNL     1      28.614  -0.685  53.552  1.00  0.00     0.005 C 
HETATM   22  C1  UNL     1      30.103  -0.973  53.560  1.00  0.00     0.005 C 
ENDBRANCH  20  21
ENDBRANCH  18  20
ENDBRANCH  17  18
ENDBRANCH   1  17
TORSDOF 7
ENDMDL
