MODEL 1
REMARK VINA RESULT:      -8.4      0.000      0.000
REMARK  2 active torsions:
REMARK  status: ('A' for Active; 'I' for Inactive)
REMARK    1  A    between atoms: C4_4  and  C5_5 
REMARK    2  A    between atoms: C6_9  and  O1_10 
ROOT
HETATM    1  C5  UNL     1      25.254   0.120  53.405  1.00  0.00     0.068 C 
HETATM    2  N1  UNL     1      24.311  -0.742  53.228  1.00  0.00    -0.160 NA
HETATM    3  N2  UNL     1      23.058  -0.149  53.158  1.00  0.00    -0.204 N 
HETATM    4  N3  UNL     1      21.728  -0.605  53.302  1.00  0.00    -0.261 N 
HETATM    5  C6  UNL     1      20.695   0.377  53.530  1.00  0.00     0.162 C 
HETATM    6  C7  UNL     1      19.937   1.118  52.734  1.00  0.00     0.103 C 
HETATM    7  S1  UNL     1      20.173   0.933  50.999  1.00  0.00    -0.124 SA
HETATM    8  C8  UNL     1      21.197   2.244  50.265  1.00  0.00     0.104 A 
HETATM    9  C9  UNL     1      20.312   3.327  49.865  1.00  0.00     0.001 A 
HETATM   10  C10 UNL     1      20.394   4.616  50.154  1.00  0.00    -0.058 A 
HETATM   11  C11 UNL     1      19.376   5.599  49.647  1.00  0.00     0.049 C 
HETATM   12  P1  UNL     1      21.772   5.243  51.194  1.00  0.00    -0.076 P 
HETATM   13  C12 UNL     1      22.791   3.725  51.512  1.00  0.00     0.012 A 
HETATM   14  C13 UNL     1      22.374   2.560  51.035  1.00  0.00    -0.059 A 
HETATM   15  C14 UNL     1      23.280   1.421  51.359  1.00  0.00     0.065 C 
HETATM   16  C15 UNL     1      23.309   1.245  52.867  1.00  0.00     0.139 C 
HETATM   17  C16 UNL     1      24.655   1.478  53.473  1.00  0.00     0.091 C 
HETATM   18  H5  UNL     1      21.536  -1.644  53.238  1.00  0.00     0.191 HD
HETATM   19  H13 UNL     1      21.276   5.652  52.518  1.00  0.00     0.066 HD
ENDROOT
BRANCH   1  20
HETATM   20  C4  UNL     1      26.675  -0.185  53.519  1.00  0.00    -0.009 A 
HETATM   21  C3  UNL     1      27.755   0.188  54.422  1.00  0.00     0.020 A 
HETATM   22  C2  UNL     1      28.623  -0.551  53.746  1.00  0.00    -0.060 A 
HETATM   23  C1  UNL     1      30.060  -0.968  53.715  1.00  0.00     0.048 C 
HETATM   24  C17 UNL     1      27.541  -0.923  52.842  1.00  0.00     0.020 A 
ENDBRANCH   1  20
BRANCH   5  25
HETATM   25  O1  UNL     1      20.716   0.322  54.918  1.00  0.00    -0.345 OA
HETATM   26  H6  UNL     1      21.518  -0.111  55.386  1.00  0.00     0.219 HD
ENDBRANCH   5  25
TORSDOF 2
ENDMDL
MODEL 2
REMARK VINA RESULT:      -8.2      2.787      3.236
REMARK  2 active torsions:
REMARK  status: ('A' for Active; 'I' for Inactive)
REMARK    1  A    between atoms: C4_4  and  C5_5 
REMARK    2  A    between atoms: C6_9  and  O1_10 
ROOT
HETATM    1  C5  UNL     1      26.253   1.818  52.662  1.00  0.00     0.068 C 
HETATM    2  N1  UNL     1      25.510   2.415  53.532  1.00  0.00    -0.160 NA
HETATM    3  N2  UNL     1      24.569   3.247  52.943  1.00  0.00    -0.204 N 
HETATM    4  N3  UNL     1      23.773   4.327  53.387  1.00  0.00    -0.261 N 
HETATM    5  C6  UNL     1      23.182   5.189  52.392  1.00  0.00     0.162 C 
HETATM    6  C7  UNL     1      22.052   5.157  51.699  1.00  0.00     0.103 C 
HETATM    7  S1  UNL     1      20.971   3.797  51.988  1.00  0.00    -0.124 SA
HETATM    8  C8  UNL     1      21.094   2.495  50.724  1.00  0.00     0.104 A 
HETATM    9  C9  UNL     1      20.148   2.814  49.666  1.00  0.00     0.001 A 
HETATM   10  C10 UNL     1      20.359   2.899  48.362  1.00  0.00    -0.058 A 
HETATM   11  C11 UNL     1      19.248   3.243  47.410  1.00  0.00     0.049 C 
HETATM   12  P1  UNL     1      22.035   2.593  47.676  1.00  0.00    -0.076 P 
HETATM   13  C12 UNL     1      23.033   2.141  49.173  1.00  0.00     0.012 A 
HETATM   14  C13 UNL     1      22.449   2.162  50.364  1.00  0.00    -0.059 A 
HETATM   15  C14 UNL     1      23.358   1.779  51.483  1.00  0.00     0.065 C 
HETATM   16  C15 UNL     1      24.474   2.806  51.569  1.00  0.00     0.139 C 
HETATM   17  C16 UNL     1      25.831   2.241  51.302  1.00  0.00     0.091 C 
HETATM   18  H5  UNL     1      23.638   4.466  54.428  1.00  0.00     0.191 HD
HETATM   19  H13 UNL     1      22.631   3.848  47.187  1.00  0.00     0.066 HD
ENDROOT
BRANCH   1  20
HETATM   20  C4  UNL     1      27.330   0.883  52.962  1.00  0.00    -0.009 A 
HETATM   21  C3  UNL     1      27.497  -0.564  52.932  1.00  0.00     0.020 A 
HETATM   22  C2  UNL     1      28.750  -0.463  53.351  1.00  0.00    -0.060 A 
HETATM   23  C1  UNL     1      29.957  -1.277  53.701  1.00  0.00     0.048 C 
HETATM   24  C17 UNL     1      28.582   0.985  53.381  1.00  0.00     0.020 A 
ENDBRANCH   1  20
BRANCH   5  25
HETATM   25  O1  UNL     1      24.201   6.133  52.363  1.00  0.00    -0.345 OA
HETATM   26  H6  UNL     1      25.128   5.854  52.031  1.00  0.00     0.219 HD
ENDBRANCH   5  25
TORSDOF 2
ENDMDL
MODEL 3
REMARK VINA RESULT:      -7.7      4.324      6.167
REMARK  2 active torsions:
REMARK  status: ('A' for Active; 'I' for Inactive)
REMARK    1  A    between atoms: C4_4  and  C5_5 
REMARK    2  A    between atoms: C6_9  and  O1_10 
ROOT
HETATM    1  C5  UNL     1      25.071   4.530  49.115  1.00  0.00     0.068 C 
HETATM    2  N1  UNL     1      23.817   4.633  48.830  1.00  0.00    -0.160 NA
HETATM    3  N2  UNL     1      23.106   3.485  49.146  1.00  0.00    -0.204 N 
HETATM    4  N3  UNL     1      21.854   2.948  48.768  1.00  0.00    -0.261 N 
HETATM    5  C6  UNL     1      21.612   1.547  49.016  1.00  0.00     0.162 C 
HETATM    6  C7  UNL     1      21.148   0.862  50.052  1.00  0.00     0.103 C 
HETATM    7  S1  UNL     1      20.704   1.779  51.488  1.00  0.00    -0.124 SA
HETATM    8  C8  UNL     1      21.975   1.746  52.788  1.00  0.00     0.104 A 
HETATM    9  C9  UNL     1      21.709   0.596  53.639  1.00  0.00     0.001 A 
HETATM   10  C10 UNL     1      22.534  -0.371  54.009  1.00  0.00    -0.058 A 
HETATM   11  C11 UNL     1      22.078  -1.490  54.902  1.00  0.00     0.049 C 
HETATM   12  P1  UNL     1      24.279  -0.365  53.435  1.00  0.00    -0.076 P 
HETATM   13  C12 UNL     1      24.399   1.202  52.450  1.00  0.00     0.012 A 
HETATM   14  C13 UNL     1      23.314   1.949  52.296  1.00  0.00    -0.059 A 
HETATM   15  C14 UNL     1      23.544   3.179  51.485  1.00  0.00     0.065 C 
HETATM   16  C15 UNL     1      23.941   2.761  50.080  1.00  0.00     0.139 C 
HETATM   17  C16 UNL     1      25.321   3.185  49.695  1.00  0.00     0.091 C 
HETATM   18  H5  UNL     1      21.142   3.589  48.318  1.00  0.00     0.191 HD
HETATM   19  H13 UNL     1      24.506  -1.445  52.460  1.00  0.00     0.066 HD
ENDROOT
BRANCH   1  20
HETATM   20  C4  UNL     1      26.079   5.561  48.903  1.00  0.00    -0.009 A 
HETATM   21  C3  UNL     1      27.485   5.587  48.522  1.00  0.00     0.020 A 
HETATM   22  C2  UNL     1      27.517   6.909  48.594  1.00  0.00    -0.060 A 
HETATM   23  C1  UNL     1      28.421   8.089  48.419  1.00  0.00     0.048 C 
HETATM   24  C17 UNL     1      26.110   6.883  48.975  1.00  0.00     0.020 A 
ENDBRANCH   1  20
BRANCH   5  25
HETATM   25  O1  UNL     1      22.030   1.084  47.775  1.00  0.00    -0.345 OA
HETATM   26  H6  UNL     1      22.384   0.126  47.696  1.00  0.00     0.219 HD
ENDBRANCH   5  25
TORSDOF 2
ENDMDL
MODEL 4
REMARK VINA RESULT:      -7.6      3.183      6.981
REMARK  2 active torsions:
REMARK  status: ('A' for Active; 'I' for Inactive)
REMARK    1  A    between atoms: C4_4  and  C5_5 
REMARK    2  A    between atoms: C6_9  and  O1_10 
ROOT
HETATM    1  C5  UNL     1      20.131   0.717  52.511  1.00  0.00     0.068 C 
HETATM    2  N1  UNL     1      20.342   1.588  51.583  1.00  0.00    -0.160 NA
HETATM    3  N2  UNL     1      21.507   2.312  51.793  1.00  0.00    -0.204 N 
HETATM    4  N3  UNL     1      22.022   3.538  51.313  1.00  0.00    -0.261 N 
HETATM    5  C6  UNL     1      23.106   4.152  52.041  1.00  0.00     0.162 C 
HETATM    6  C7  UNL     1      24.426   4.035  52.000  1.00  0.00     0.103 C 
HETATM    7  S1  UNL     1      25.096   2.904  50.829  1.00  0.00    -0.124 SA
HETATM    8  C8  UNL     1      25.568   1.306  51.557  1.00  0.00     0.104 A 
HETATM    9  C9  UNL     1      26.950   1.412  52.002  1.00  0.00     0.001 A 
HETATM   10  C10 UNL     1      27.464   1.126  53.188  1.00  0.00    -0.058 A 
HETATM   11  C11 UNL     1      28.931   1.300  53.467  1.00  0.00     0.049 C 
HETATM   12  P1  UNL     1      26.384   0.500  54.536  1.00  0.00    -0.076 P 
HETATM   13  C12 UNL     1      24.719   0.379  53.726  1.00  0.00     0.012 A 
HETATM   14  C13 UNL     1      24.588   0.770  52.466  1.00  0.00    -0.059 A 
HETATM   15  C14 UNL     1      23.202   0.621  51.935  1.00  0.00     0.065 C 
HETATM   16  C15 UNL     1      22.282   1.530  52.731  1.00  0.00     0.139 C 
HETATM   17  C16 UNL     1      21.234   0.796  53.502  1.00  0.00     0.091 C 
HETATM   18  H5  UNL     1      21.597   3.962  50.441  1.00  0.00     0.191 HD
HETATM   19  H13 UNL     1      26.223   1.521  55.585  1.00  0.00     0.066 HD
ENDROOT
BRANCH   1  20
HETATM   20  C4  UNL     1      18.996  -0.196  52.577  1.00  0.00    -0.009 A 
HETATM   21  C3  UNL     1      18.594  -1.303  53.434  1.00  0.00     0.020 A 
HETATM   22  C2  UNL     1      17.481  -1.483  52.738  1.00  0.00    -0.060 A 
HETATM   23  C1  UNL     1      16.251  -2.332  52.660  1.00  0.00     0.048 C 
HETATM   24  C17 UNL     1      17.885  -0.375  51.880  1.00  0.00     0.020 A 
ENDBRANCH   1  20
BRANCH   5  25
HETATM   25  O1  UNL     1      22.323   4.959  52.857  1.00  0.00    -0.345 OA
HETATM   26  H6  UNL     1      22.368   5.975  52.741  1.00  0.00     0.219 HD
ENDBRANCH   5  25
TORSDOF 2
ENDMDL
MODEL 5
REMARK VINA RESULT:      -7.5      3.292      3.946
REMARK  2 active torsions:
REMARK  status: ('A' for Active; 'I' for Inactive)
REMARK    1  A    between atoms: C4_4  and  C5_5 
REMARK    2  A    between atoms: C6_9  and  O1_10 
ROOT
HETATM    1  C5  UNL     1      27.335   0.925  52.348  1.00  0.00     0.068 C 
HETATM    2  N1  UNL     1      27.398   2.212  52.285  1.00  0.00    -0.160 NA
HETATM    3  N2  UNL     1      26.301   2.764  51.640  1.00  0.00    -0.204 N 
HETATM    4  N3  UNL     1      26.023   4.009  51.029  1.00  0.00    -0.261 N 
HETATM    5  C6  UNL     1      24.895   4.089  50.133  1.00  0.00     0.162 C 
HETATM    6  C7  UNL     1      23.602   4.328  50.298  1.00  0.00     0.103 C 
HETATM    7  S1  UNL     1      23.043   4.624  51.942  1.00  0.00    -0.124 SA
HETATM    8  C8  UNL     1      22.271   3.172  52.716  1.00  0.00     0.104 A 
HETATM    9  C9  UNL     1      20.850   3.204  52.401  1.00  0.00     0.001 A 
HETATM   10  C10 UNL     1      20.094   2.252  51.877  1.00  0.00    -0.058 A 
HETATM   11  C11 UNL     1      18.630   2.468  51.620  1.00  0.00     0.049 C 
HETATM   12  P1  UNL     1      20.826   0.622  51.449  1.00  0.00    -0.076 P 
HETATM   13  C12 UNL     1      22.590   0.790  51.999  1.00  0.00     0.012 A 
HETATM   14  C13 UNL     1      22.998   1.946  52.505  1.00  0.00    -0.059 A 
HETATM   15  C14 UNL     1      24.435   1.949  52.907  1.00  0.00     0.065 C 
HETATM   16  C15 UNL     1      25.283   1.737  51.666  1.00  0.00     0.139 C 
HETATM   17  C16 UNL     1      26.080   0.474  51.692  1.00  0.00     0.091 C 
HETATM   18  H5  UNL     1      26.647   4.834  51.250  1.00  0.00     0.191 HD
HETATM   19  H13 UNL     1      20.898   0.456  49.988  1.00  0.00     0.066 HD
ENDROOT
BRANCH   1  20
HETATM   20  C4  UNL     1      28.329   0.054  52.961  1.00  0.00    -0.009 A 
HETATM   21  C3  UNL     1      29.649   0.227  53.552  1.00  0.00     0.020 A 
HETATM   22  C2  UNL     1      29.742  -1.069  53.811  1.00  0.00    -0.060 A 
HETATM   23  C1  UNL     1      30.648  -2.101  54.408  1.00  0.00     0.048 C 
HETATM   24  C17 UNL     1      28.422  -1.242  53.219  1.00  0.00     0.020 A 
ENDBRANCH   1  20
BRANCH   5  25
HETATM   25  O1  UNL     1      25.595   3.827  48.961  1.00  0.00    -0.345 OA
HETATM   26  H6  UNL     1      25.091   3.446  48.156  1.00  0.00     0.219 HD
ENDBRANCH   5  25
TORSDOF 2
ENDMDL
MODEL 6
REMARK VINA RESULT:      -7.3      2.483      2.977
REMARK  2 active torsions:
REMARK  status: ('A' for Active; 'I' for Inactive)
REMARK    1  A    between atoms: C4_4  and  C5_5 
REMARK    2  A    between atoms: C6_9  and  O1_10 
ROOT
HETATM    1  C5  UNL     1      24.865   1.436  52.258  1.00  0.00     0.068 C 
HETATM    2  N1  UNL     1      23.772   1.001  51.727  1.00  0.00    -0.160 NA
HETATM    3  N2  UNL     1      22.829   2.005  51.560  1.00  0.00    -0.204 N 
HETATM    4  N3  UNL     1      21.430   2.038  51.355  1.00  0.00    -0.261 N 
HETATM    5  C6  UNL     1      20.737   3.280  51.598  1.00  0.00     0.162 C 
HETATM    6  C7  UNL     1      20.473   4.348  50.859  1.00  0.00     0.103 C 
HETATM    7  S1  UNL     1      21.060   4.342  49.199  1.00  0.00    -0.124 SA
HETATM    8  C8  UNL     1      22.594   5.292  48.971  1.00  0.00     0.104 A 
HETATM    9  C9  UNL     1      22.223   6.665  48.662  1.00  0.00     0.001 A 
HETATM   10  C10 UNL     1      22.633   7.785  49.237  1.00  0.00    -0.058 A 
HETATM   11  C11 UNL     1      22.136   9.127  48.780  1.00  0.00     0.049 C 
HETATM   12  P1  UNL     1      23.837   7.723  50.624  1.00  0.00    -0.076 P 
HETATM   13  C12 UNL     1      24.212   5.913  50.783  1.00  0.00     0.012 A 
HETATM   14  C13 UNL     1      23.581   5.055  49.993  1.00  0.00    -0.059 A 
HETATM   15  C14 UNL     1      23.972   3.634  50.221  1.00  0.00     0.065 C 
HETATM   16  C15 UNL     1      23.570   3.245  51.633  1.00  0.00     0.139 C 
HETATM   17  C16 UNL     1      24.727   2.894  52.511  1.00  0.00     0.091 C 
HETATM   18  H5  UNL     1      20.943   1.156  51.030  1.00  0.00     0.191 HD
HETATM   19  H13 UNL     1      23.183   8.089  51.892  1.00  0.00     0.066 HD
ENDROOT
BRANCH   1  20
HETATM   20  C4  UNL     1      26.042   0.632  52.561  1.00  0.00    -0.009 A 
HETATM   21  C3  UNL     1      26.486  -0.724  52.266  1.00  0.00     0.020 A 
HETATM   22  C2  UNL     1      27.616  -0.536  52.931  1.00  0.00    -0.060 A 
HETATM   23  C1  UNL     1      28.888  -1.215  53.332  1.00  0.00     0.048 C 
HETATM   24  C17 UNL     1      27.171   0.821  53.226  1.00  0.00     0.020 A 
ENDBRANCH   1  20
BRANCH   5  25
HETATM   25  O1  UNL     1      20.397   3.024  52.921  1.00  0.00    -0.345 OA
HETATM   26  H6  UNL     1      20.313   3.808  53.573  1.00  0.00     0.219 HD
ENDBRANCH   5  25
TORSDOF 2
ENDMDL
MODEL 7
REMARK VINA RESULT:      -7.3      3.688      4.646
REMARK  2 active torsions:
REMARK  status: ('A' for Active; 'I' for Inactive)
REMARK    1  A    between atoms: C4_4  and  C5_5 
REMARK    2  A    between atoms: C6_9  and  O1_10 
ROOT
HETATM    1  C5  UNL     1      25.076   2.550  51.613  1.00  0.00     0.068 C 
HETATM    2  N1  UNL     1      24.626   3.430  52.442  1.00  0.00    -0.160 NA
HETATM    3  N2  UNL     1      24.192   4.584  51.806  1.00  0.00    -0.204 N 
HETATM    4  N3  UNL     1      23.935   5.913  52.212  1.00  0.00    -0.261 N 
HETATM    5  C6  UNL     1      23.852   6.931  51.193  1.00  0.00     0.162 C 
HETATM    6  C7  UNL     1      22.871   7.393  50.431  1.00  0.00     0.103 C 
HETATM    7  S1  UNL     1      21.282   6.663  50.635  1.00  0.00    -0.124 SA
HETATM    8  C8  UNL     1      20.889   5.421  49.367  1.00  0.00     0.104 A 
HETATM    9  C9  UNL     1      20.249   6.110  48.255  1.00  0.00     0.001 A 
HETATM   10  C10 UNL     1      20.555   6.070  46.968  1.00  0.00    -0.058 A 
HETATM   11  C11 UNL     1      19.774   6.857  45.953  1.00  0.00     0.049 C 
HETATM   12  P1  UNL     1      21.958   5.038  46.384  1.00  0.00    -0.076 P 
HETATM   13  C12 UNL     1      22.556   4.214  47.935  1.00  0.00     0.012 A 
HETATM   14  C13 UNL     1      21.972   4.514  49.087  1.00  0.00    -0.059 A 
HETATM   15  C14 UNL     1      22.545   3.785  50.256  1.00  0.00     0.065 C 
HETATM   16  C15 UNL     1      23.994   4.208  50.423  1.00  0.00     0.139 C 
HETATM   17  C16 UNL     1      24.970   3.093  50.234  1.00  0.00     0.091 C 
HETATM   18  H5  UNL     1      23.813   6.115  53.244  1.00  0.00     0.191 HD
HETATM   19  H13 UNL     1      23.079   5.888  45.948  1.00  0.00     0.066 HD
ENDROOT
BRANCH   1  20
HETATM   20  C4  UNL     1      25.603   1.238  51.968  1.00  0.00    -0.009 A 
HETATM   21  C3  UNL     1      25.141   0.104  52.757  1.00  0.00     0.020 A 
HETATM   22  C2  UNL     1      26.251  -0.572  52.500  1.00  0.00    -0.060 A 
HETATM   23  C1  UNL     1      26.939  -1.874  52.766  1.00  0.00     0.048 C 
HETATM   24  C17 UNL     1      26.714   0.564  51.711  1.00  0.00     0.020 A 
ENDBRANCH   1  20
BRANCH   5  25
HETATM   25  O1  UNL     1      25.184   7.322  51.239  1.00  0.00    -0.345 OA
HETATM   26  H6  UNL     1      25.433   8.183  51.734  1.00  0.00     0.219 HD
ENDBRANCH   5  25
TORSDOF 2
ENDMDL
MODEL 8
REMARK VINA RESULT:      -7.3     11.181     12.910
REMARK  2 active torsions:
REMARK  status: ('A' for Active; 'I' for Inactive)
REMARK    1  A    between atoms: C4_4  and  C5_5 
REMARK    2  A    between atoms: C6_9  and  O1_10 
ROOT
HETATM    1  C5  UNL     1      29.762   5.675  48.345  1.00  0.00     0.068 C 
HETATM    2  N1  UNL     1      30.628   5.674  49.302  1.00  0.00    -0.160 NA
HETATM    3  N2  UNL     1      31.932   5.764  48.835  1.00  0.00    -0.204 N 
HETATM    4  N3  UNL     1      33.209   5.485  49.376  1.00  0.00    -0.261 N 
HETATM    5  C6  UNL     1      34.318   5.350  48.464  1.00  0.00     0.162 C 
HETATM    6  C7  UNL     1      35.172   6.204  47.918  1.00  0.00     0.103 C 
HETATM    7  S1  UNL     1      34.988   7.904  48.340  1.00  0.00    -0.124 SA
HETATM    8  C8  UNL     1      34.118   8.874  47.072  1.00  0.00     0.104 A 
HETATM    9  C9  UNL     1      35.115   9.381  46.141  1.00  0.00     0.001 A 
HETATM   10  C10 UNL     1      35.141   9.288  44.820  1.00  0.00    -0.058 A 
HETATM   11  C11 UNL     1      36.264   9.879  44.016  1.00  0.00     0.049 C 
HETATM   12  P1  UNL     1      33.787   8.424  43.929  1.00  0.00    -0.076 P 
HETATM   13  C12 UNL     1      32.621   7.942  45.289  1.00  0.00     0.012 A 
HETATM   14  C13 UNL     1      32.947   8.222  46.544  1.00  0.00    -0.059 A 
HETATM   15  C14 UNL     1      31.927   7.782  47.539  1.00  0.00     0.065 C 
HETATM   16  C15 UNL     1      31.823   6.268  47.484  1.00  0.00     0.139 C 
HETATM   17  C16 UNL     1      30.482   5.775  47.049  1.00  0.00     0.091 C 
HETATM   18  H5  UNL     1      33.306   5.387  50.426  1.00  0.00     0.191 HD
HETATM   19  H13 UNL     1      34.266   7.150  43.370  1.00  0.00     0.066 HD
ENDROOT
BRANCH   1  20
HETATM   20  C4  UNL     1      28.317   5.592  48.507  1.00  0.00    -0.009 A 
HETATM   21  C3  UNL     1      27.363   4.553  48.871  1.00  0.00     0.020 A 
HETATM   22  C2  UNL     1      26.347   5.394  48.750  1.00  0.00    -0.060 A 
HETATM   23  C1  UNL     1      24.857   5.485  48.870  1.00  0.00     0.048 C 
HETATM   24  C17 UNL     1      27.301   6.434  48.385  1.00  0.00     0.020 A 
ENDBRANCH   1  20
BRANCH   5  25
HETATM   25  O1  UNL     1      34.237   3.972  48.307  1.00  0.00    -0.345 OA
HETATM   26  H6  UNL     1      33.699   3.592  47.523  1.00  0.00     0.219 HD
ENDBRANCH   5  25
TORSDOF 2
ENDMDL
MODEL 9
REMARK VINA RESULT:      -7.2      4.552      5.546
REMARK  2 active torsions:
REMARK  status: ('A' for Active; 'I' for Inactive)
REMARK    1  A    between atoms: C4_4  and  C5_5 
REMARK    2  A    between atoms: C6_9  and  O1_10 
ROOT
HETATM    1  C5  UNL     1      26.732   5.021  49.399  1.00  0.00     0.068 C 
HETATM    2  N1  UNL     1      26.836   3.818  49.854  1.00  0.00    -0.160 NA
HETATM    3  N2  UNL     1      25.727   3.434  50.594  1.00  0.00    -0.204 N 
HETATM    4  N3  UNL     1      25.461   2.421  51.544  1.00  0.00    -0.261 N 
HETATM    5  C6  UNL     1      24.292   2.562  52.377  1.00  0.00     0.162 C 
HETATM    6  C7  UNL     1      23.018   2.221  52.243  1.00  0.00     0.103 C 
HETATM    7  S1  UNL     1      22.556   1.414  50.748  1.00  0.00    -0.124 SA
HETATM    8  C8  UNL     1      21.775   2.525  49.539  1.00  0.00     0.104 A 
HETATM    9  C9  UNL     1      20.342   2.520  49.793  1.00  0.00     0.001 A 
HETATM   10  C10 UNL     1      19.527   3.549  49.972  1.00  0.00    -0.058 A 
HETATM   11  C11 UNL     1      18.060   3.350  50.226  1.00  0.00     0.049 C 
HETATM   12  P1  UNL     1      20.180   5.265  49.910  1.00  0.00    -0.076 P 
HETATM   13  C12 UNL     1      21.975   5.024  49.506  1.00  0.00     0.012 A 
HETATM   14  C13 UNL     1      22.448   3.790  49.394  1.00  0.00    -0.059 A 
HETATM   15  C14 UNL     1      23.902   3.735  49.067  1.00  0.00     0.065 C 
HETATM   16  C15 UNL     1      24.677   4.354  50.216  1.00  0.00     0.139 C 
HETATM   17  C16 UNL     1      25.430   5.587  49.837  1.00  0.00     0.091 C 
HETATM   18  H5  UNL     1      26.124   1.599  51.610  1.00  0.00     0.191 HD
HETATM   19  H13 UNL     1      20.170   5.870  51.252  1.00  0.00     0.066 HD
ENDROOT
BRANCH   1  20
HETATM   20  C4  UNL     1      27.727   5.712  48.588  1.00  0.00    -0.009 A 
HETATM   21  C3  UNL     1      27.791   6.973  47.862  1.00  0.00     0.020 A 
HETATM   22  C2  UNL     1      29.030   6.724  47.467  1.00  0.00    -0.060 A 
HETATM   23  C1  UNL     1      30.161   7.291  46.667  1.00  0.00     0.048 C 
HETATM   24  C17 UNL     1      28.966   5.461  48.194  1.00  0.00     0.020 A 
ENDBRANCH   1  20
BRANCH   5  25
HETATM   25  O1  UNL     1      24.921   3.200  53.439  1.00  0.00    -0.345 OA
HETATM   26  H6  UNL     1      24.947   4.223  53.459  1.00  0.00     0.219 HD
ENDBRANCH   5  25
TORSDOF 2
ENDMDL
