MODEL 1
REMARK VINA RESULT:      -8.4      0.000      0.000
REMARK  8 active torsions:
REMARK  status: ('A' for Active; 'I' for Inactive)
REMARK    1  A    between atoms: C2_2  and  C3_3 
REMARK    2  A    between atoms: C3_3  and  C4_5 
REMARK    3  A    between atoms: C4_5  and  C5_6 
REMARK    4  A    between atoms: C8_9  and  N1_10 
REMARK    5  A    between atoms: N1_10  and  C9_11 
REMARK    6  A    between atoms: C9_11  and  C10_12 
REMARK    7  A    between atoms: C9_11  and  C11_14 
REMARK    8  A    between atoms: C10_12  and  O2_13 
ROOT
HETATM    1  C5  UNL     1      26.334  -0.008  52.745  1.00  0.00    -0.071 C 
HETATM    2  C6  UNL     1      25.857   1.123  52.231  1.00  0.00     0.015 C 
HETATM    3  C7  UNL     1      24.410   1.040  52.355  1.00  0.00     0.002 C 
HETATM    4  C8  UNL     1      23.447   1.728  51.718  1.00  0.00     0.133 C 
HETATM    5  N2  UNL     1      22.100   1.423  52.052  1.00  0.00    -0.226 NA
HETATM    6  C17 UNL     1      21.219   2.306  52.376  1.00  0.00     0.209 C 
HETATM    7  N3  UNL     1      20.123   1.407  52.586  1.00  0.00    -0.360 N 
HETATM    8  C18 UNL     1      20.097   0.732  53.847  1.00  0.00     0.095 C 
HETATM    9  C19 UNL     1      21.137  -0.120  53.819  1.00  0.00     0.062 C 
HETATM   10  S1  UNL     1      22.532  -0.835  53.007  1.00  0.00    -0.130 SA
HETATM   11  C20 UNL     1      24.090   0.010  53.361  1.00  0.00     0.092 C 
HETATM   12  C21 UNL     1      25.276  -0.924  53.244  1.00  0.00     0.054 C 
HETATM   13  H20 UNL     1      19.246   0.931  52.289  1.00  0.00     0.166 HD
ENDROOT
BRANCH   4  14
HETATM   14  N1  UNL     1      23.831   2.706  50.760  1.00  0.00    -0.364 N 
HETATM   15  H9  UNL     1      23.804   2.463  49.749  1.00  0.00     0.162 HD
BRANCH  14  16
HETATM   16  C9  UNL     1      24.257   4.026  51.141  1.00  0.00     0.140 C 
BRANCH  16  17
HETATM   17  C10 UNL     1      23.098   5.007  51.253  1.00  0.00     0.194 C 
BRANCH  17  18
HETATM   18  O2  UNL     1      22.882   5.458  52.539  1.00  0.00    -0.399 OA
HETATM   19  H13 UNL     1      22.633   4.735  53.153  1.00  0.00     0.209 HD
ENDBRANCH  17  18
ENDBRANCH  16  17
BRANCH  16  20
HETATM   20  C11 UNL     1      25.311   4.525  50.256  1.00  0.00    -0.034 A 
HETATM   21  C12 UNL     1      25.252   5.867  49.906  1.00  0.00     0.009 A 
HETATM   22  C13 UNL     1      26.246   6.350  49.066  1.00  0.00     0.001 A 
HETATM   23  C14 UNL     1      27.287   5.585  48.560  1.00  0.00     0.000 A 
HETATM   24  C15 UNL     1      27.296   4.255  48.941  1.00  0.00     0.001 A 
HETATM   25  C16 UNL     1      26.333   3.713  49.775  1.00  0.00     0.009 A 
ENDBRANCH  16  20
ENDBRANCH  14  16
ENDBRANCH   4  14
BRANCH   1  26
HETATM   26  C4  UNL     1      27.770  -0.374  52.837  1.00  0.00     0.112 C 
BRANCH  26  27
HETATM   27  C3  UNL     1      28.331   0.123  54.126  1.00  0.00     0.130 C 
HETATM   28  O1  UNL     1      27.982  -0.330  55.226  1.00  0.00    -0.298 OA
BRANCH  27  29
HETATM   29  C2  UNL     1      29.352   1.205  54.168  1.00  0.00     0.074 C 
HETATM   30  C1  UNL     1      28.771   2.513  53.671  1.00  0.00     0.013 C 
ENDBRANCH  27  29
ENDBRANCH  26  27
ENDBRANCH   1  26
TORSDOF 8
ENDMDL
MODEL 2
REMARK VINA RESULT:      -8.3      2.725      5.645
REMARK  8 active torsions:
REMARK  status: ('A' for Active; 'I' for Inactive)
REMARK    1  A    between atoms: C2_2  and  C3_3 
REMARK    2  A    between atoms: C3_3  and  C4_5 
REMARK    3  A    between atoms: C4_5  and  C5_6 
REMARK    4  A    between atoms: C8_9  and  N1_10 
REMARK    5  A    between atoms: N1_10  and  C9_11 
REMARK    6  A    between atoms: C9_11  and  C10_12 
REMARK    7  A    between atoms: C9_11  and  C11_14 
REMARK    8  A    between atoms: C10_12  and  O2_13 
ROOT
HETATM    1  C5  UNL     1      23.247  -0.411  53.447  1.00  0.00    -0.071 C 
HETATM    2  C6  UNL     1      23.657   0.635  52.734  1.00  0.00     0.015 C 
HETATM    3  C7  UNL     1      25.000   0.937  53.204  1.00  0.00     0.002 C 
HETATM    4  C8  UNL     1      25.728   2.059  53.076  1.00  0.00     0.133 C 
HETATM    5  N2  UNL     1      27.029   2.060  53.649  1.00  0.00    -0.226 NA
HETATM    6  C17 UNL     1      28.096   2.408  53.016  1.00  0.00     0.209 C 
HETATM    7  N3  UNL     1      29.024   2.199  54.088  1.00  0.00    -0.360 N 
HETATM    8  C18 UNL     1      29.438   0.847  54.305  1.00  0.00     0.095 C 
HETATM    9  C19 UNL     1      28.350   0.208  54.769  1.00  0.00     0.062 C 
HETATM   10  S1  UNL     1      26.652   0.192  55.249  1.00  0.00    -0.130 SA
HETATM   11  C20 UNL     1      25.521  -0.248  53.909  1.00  0.00     0.092 C 
HETATM   12  C21 UNL     1      24.253  -0.888  54.431  1.00  0.00     0.054 C 
HETATM   13  H20 UNL     1      29.622   2.531  54.874  1.00  0.00     0.166 HD
ENDROOT
BRANCH   4  14
HETATM   14  N1  UNL     1      25.160   3.163  52.383  1.00  0.00    -0.364 N 
HETATM   15  H9  UNL     1      24.829   3.987  52.927  1.00  0.00     0.162 HD
BRANCH  14  16
HETATM   16  C9  UNL     1      25.025   3.183  50.951  1.00  0.00     0.140 C 
BRANCH  16  17
HETATM   17  C10 UNL     1      25.902   4.240  50.295  1.00  0.00     0.194 C 
BRANCH  17  18
HETATM   18  O2  UNL     1      27.197   3.819  50.073  1.00  0.00    -0.399 OA
HETATM   19  H13 UNL     1      27.585   4.211  49.262  1.00  0.00     0.209 HD
ENDBRANCH  17  18
ENDBRANCH  16  17
BRANCH  16  20
HETATM   20  C11 UNL     1      23.623   3.307  50.547  1.00  0.00    -0.034 A 
HETATM   21  C12 UNL     1      23.296   2.850  49.277  1.00  0.00     0.009 A 
HETATM   22  C13 UNL     1      21.970   2.964  48.883  1.00  0.00     0.001 A 
HETATM   23  C14 UNL     1      20.960   3.497  49.670  1.00  0.00     0.000 A 
HETATM   24  C15 UNL     1      21.342   3.935  50.924  1.00  0.00     0.001 A 
HETATM   25  C16 UNL     1      22.649   3.851  51.376  1.00  0.00     0.009 A 
ENDBRANCH  16  20
ENDBRANCH  14  16
ENDBRANCH   4  14
BRANCH   1  26
HETATM   26  C4  UNL     1      21.926  -1.078  53.316  1.00  0.00     0.112 C 
BRANCH  26  27
HETATM   27  C3  UNL     1      20.844  -0.119  53.680  1.00  0.00     0.130 C 
HETATM   28  O1  UNL     1      20.754   0.391  54.806  1.00  0.00    -0.298 OA
BRANCH  27  29
HETATM   29  C2  UNL     1      19.798   0.287  52.701  1.00  0.00     0.074 C 
HETATM   30  C1  UNL     1      20.363   0.325  51.296  1.00  0.00     0.013 C 
ENDBRANCH  27  29
ENDBRANCH  26  27
ENDBRANCH   1  26
TORSDOF 8
ENDMDL
MODEL 3
REMARK VINA RESULT:      -8.2      2.576      5.995
REMARK  8 active torsions:
REMARK  status: ('A' for Active; 'I' for Inactive)
REMARK    1  A    between atoms: C2_2  and  C3_3 
REMARK    2  A    between atoms: C3_3  and  C4_5 
REMARK    3  A    between atoms: C4_5  and  C5_6 
REMARK    4  A    between atoms: C8_9  and  N1_10 
REMARK    5  A    between atoms: N1_10  and  C9_11 
REMARK    6  A    between atoms: C9_11  and  C10_12 
REMARK    7  A    between atoms: C9_11  and  C11_14 
REMARK    8  A    between atoms: C10_12  and  O2_13 
ROOT
HETATM    1  C5  UNL     1      25.651   0.689  53.968  1.00  0.00    -0.071 C 
HETATM    2  C6  UNL     1      24.630   0.021  53.437  1.00  0.00     0.015 C 
HETATM    3  C7  UNL     1      24.059   0.899  52.427  1.00  0.00     0.002 C 
HETATM    4  C8  UNL     1      22.850   0.871  51.842  1.00  0.00     0.133 C 
HETATM    5  N2  UNL     1      22.571   1.876  50.876  1.00  0.00    -0.226 NA
HETATM    6  C17 UNL     1      22.116   1.636  49.695  1.00  0.00     0.209 C 
HETATM    7  N3  UNL     1      22.055   2.993  49.239  1.00  0.00    -0.360 N 
HETATM    8  C18 UNL     1      23.288   3.561  48.789  1.00  0.00     0.095 C 
HETATM    9  C19 UNL     1      24.049   3.686  49.890  1.00  0.00     0.062 C 
HETATM   10  S1  UNL     1      24.301   3.501  51.627  1.00  0.00    -0.130 SA
HETATM   11  C20 UNL     1      25.061   1.927  52.088  1.00  0.00     0.092 C 
HETATM   12  C21 UNL     1      25.847   2.038  53.377  1.00  0.00     0.054 C 
HETATM   13  H20 UNL     1      21.548   3.881  49.037  1.00  0.00     0.166 HD
ENDROOT
BRANCH   4  14
HETATM   14  N1  UNL     1      21.935  -0.149  52.219  1.00  0.00    -0.364 N 
HETATM   15  H9  UNL     1      22.028  -1.095  51.794  1.00  0.00     0.162 HD
BRANCH  14  16
HETATM   16  C9  UNL     1      20.881   0.080  53.170  1.00  0.00     0.140 C 
BRANCH  16  17
HETATM   17  C10 UNL     1      21.076  -0.704  54.461  1.00  0.00     0.194 C 
BRANCH  17  18
HETATM   18  O2  UNL     1      21.802  -1.866  54.293  1.00  0.00    -0.399 OA
HETATM   19  H13 UNL     1      21.269  -2.669  54.473  1.00  0.00     0.209 HD
ENDBRANCH  17  18
ENDBRANCH  16  17
BRANCH  16  20
HETATM   20  C11 UNL     1      19.563  -0.161  52.578  1.00  0.00    -0.034 A 
HETATM   21  C12 UNL     1      18.693  -0.970  53.297  1.00  0.00     0.009 A 
HETATM   22  C13 UNL     1      17.442  -1.206  52.744  1.00  0.00     0.001 A 
HETATM   23  C14 UNL     1      17.009  -0.690  51.531  1.00  0.00     0.000 A 
HETATM   24  C15 UNL     1      17.916   0.108  50.859  1.00  0.00     0.001 A 
HETATM   25  C16 UNL     1      19.180   0.381  51.357  1.00  0.00     0.009 A 
ENDBRANCH  16  20
ENDBRANCH  14  16
ENDBRANCH   4  14
BRANCH   1  26
HETATM   26  C4  UNL     1      26.540   0.188  55.047  1.00  0.00     0.112 C 
BRANCH  26  27
HETATM   27  C3  UNL     1      27.958   0.231  54.586  1.00  0.00     0.130 C 
HETATM   28  O1  UNL     1      28.801   0.988  55.088  1.00  0.00    -0.298 OA
BRANCH  27  29
HETATM   29  C2  UNL     1      28.448  -0.642  53.484  1.00  0.00     0.074 C 
HETATM   30  C1  UNL     1      29.957  -0.776  53.536  1.00  0.00     0.013 C 
ENDBRANCH  27  29
ENDBRANCH  26  27
ENDBRANCH   1  26
TORSDOF 8
ENDMDL
MODEL 4
REMARK VINA RESULT:      -8.0      2.679      5.657
REMARK  8 active torsions:
REMARK  status: ('A' for Active; 'I' for Inactive)
REMARK    1  A    between atoms: C2_2  and  C3_3 
REMARK    2  A    between atoms: C3_3  and  C4_5 
REMARK    3  A    between atoms: C4_5  and  C5_6 
REMARK    4  A    between atoms: C8_9  and  N1_10 
REMARK    5  A    between atoms: N1_10  and  C9_11 
REMARK    6  A    between atoms: C9_11  and  C10_12 
REMARK    7  A    between atoms: C9_11  and  C11_14 
REMARK    8  A    between atoms: C10_12  and  O2_13 
ROOT
HETATM    1  C5  UNL     1      22.516   0.050  52.541  1.00  0.00    -0.071 C 
HETATM    2  C6  UNL     1      23.461   0.832  53.058  1.00  0.00     0.015 C 
HETATM    3  C7  UNL     1      23.380   2.091  52.334  1.00  0.00     0.002 C 
HETATM    4  C8  UNL     1      24.282   3.079  52.216  1.00  0.00     0.133 C 
HETATM    5  N2  UNL     1      23.915   4.205  51.430  1.00  0.00    -0.226 NA
HETATM    6  C17 UNL     1      24.012   5.426  51.829  1.00  0.00     0.209 C 
HETATM    7  N3  UNL     1      23.510   6.051  50.641  1.00  0.00    -0.360 N 
HETATM    8  C18 UNL     1      22.086   6.075  50.499  1.00  0.00     0.095 C 
HETATM    9  C19 UNL     1      21.723   4.796  50.300  1.00  0.00     0.062 C 
HETATM   10  S1  UNL     1      22.116   3.085  50.124  1.00  0.00    -0.130 SA
HETATM   11  C20 UNL     1      22.061   2.163  51.678  1.00  0.00     0.092 C 
HETATM   12  C21 UNL     1      21.740   0.700  51.453  1.00  0.00     0.054 C 
HETATM   13  H20 UNL     1      23.630   6.547  49.733  1.00  0.00     0.166 HD
ENDROOT
BRANCH   4  14
HETATM   14  N1  UNL     1      25.533   2.940  52.876  1.00  0.00    -0.364 N 
HETATM   15  H9  UNL     1      25.584   3.097  53.904  1.00  0.00     0.162 HD
BRANCH  14  16
HETATM   16  C9  UNL     1      26.738   2.590  52.172  1.00  0.00     0.140 C 
BRANCH  16  17
HETATM   17  C10 UNL     1      26.621   2.803  50.669  1.00  0.00     0.194 C 
BRANCH  17  18
HETATM   18  O2  UNL     1      27.042   4.052  50.258  1.00  0.00    -0.399 OA
HETATM   19  H13 UNL     1      26.930   4.186  49.293  1.00  0.00     0.209 HD
ENDBRANCH  17  18
ENDBRANCH  16  17
BRANCH  16  20
HETATM   20  C11 UNL     1      27.173   1.231  52.499  1.00  0.00    -0.034 A 
HETATM   21  C12 UNL     1      28.285   1.112  53.322  1.00  0.00     0.009 A 
HETATM   22  C13 UNL     1      28.708  -0.172  53.638  1.00  0.00     0.001 A 
HETATM   23  C14 UNL     1      28.095  -1.333  53.190  1.00  0.00     0.000 A 
HETATM   24  C15 UNL     1      26.993  -1.155  52.374  1.00  0.00     0.001 A 
HETATM   25  C16 UNL     1      26.522   0.099  52.022  1.00  0.00     0.009 A 
ENDBRANCH  16  20
ENDBRANCH  14  16
ENDBRANCH   4  14
BRANCH   1  26
HETATM   26  C4  UNL     1      22.221  -1.341  52.967  1.00  0.00     0.112 C 
BRANCH  26  27
HETATM   27  C3  UNL     1      21.420  -1.319  54.225  1.00  0.00     0.130 C 
HETATM   28  O1  UNL     1      21.747  -1.955  55.237  1.00  0.00    -0.298 OA
BRANCH  27  29
HETATM   29  C2  UNL     1      20.167  -0.523  54.339  1.00  0.00     0.074 C 
HETATM   30  C1  UNL     1      19.095  -1.071  53.418  1.00  0.00     0.013 C 
ENDBRANCH  27  29
ENDBRANCH  26  27
ENDBRANCH   1  26
TORSDOF 8
ENDMDL
MODEL 5
REMARK VINA RESULT:      -8.0      1.944      2.667
REMARK  8 active torsions:
REMARK  status: ('A' for Active; 'I' for Inactive)
REMARK    1  A    between atoms: C2_2  and  C3_3 
REMARK    2  A    between atoms: C3_3  and  C4_5 
REMARK    3  A    between atoms: C4_5  and  C5_6 
REMARK    4  A    between atoms: C8_9  and  N1_10 
REMARK    5  A    between atoms: N1_10  and  C9_11 
REMARK    6  A    between atoms: C9_11  and  C10_12 
REMARK    7  A    between atoms: C9_11  and  C11_14 
REMARK    8  A    between atoms: C10_12  and  O2_13 
ROOT
HETATM    1  C5  UNL     1      24.669   0.312  53.512  1.00  0.00    -0.071 C 
HETATM    2  C6  UNL     1      24.964   1.547  53.114  1.00  0.00     0.015 C 
HETATM    3  C7  UNL     1      23.741   2.083  52.535  1.00  0.00     0.002 C 
HETATM    4  C8  UNL     1      23.563   3.124  51.705  1.00  0.00     0.133 C 
HETATM    5  N2  UNL     1      22.231   3.414  51.302  1.00  0.00    -0.226 NA
HETATM    6  C17 UNL     1      21.691   4.582  51.379  1.00  0.00     0.209 C 
HETATM    7  N3  UNL     1      20.409   4.229  50.847  1.00  0.00    -0.360 N 
HETATM    8  C18 UNL     1      19.500   3.607  51.760  1.00  0.00     0.095 C 
HETATM    9  C19 UNL     1      20.022   2.395  52.017  1.00  0.00     0.062 C 
HETATM   10  S1  UNL     1      21.274   1.171  51.798  1.00  0.00    -0.130 SA
HETATM   11  C20 UNL     1      22.609   1.269  53.013  1.00  0.00     0.092 C 
HETATM   12  C21 UNL     1      23.261  -0.077  53.242  1.00  0.00     0.054 C 
HETATM   13  H20 UNL     1      19.707   4.174  50.079  1.00  0.00     0.166 HD
ENDROOT
BRANCH   4  14
HETATM   14  N1  UNL     1      24.703   3.864  51.286  1.00  0.00    -0.364 N 
HETATM   15  H9  UNL     1      25.129   4.552  51.941  1.00  0.00     0.162 HD
BRANCH  14  16
HETATM   16  C9  UNL     1      25.291   3.695  49.984  1.00  0.00     0.140 C 
BRANCH  16  17
HETATM   17  C10 UNL     1      26.659   3.031  50.041  1.00  0.00     0.194 C 
BRANCH  17  18
HETATM   18  O2  UNL     1      27.236   3.069  51.294  1.00  0.00    -0.399 OA
HETATM   19  H13 UNL     1      28.216   3.050  51.256  1.00  0.00     0.209 HD
ENDBRANCH  17  18
ENDBRANCH  16  17
BRANCH  16  20
HETATM   20  C11 UNL     1      25.325   4.958  49.244  1.00  0.00    -0.034 A 
HETATM   21  C12 UNL     1      26.579   5.493  48.979  1.00  0.00     0.009 A 
HETATM   22  C13 UNL     1      26.623   6.690  48.279  1.00  0.00     0.001 A 
HETATM   23  C14 UNL     1      25.506   7.381  47.831  1.00  0.00     0.000 A 
HETATM   24  C15 UNL     1      24.285   6.802  48.123  1.00  0.00     0.001 A 
HETATM   25  C16 UNL     1      24.173   5.609  48.818  1.00  0.00     0.009 A 
ENDBRANCH  16  20
ENDBRANCH  14  16
ENDBRANCH   4  14
BRANCH   1  26
HETATM   26  C4  UNL     1      25.613  -0.629  54.167  1.00  0.00     0.112 C 
BRANCH  26  27
HETATM   27  C3  UNL     1      26.716  -0.969  53.222  1.00  0.00     0.130 C 
HETATM   28  O1  UNL     1      26.602  -1.839  52.347  1.00  0.00    -0.298 OA
BRANCH  27  29
HETATM   29  C2  UNL     1      28.032  -0.276  53.276  1.00  0.00     0.074 C 
HETATM   30  C1  UNL     1      28.396   0.077  54.704  1.00  0.00     0.013 C 
ENDBRANCH  27  29
ENDBRANCH  26  27
ENDBRANCH   1  26
TORSDOF 8
ENDMDL
MODEL 6
REMARK VINA RESULT:      -7.8      2.861      7.176
REMARK  8 active torsions:
REMARK  status: ('A' for Active; 'I' for Inactive)
REMARK    1  A    between atoms: C2_2  and  C3_3 
REMARK    2  A    between atoms: C3_3  and  C4_5 
REMARK    3  A    between atoms: C4_5  and  C5_6 
REMARK    4  A    between atoms: C8_9  and  N1_10 
REMARK    5  A    between atoms: N1_10  and  C9_11 
REMARK    6  A    between atoms: C9_11  and  C10_12 
REMARK    7  A    between atoms: C9_11  and  C11_14 
REMARK    8  A    between atoms: C10_12  and  O2_13 
ROOT
HETATM    1  C5  UNL     1      23.555   3.321  50.761  1.00  0.00    -0.071 C 
HETATM    2  C6  UNL     1      22.944   2.406  51.510  1.00  0.00     0.015 C 
HETATM    3  C7  UNL     1      24.003   1.654  52.166  1.00  0.00     0.002 C 
HETATM    4  C8  UNL     1      23.969   0.444  52.749  1.00  0.00     0.133 C 
HETATM    5  N2  UNL     1      25.180  -0.039  53.315  1.00  0.00    -0.226 NA
HETATM    6  C17 UNL     1      25.285  -0.495  54.515  1.00  0.00     0.209 C 
HETATM    7  N3  UNL     1      26.683  -0.803  54.476  1.00  0.00    -0.360 N 
HETATM    8  C18 UNL     1      27.575   0.297  54.679  1.00  0.00     0.095 C 
HETATM    9  C19 UNL     1      27.444   1.071  53.587  1.00  0.00     0.062 C 
HETATM   10  S1  UNL     1      26.721   1.421  52.016  1.00  0.00    -0.130 SA
HETATM   11  C20 UNL     1      25.240   2.454  52.110  1.00  0.00     0.092 C 
HETATM   12  C21 UNL     1      25.037   3.262  50.847  1.00  0.00     0.054 C 
HETATM   13  H20 UNL     1      27.485  -1.460  54.370  1.00  0.00     0.166 HD
ENDROOT
BRANCH   4  14
HETATM   14  N1  UNL     1      22.740  -0.269  52.765  1.00  0.00    -0.364 N 
HETATM   15  H9  UNL     1      22.647  -1.131  52.188  1.00  0.00     0.162 HD
BRANCH  14  16
HETATM   16  C9  UNL     1      21.615   0.159  53.553  1.00  0.00     0.140 C 
BRANCH  16  17
HETATM   17  C10 UNL     1      21.560  -0.520  54.914  1.00  0.00     0.194 C 
BRANCH  17  18
HETATM   18  O2  UNL     1      22.108  -1.787  54.918  1.00  0.00    -0.399 OA
HETATM   19  H13 UNL     1      22.578  -1.989  55.755  1.00  0.00     0.209 HD
ENDBRANCH  17  18
ENDBRANCH  16  17
BRANCH  16  20
HETATM   20  C11 UNL     1      20.358   0.009  52.816  1.00  0.00    -0.034 A 
HETATM   21  C12 UNL     1      19.352  -0.719  53.437  1.00  0.00     0.009 A 
HETATM   22  C13 UNL     1      18.157  -0.869  52.747  1.00  0.00     0.001 A 
HETATM   23  C14 UNL     1      17.904  -0.340  51.490  1.00  0.00     0.000 A 
HETATM   24  C15 UNL     1      18.941   0.376  50.920  1.00  0.00     0.001 A 
HETATM   25  C16 UNL     1      20.157   0.560  51.556  1.00  0.00     0.009 A 
ENDBRANCH  16  20
ENDBRANCH  14  16
ENDBRANCH   4  14
BRANCH   1  26
HETATM   26  C4  UNL     1      22.876   4.325  49.903  1.00  0.00     0.112 C 
BRANCH  26  27
HETATM   27  C3  UNL     1      21.834   3.652  49.076  1.00  0.00     0.130 C 
HETATM   28  O1  UNL     1      20.620   3.798  49.280  1.00  0.00    -0.298 OA
BRANCH  27  29
HETATM   29  C2  UNL     1      22.194   2.755  47.943  1.00  0.00     0.074 C 
HETATM   30  C1  UNL     1      21.749   1.334  48.220  1.00  0.00     0.013 C 
ENDBRANCH  27  29
ENDBRANCH  26  27
ENDBRANCH   1  26
TORSDOF 8
ENDMDL
MODEL 7
REMARK VINA RESULT:      -7.7      2.020      5.454
REMARK  8 active torsions:
REMARK  status: ('A' for Active; 'I' for Inactive)
REMARK    1  A    between atoms: C2_2  and  C3_3 
REMARK    2  A    between atoms: C3_3  and  C4_5 
REMARK    3  A    between atoms: C4_5  and  C5_6 
REMARK    4  A    between atoms: C8_9  and  N1_10 
REMARK    5  A    between atoms: N1_10  and  C9_11 
REMARK    6  A    between atoms: C9_11  and  C10_12 
REMARK    7  A    between atoms: C9_11  and  C11_14 
REMARK    8  A    between atoms: C10_12  and  O2_13 
ROOT
HETATM    1  C5  UNL     1      22.806   2.320  49.967  1.00  0.00    -0.071 C 
HETATM    2  C6  UNL     1      23.226   1.623  51.020  1.00  0.00     0.015 C 
HETATM    3  C7  UNL     1      22.028   1.084  51.645  1.00  0.00     0.002 C 
HETATM    4  C8  UNL     1      21.843   0.604  52.887  1.00  0.00     0.133 C 
HETATM    5  N2  UNL     1      20.542   0.140  53.218  1.00  0.00    -0.226 NA
HETATM    6  C17 UNL     1      20.297  -1.011  53.742  1.00  0.00     0.209 C 
HETATM    7  N3  UNL     1      18.873  -0.879  53.826  1.00  0.00    -0.360 N 
HETATM    8  C18 UNL     1      18.147  -1.131  52.619  1.00  0.00     0.095 C 
HETATM    9  C19 UNL     1      18.459  -0.116  51.794  1.00  0.00     0.062 C 
HETATM   10  S1  UNL     1      19.320   1.384  51.441  1.00  0.00    -0.130 SA
HETATM   11  C20 UNL     1      20.931   1.131  50.661  1.00  0.00     0.092 C 
HETATM   12  C21 UNL     1      21.330   2.310  49.800  1.00  0.00     0.054 C 
HETATM   13  H20 UNL     1      17.989  -0.679  54.340  1.00  0.00     0.166 HD
ENDROOT
BRANCH   4  14
HETATM   14  N1  UNL     1      22.948   0.590  53.782  1.00  0.00    -0.364 N 
HETATM   15  H9  UNL     1      23.138   1.431  54.365  1.00  0.00     0.162 HD
BRANCH  14  16
HETATM   16  C9  UNL     1      23.816  -0.550  53.911  1.00  0.00     0.140 C 
BRANCH  16  17
HETATM   17  C10 UNL     1      23.712  -1.214  55.276  1.00  0.00     0.194 C 
BRANCH  17  18
HETATM   18  O2  UNL     1      24.938  -1.521  55.832  1.00  0.00    -0.399 OA
HETATM   19  H13 UNL     1      24.855  -1.918  56.725  1.00  0.00     0.209 HD
ENDBRANCH  17  18
ENDBRANCH  16  17
BRANCH  16  20
HETATM   20  C11 UNL     1      25.199  -0.210  53.571  1.00  0.00    -0.034 A 
HETATM   21  C12 UNL     1      25.624   1.073  53.889  1.00  0.00     0.009 A 
HETATM   22  C13 UNL     1      26.933   1.407  53.571  1.00  0.00     0.001 A 
HETATM   23  C14 UNL     1      27.837   0.548  52.962  1.00  0.00     0.000 A 
HETATM   24  C15 UNL     1      27.360  -0.717  52.669  1.00  0.00     0.001 A 
HETATM   25  C16 UNL     1      26.065  -1.110  52.960  1.00  0.00     0.009 A 
ENDBRANCH  16  20
ENDBRANCH  14  16
ENDBRANCH   4  14
BRANCH   1  26
HETATM   26  C4  UNL     1      23.680   3.056  49.018  1.00  0.00     0.112 C 
BRANCH  26  27
HETATM   27  C3  UNL     1      24.212   4.283  49.678  1.00  0.00     0.130 C 
HETATM   28  O1  UNL     1      23.480   5.206  50.063  1.00  0.00    -0.298 OA
BRANCH  27  29
HETATM   29  C2  UNL     1      25.670   4.473  49.914  1.00  0.00     0.074 C 
HETATM   30  C1  UNL     1      26.426   3.182  49.674  1.00  0.00     0.013 C 
ENDBRANCH  27  29
ENDBRANCH  26  27
ENDBRANCH   1  26
TORSDOF 8
ENDMDL
MODEL 8
REMARK VINA RESULT:      -7.7      2.260      5.536
REMARK  8 active torsions:
REMARK  status: ('A' for Active; 'I' for Inactive)
REMARK    1  A    between atoms: C2_2  and  C3_3 
REMARK    2  A    between atoms: C3_3  and  C4_5 
REMARK    3  A    between atoms: C4_5  and  C5_6 
REMARK    4  A    between atoms: C8_9  and  N1_10 
REMARK    5  A    between atoms: N1_10  and  C9_11 
REMARK    6  A    between atoms: C9_11  and  C10_12 
REMARK    7  A    between atoms: C9_11  and  C11_14 
REMARK    8  A    between atoms: C10_12  and  O2_13 
ROOT
HETATM    1  C5  UNL     1      26.091   1.580  51.794  1.00  0.00    -0.071 C 
HETATM    2  C6  UNL     1      24.771   1.577  51.961  1.00  0.00     0.015 C 
HETATM    3  C7  UNL     1      24.274   2.737  51.237  1.00  0.00     0.002 C 
HETATM    4  C8  UNL     1      23.101   3.383  51.343  1.00  0.00     0.133 C 
HETATM    5  N2  UNL     1      22.895   4.501  50.490  1.00  0.00    -0.226 NA
HETATM    6  C17 UNL     1      21.852   4.662  49.750  1.00  0.00     0.209 C 
HETATM    7  N3  UNL     1      22.231   5.914  49.164  1.00  0.00    -0.360 N 
HETATM    8  C18 UNL     1      23.153   5.843  48.073  1.00  0.00     0.095 C 
HETATM    9  C19 UNL     1      24.317   5.440  48.612  1.00  0.00     0.062 C 
HETATM   10  S1  UNL     1      25.294   4.948  49.998  1.00  0.00    -0.130 SA
HETATM   11  C20 UNL     1      25.310   3.162  50.278  1.00  0.00     0.092 C 
HETATM   12  C21 UNL     1      26.581   2.713  50.966  1.00  0.00     0.054 C 
HETATM   13  H20 UNL     1      22.196   6.953  49.095  1.00  0.00     0.166 HD
ENDROOT
BRANCH   4  14
HETATM   14  N1  UNL     1      22.149   2.916  52.290  1.00  0.00    -0.364 N 
HETATM   15  H9  UNL     1      22.108   3.363  53.229  1.00  0.00     0.162 HD
BRANCH  14  16
HETATM   16  C9  UNL     1      21.238   1.842  51.996  1.00  0.00     0.140 C 
BRANCH  16  17
HETATM   17  C10 UNL     1      19.784   2.291  51.992  1.00  0.00     0.194 C 
BRANCH  17  18
HETATM   18  O2  UNL     1      19.614   3.603  52.388  1.00  0.00    -0.399 OA
HETATM   19  H13 UNL     1      18.764   3.745  52.856  1.00  0.00     0.209 HD
ENDBRANCH  17  18
ENDBRANCH  16  17
BRANCH  16  20
HETATM   20  C11 UNL     1      21.455   0.698  52.884  1.00  0.00    -0.034 A 
HETATM   21  C12 UNL     1      22.170  -0.372  52.361  1.00  0.00     0.009 A 
HETATM   22  C13 UNL     1      22.380  -1.463  53.193  1.00  0.00     0.001 A 
HETATM   23  C14 UNL     1      21.928  -1.551  54.502  1.00  0.00     0.000 A 
HETATM   24  C15 UNL     1      21.223  -0.457  54.970  1.00  0.00     0.001 A 
HETATM   25  C16 UNL     1      20.979   0.660  54.189  1.00  0.00     0.009 A 
ENDBRANCH  16  20
ENDBRANCH  14  16
ENDBRANCH   4  14
BRANCH   1  26
HETATM   26  C4  UNL     1      27.033   0.578  52.356  1.00  0.00     0.112 C 
BRANCH  26  27
HETATM   27  C3  UNL     1      27.748   1.166  53.525  1.00  0.00     0.130 C 
HETATM   28  O1  UNL     1      27.211   1.966  54.304  1.00  0.00    -0.298 OA
BRANCH  27  29
HETATM   29  C2  UNL     1      29.165   0.823  53.827  1.00  0.00     0.074 C 
HETATM   30  C1  UNL     1      29.439  -0.638  53.532  1.00  0.00     0.013 C 
ENDBRANCH  27  29
ENDBRANCH  26  27
ENDBRANCH   1  26
TORSDOF 8
ENDMDL
MODEL 9
REMARK VINA RESULT:      -7.7      1.924      5.653
REMARK  8 active torsions:
REMARK  status: ('A' for Active; 'I' for Inactive)
REMARK    1  A    between atoms: C2_2  and  C3_3 
REMARK    2  A    between atoms: C3_3  and  C4_5 
REMARK    3  A    between atoms: C4_5  and  C5_6 
REMARK    4  A    between atoms: C8_9  and  N1_10 
REMARK    5  A    between atoms: N1_10  and  C9_11 
REMARK    6  A    between atoms: C9_11  and  C10_12 
REMARK    7  A    between atoms: C9_11  and  C11_14 
REMARK    8  A    between atoms: C10_12  and  O2_13 
ROOT
HETATM    1  C5  UNL     1      22.789   3.521  50.299  1.00  0.00    -0.071 C 
HETATM    2  C6  UNL     1      23.671   2.551  50.530  1.00  0.00     0.015 C 
HETATM    3  C7  UNL     1      23.051   1.672  51.510  1.00  0.00     0.002 C 
HETATM    4  C8  UNL     1      23.605   0.757  52.322  1.00  0.00     0.133 C 
HETATM    5  N2  UNL     1      22.734   0.041  53.186  1.00  0.00    -0.226 NA
HETATM    6  C17 UNL     1      22.714  -1.244  53.289  1.00  0.00     0.209 C 
HETATM    7  N3  UNL     1      21.673  -1.336  54.269  1.00  0.00    -0.360 N 
HETATM    8  C18 UNL     1      20.335  -1.227  53.775  1.00  0.00     0.095 C 
HETATM    9  C19 UNL     1      20.204   0.049  53.370  1.00  0.00     0.062 C 
HETATM   10  S1  UNL     1      20.855   1.673  53.136  1.00  0.00    -0.130 SA
HETATM   11  C20 UNL     1      21.599   1.930  51.509  1.00  0.00     0.092 C 
HETATM   12  C21 UNL     1      21.536   3.381  51.085  1.00  0.00     0.054 C 
HETATM   13  H20 UNL     1      21.326  -1.452  55.244  1.00  0.00     0.166 HD
ENDROOT
BRANCH   4  14
HETATM   14  N1  UNL     1      25.013   0.563  52.268  1.00  0.00    -0.364 N 
HETATM   15  H9  UNL     1      25.463   0.368  51.350  1.00  0.00     0.162 HD
BRANCH  14  16
HETATM   16  C9  UNL     1      25.841   0.628  53.442  1.00  0.00     0.140 C 
BRANCH  16  17
HETATM   17  C10 UNL     1      26.324   2.039  53.742  1.00  0.00     0.194 C 
BRANCH  17  18
HETATM   18  O2  UNL     1      26.437   2.832  52.618  1.00  0.00    -0.399 OA
HETATM   19  H13 UNL     1      27.272   3.346  52.603  1.00  0.00     0.209 HD
ENDBRANCH  17  18
ENDBRANCH  16  17
BRANCH  16  20
HETATM   20  C11 UNL     1      26.950  -0.326  53.368  1.00  0.00    -0.034 A 
HETATM   21  C12 UNL     1      28.168   0.089  53.890  1.00  0.00     0.009 A 
HETATM   22  C13 UNL     1      29.226  -0.806  53.824  1.00  0.00     0.001 A 
HETATM   23  C14 UNL     1      29.146  -2.078  53.275  1.00  0.00     0.000 A 
HETATM   24  C15 UNL     1      27.910  -2.438  52.770  1.00  0.00     0.001 A 
HETATM   25  C16 UNL     1      26.816  -1.590  52.806  1.00  0.00     0.009 A 
ENDBRANCH  16  20
ENDBRANCH  14  16
ENDBRANCH   4  14
BRANCH   1  26
HETATM   26  C4  UNL     1      22.984   4.657  49.362  1.00  0.00     0.112 C 
BRANCH  26  27
HETATM   27  C3  UNL     1      24.170   5.456  49.786  1.00  0.00     0.130 C 
HETATM   28  O1  UNL     1      24.233   6.026  50.885  1.00  0.00    -0.298 OA
BRANCH  27  29
HETATM   29  C2  UNL     1      25.359   5.619  48.905  1.00  0.00     0.074 C 
HETATM   30  C1  UNL     1      26.442   4.627  49.277  1.00  0.00     0.013 C 
ENDBRANCH  27  29
ENDBRANCH  26  27
ENDBRANCH   1  26
TORSDOF 8
ENDMDL
