MODEL 1
REMARK VINA RESULT:      -6.6      0.000      0.000
REMARK  4 active torsions:
REMARK  status: ('A' for Active; 'I' for Inactive)
REMARK    1  A    between atoms: C2_2  and  N1_3 
REMARK    2  A    between atoms: C12_16  and  C13_18 
REMARK    3  A    between atoms: C13_18  and  C14_19 
REMARK    4  A    between atoms: C14_19  and  N3_20 
ROOT
HETATM    1  N1  UNL     1      25.258   3.046  50.775  1.00  0.00    -0.378 N 
HETATM    2  C3  UNL     1      26.508   2.622  51.391  1.00  0.00     0.154 C 
HETATM    3  C4  UNL     1      26.193   1.692  52.529  1.00  0.00    -0.054 C 
HETATM    4  C5  UNL     1      26.723   0.476  52.543  1.00  0.00     0.078 C 
HETATM    5  C6  UNL     1      25.935  -0.682  53.035  1.00  0.00     0.241 C 
HETATM    6  O1  UNL     1      26.712  -1.665  52.973  1.00  0.00    -0.269 OA
HETATM    7  N2  UNL     1      24.556  -0.641  53.484  1.00  0.00    -0.355 N 
HETATM    8  C7  UNL     1      23.511   0.398  53.565  1.00  0.00     0.163 C 
HETATM    9  C8  UNL     1      23.910   1.589  52.851  1.00  0.00     0.109 C 
HETATM   10  C9  UNL     1      25.170   2.206  53.541  1.00  0.00     0.078 C 
HETATM   11  O2  UNL     1      24.273   1.108  51.542  1.00  0.00    -0.344 OA
HETATM   12  C10 UNL     1      24.088   2.322  50.977  1.00  0.00     0.154 C 
HETATM   13  C11 UNL     1      23.129   2.355  49.787  1.00  0.00     0.073 C 
HETATM   14  C12 UNL     1      23.229   2.652  52.199  1.00  0.00     0.121 C 
HETATM   15 CL1  UNL     1      23.642   4.335  52.686  1.00  0.00    -0.111 Cl
HETATM   16  H9  UNL     1      24.353  -1.639  53.806  1.00  0.00     0.162 HD
ENDROOT
BRANCH  14  17
HETATM   17  C13 UNL     1      21.753   2.540  52.025  1.00  0.00     0.063 C 
BRANCH  17  18
HETATM   18  C14 UNL     1      21.095   3.862  52.334  1.00  0.00     0.269 C 
BRANCH  18  19
HETATM   19  N3  UNL     1      20.309   4.321  51.177  1.00  0.00     0.078 N 
HETATM   20  H21 UNL     1      20.155   3.528  50.492  1.00  0.00     0.312 HD
HETATM   21  H22 UNL     1      20.932   4.983  50.651  1.00  0.00     0.312 HD
ENDBRANCH  18  19
ENDBRANCH  17  18
ENDBRANCH  14  17
BRANCH   1  22
HETATM   22  C2  UNL     1      25.535   3.561  49.487  1.00  0.00     0.116 C 
HETATM   23  C1  UNL     1      26.905   4.109  49.256  1.00  0.00     0.026 C 
ENDBRANCH   1  22
TORSDOF 4
ENDMDL
MODEL 2
REMARK VINA RESULT:      -6.2      2.039      5.328
REMARK  4 active torsions:
REMARK  status: ('A' for Active; 'I' for Inactive)
REMARK    1  A    between atoms: C2_2  and  N1_3 
REMARK    2  A    between atoms: C12_16  and  C13_18 
REMARK    3  A    between atoms: C13_18  and  C14_19 
REMARK    4  A    between atoms: C14_19  and  N3_20 
ROOT
HETATM    1  N1  UNL     1      24.124   0.644  53.170  1.00  0.00    -0.378 N 
HETATM    2  C3  UNL     1      22.870   1.289  52.806  1.00  0.00     0.154 C 
HETATM    3  C4  UNL     1      23.164   2.408  51.847  1.00  0.00    -0.054 C 
HETATM    4  C5  UNL     1      22.571   2.424  50.661  1.00  0.00     0.078 C 
HETATM    5  C6  UNL     1      23.308   2.882  49.457  1.00  0.00     0.241 C 
HETATM    6  O1  UNL     1      22.478   2.830  48.517  1.00  0.00    -0.269 OA
HETATM    7  N2  UNL     1      24.698   3.295  49.419  1.00  0.00    -0.355 N 
HETATM    8  C7  UNL     1      25.799   3.358  50.400  1.00  0.00     0.163 C 
HETATM    9  C8  UNL     1      25.446   2.668  51.619  1.00  0.00     0.109 C 
HETATM   10  C9  UNL     1      24.239   3.397  52.294  1.00  0.00     0.078 C 
HETATM   11  O2  UNL     1      25.024   1.363  51.173  1.00  0.00    -0.344 OA
HETATM   12  C10 UNL     1      25.258   0.807  52.383  1.00  0.00     0.154 C 
HETATM   13  C11 UNL     1      26.186  -0.408  52.379  1.00  0.00     0.073 C 
HETATM   14  C12 UNL     1      26.166   2.009  52.652  1.00  0.00     0.121 C 
HETATM   15 CL1  UNL     1      25.856   2.524  54.349  1.00  0.00    -0.111 Cl
HETATM   16  H9  UNL     1      24.856   3.600  48.408  1.00  0.00     0.162 HD
ENDROOT
BRANCH  14  17
HETATM   17  C13 UNL     1      27.628   1.794  52.463  1.00  0.00     0.063 C 
BRANCH  17  18
HETATM   18  C14 UNL     1      28.390   2.372  53.632  1.00  0.00     0.269 C 
BRANCH  18  19
HETATM   19  N3  UNL     1      29.543   1.518  53.958  1.00  0.00     0.078 N 
HETATM   20  H21 UNL     1      29.813   1.628  54.977  1.00  0.00     0.312 HD
HETATM   21  H22 UNL     1      30.360   1.929  53.441  1.00  0.00     0.312 HD
ENDBRANCH  18  19
ENDBRANCH  17  18
ENDBRANCH  14  17
BRANCH   1  22
HETATM   22  C2  UNL     1      23.841  -0.631  53.714  1.00  0.00     0.116 C 
HETATM   23  C1  UNL     1      22.446  -1.141  53.556  1.00  0.00     0.026 C 
ENDBRANCH   1  22
TORSDOF 4
ENDMDL
MODEL 3
REMARK VINA RESULT:      -5.9      2.208      3.384
REMARK  4 active torsions:
REMARK  status: ('A' for Active; 'I' for Inactive)
REMARK    1  A    between atoms: C2_2  and  N1_3 
REMARK    2  A    between atoms: C12_16  and  C13_18 
REMARK    3  A    between atoms: C13_18  and  C14_19 
REMARK    4  A    between atoms: C14_19  and  N3_20 
ROOT
HETATM    1  N1  UNL     1      21.886   3.064  50.073  1.00  0.00    -0.378 N 
HETATM    2  C3  UNL     1      22.914   4.092  50.164  1.00  0.00     0.154 C 
HETATM    3  C4  UNL     1      23.898   3.697  51.228  1.00  0.00    -0.054 C 
HETATM    4  C5  UNL     1      25.184   3.592  50.921  1.00  0.00     0.078 C 
HETATM    5  C6  UNL     1      26.017   2.521  51.523  1.00  0.00     0.241 C 
HETATM    6  O1  UNL     1      27.177   2.713  51.084  1.00  0.00    -0.269 OA
HETATM    7  N2  UNL     1      25.547   1.487  52.425  1.00  0.00    -0.355 N 
HETATM    8  C7  UNL     1      24.236   1.097  52.980  1.00  0.00     0.163 C 
HETATM    9  C8  UNL     1      23.163   1.795  52.311  1.00  0.00     0.109 C 
HETATM   10  C9  UNL     1      23.296   3.329  52.584  1.00  0.00     0.078 C 
HETATM   11  O2  UNL     1      23.397   1.539  50.912  1.00  0.00    -0.344 OA
HETATM   12  C10 UNL     1      22.110   1.792  50.587  1.00  0.00     0.154 C 
HETATM   13  C11 UNL     1      21.396   0.681  49.817  1.00  0.00     0.073 C 
HETATM   14  C12 UNL     1      21.789   1.534  52.061  1.00  0.00     0.121 C 
HETATM   15 CL1  UNL     1      20.594   2.785  52.559  1.00  0.00    -0.111 Cl
HETATM   16  H9  UNL     1      26.428   0.941  52.683  1.00  0.00     0.162 HD
ENDROOT
BRANCH  14  17
HETATM   17  C13 UNL     1      21.257   0.184  52.399  1.00  0.00     0.063 C 
BRANCH  17  18
HETATM   18  C14 UNL     1      20.196   0.300  53.467  1.00  0.00     0.269 C 
BRANCH  18  19
HETATM   19  N3  UNL     1      20.775   0.019  54.791  1.00  0.00     0.078 N 
HETATM   20  H21 UNL     1      21.157  -0.969  54.829  1.00  0.00     0.312 HD
HETATM   21  H22 UNL     1      19.964  -0.005  55.459  1.00  0.00     0.312 HD
ENDBRANCH  18  19
ENDBRANCH  17  18
ENDBRANCH  14  17
BRANCH   1  22
HETATM   22  C2  UNL     1      21.214   3.198  48.836  1.00  0.00     0.116 C 
HETATM   23  C1  UNL     1      22.028   3.650  47.668  1.00  0.00     0.026 C 
ENDBRANCH   1  22
TORSDOF 4
ENDMDL
MODEL 4
REMARK VINA RESULT:      -5.8      2.511      4.916
REMARK  4 active torsions:
REMARK  status: ('A' for Active; 'I' for Inactive)
REMARK    1  A    between atoms: C2_2  and  N1_3 
REMARK    2  A    between atoms: C12_16  and  C13_18 
REMARK    3  A    between atoms: C13_18  and  C14_19 
REMARK    4  A    between atoms: C14_19  and  N3_20 
ROOT
HETATM    1  N1  UNL     1      25.306   3.025  51.235  1.00  0.00    -0.378 N 
HETATM    2  C3  UNL     1      24.168   2.203  51.621  1.00  0.00     0.154 C 
HETATM    3  C4  UNL     1      23.010   2.527  50.718  1.00  0.00    -0.054 C 
HETATM    4  C5  UNL     1      22.435   1.555  50.022  1.00  0.00     0.078 C 
HETATM    5  C6  UNL     1      21.954   1.803  48.640  1.00  0.00     0.241 C 
HETATM    6  O1  UNL     1      21.422   0.728  48.273  1.00  0.00    -0.269 OA
HETATM    7  N2  UNL     1      22.093   3.045  47.902  1.00  0.00    -0.355 N 
HETATM    8  C7  UNL     1      22.728   4.352  48.162  1.00  0.00     0.163 C 
HETATM    9  C8  UNL     1      23.559   4.298  49.343  1.00  0.00     0.109 C 
HETATM   10  C9  UNL     1      22.664   4.009  50.592  1.00  0.00     0.078 C 
HETATM   11  O2  UNL     1      24.426   3.170  49.109  1.00  0.00    -0.344 OA
HETATM   12  C10 UNL     1      25.354   3.624  49.981  1.00  0.00     0.154 C 
HETATM   13  C11 UNL     1      26.769   3.768  49.420  1.00  0.00     0.073 C 
HETATM   14  C12 UNL     1      24.706   4.999  49.804  1.00  0.00     0.121 C 
HETATM   15 CL1  UNL     1      24.627   5.750  51.438  1.00  0.00    -0.111 Cl
HETATM   16  H9  UNL     1      21.590   2.862  46.979  1.00  0.00     0.162 HD
ENDROOT
BRANCH  14  17
HETATM   17  C13 UNL     1      25.382   5.937  48.864  1.00  0.00     0.063 C 
BRANCH  17  18
HETATM   18  C14 UNL     1      25.730   7.221  49.579  1.00  0.00     0.269 C 
BRANCH  18  19
HETATM   19  N3  UNL     1      27.189   7.416  49.589  1.00  0.00     0.078 N 
HETATM   20  H21 UNL     1      27.686   6.537  49.269  1.00  0.00     0.312 HD
HETATM   21  H22 UNL     1      27.460   7.497  50.601  1.00  0.00     0.312 HD
ENDBRANCH  18  19
ENDBRANCH  17  18
ENDBRANCH  14  17
BRANCH   1  22
HETATM   22  C2  UNL     1      26.484   2.455  51.770  1.00  0.00     0.116 C 
HETATM   23  C1  UNL     1      26.570   0.963  51.784  1.00  0.00     0.026 C 
ENDBRANCH   1  22
TORSDOF 4
ENDMDL
MODEL 5
REMARK VINA RESULT:      -5.8      2.178      4.334
REMARK  4 active torsions:
REMARK  status: ('A' for Active; 'I' for Inactive)
REMARK    1  A    between atoms: C2_2  and  N1_3 
REMARK    2  A    between atoms: C12_16  and  C13_18 
REMARK    3  A    between atoms: C13_18  and  C14_19 
REMARK    4  A    between atoms: C14_19  and  N3_20 
ROOT
HETATM    1  N1  UNL     1      21.728   3.798  51.249  1.00  0.00    -0.378 N 
HETATM    2  C3  UNL     1      20.646   2.844  51.451  1.00  0.00     0.154 C 
HETATM    3  C4  UNL     1      21.238   1.523  51.855  1.00  0.00    -0.054 C 
HETATM    4  C5  UNL     1      20.854   0.956  52.991  1.00  0.00     0.078 C 
HETATM    5  C6  UNL     1      21.832   0.226  53.836  1.00  0.00     0.241 C 
HETATM    6  O1  UNL     1      21.168  -0.231  54.797  1.00  0.00    -0.269 OA
HETATM    7  N2  UNL     1      23.252   0.095  53.570  1.00  0.00    -0.355 N 
HETATM    8  C7  UNL     1      24.177   0.608  52.541  1.00  0.00     0.163 C 
HETATM    9  C8  UNL     1      23.541   1.624  51.735  1.00  0.00     0.109 C 
HETATM   10  C9  UNL     1      22.347   0.990  50.950  1.00  0.00     0.078 C 
HETATM   11  O2  UNL     1      23.029   2.566  52.699  1.00  0.00    -0.344 OA
HETATM   12  C10 UNL     1      22.987   3.566  51.791  1.00  0.00     0.154 C 
HETATM   13  C11 UNL     1      23.734   4.842  52.183  1.00  0.00     0.073 C 
HETATM   14  C12 UNL     1      23.989   2.742  50.981  1.00  0.00     0.121 C 
HETATM   15 CL1  UNL     1      23.477   2.850  49.258  1.00  0.00    -0.111 Cl
HETATM   16  H9  UNL     1      23.612  -0.531  54.357  1.00  0.00     0.162 HD
ENDROOT
BRANCH  14  17
HETATM   17  C13 UNL     1      25.422   3.138  51.093  1.00  0.00     0.063 C 
BRANCH  17  18
HETATM   18  C14 UNL     1      26.013   3.331  49.718  1.00  0.00     0.269 C 
BRANCH  18  19
HETATM   19  N3  UNL     1      26.803   4.573  49.674  1.00  0.00     0.078 N 
HETATM   20  H21 UNL     1      26.286   5.361  50.157  1.00  0.00     0.312 HD
HETATM   21  H22 UNL     1      26.817   4.869  48.666  1.00  0.00     0.312 HD
ENDBRANCH  18  19
ENDBRANCH  17  18
ENDBRANCH  14  17
BRANCH   1  22
HETATM   22  C2  UNL     1      21.194   5.108  51.284  1.00  0.00     0.116 C 
HETATM   23  C1  UNL     1      20.786   5.709  49.979  1.00  0.00     0.026 C 
ENDBRANCH   1  22
TORSDOF 4
ENDMDL
MODEL 6
REMARK VINA RESULT:      -5.8      9.320     11.674
REMARK  4 active torsions:
REMARK  status: ('A' for Active; 'I' for Inactive)
REMARK    1  A    between atoms: C2_2  and  N1_3 
REMARK    2  A    between atoms: C12_16  and  C13_18 
REMARK    3  A    between atoms: C13_18  and  C14_19 
REMARK    4  A    between atoms: C14_19  and  N3_20 
ROOT
HETATM    1  N1  UNL     1      33.948   8.251  46.488  1.00  0.00    -0.378 N 
HETATM    2  C3  UNL     1      32.653   8.807  46.119  1.00  0.00     0.154 C 
HETATM    3  C4  UNL     1      31.578   8.048  46.846  1.00  0.00    -0.054 C 
HETATM    4  C5  UNL     1      30.724   8.706  47.619  1.00  0.00     0.078 C 
HETATM    5  C6  UNL     1      30.253   8.114  48.895  1.00  0.00     0.241 C 
HETATM    6  O1  UNL     1      29.431   8.937  49.363  1.00  0.00    -0.269 OA
HETATM    7  N2  UNL     1      30.681   6.843  49.449  1.00  0.00    -0.355 N 
HETATM    8  C7  UNL     1      31.658   5.807  49.062  1.00  0.00     0.163 C 
HETATM    9  C8  UNL     1      32.507   6.271  47.990  1.00  0.00     0.109 C 
HETATM   10  C9  UNL     1      31.638   6.527  46.716  1.00  0.00     0.078 C 
HETATM   11  O2  UNL     1      33.024   7.528  48.472  1.00  0.00    -0.344 OA
HETATM   12  C10 UNL     1      34.086   7.482  47.637  1.00  0.00     0.154 C 
HETATM   13  C11 UNL     1      35.455   7.614  48.307  1.00  0.00     0.073 C 
HETATM   14  C12 UNL     1      33.824   5.977  47.544  1.00  0.00     0.121 C 
HETATM   15 CL1  UNL     1      34.041   5.519  45.816  1.00  0.00    -0.111 Cl
HETATM   16  H9  UNL     1      30.097   6.731  50.336  1.00  0.00     0.162 HD
ENDROOT
BRANCH  14  17
HETATM   17  C13 UNL     1      34.675   5.099  48.395  1.00  0.00     0.063 C 
BRANCH  17  18
HETATM   18  C14 UNL     1      34.859   3.757  47.730  1.00  0.00     0.269 C 
BRANCH  18  19
HETATM   19  N3  UNL     1      33.974   2.757  48.350  1.00  0.00     0.078 N 
HETATM   20  H21 UNL     1      34.424   2.348  49.217  1.00  0.00     0.312 HD
HETATM   21  H22 UNL     1      33.944   1.946  47.683  1.00  0.00     0.312 HD
ENDBRANCH  18  19
ENDBRANCH  17  18
ENDBRANCH  14  17
BRANCH   1  22
HETATM   22  C2  UNL     1      34.956   9.188  46.161  1.00  0.00     0.116 C 
HETATM   23  C1  UNL     1      35.257   9.382  44.710  1.00  0.00     0.026 C 
ENDBRANCH   1  22
TORSDOF 4
ENDMDL
MODEL 7
REMARK VINA RESULT:      -5.7      2.608      4.725
REMARK  4 active torsions:
REMARK  status: ('A' for Active; 'I' for Inactive)
REMARK    1  A    between atoms: C2_2  and  N1_3 
REMARK    2  A    between atoms: C12_16  and  C13_18 
REMARK    3  A    between atoms: C13_18  and  C14_19 
REMARK    4  A    between atoms: C14_19  and  N3_20 
ROOT
HETATM    1  N1  UNL     1      25.465   2.499  51.302  1.00  0.00    -0.378 N 
HETATM    2  C3  UNL     1      26.309   2.879  50.176  1.00  0.00     0.154 C 
HETATM    3  C4  UNL     1      25.640   3.999  49.430  1.00  0.00    -0.054 C 
HETATM    4  C5  UNL     1      26.291   5.141  49.249  1.00  0.00     0.078 C 
HETATM    5  C6  UNL     1      25.570   6.436  49.315  1.00  0.00     0.241 C 
HETATM    6  O1  UNL     1      26.430   7.312  49.056  1.00  0.00    -0.269 OA
HETATM    7  N2  UNL     1      24.162   6.609  49.619  1.00  0.00    -0.355 N 
HETATM    8  C7  UNL     1      23.053   5.710  49.994  1.00  0.00     0.163 C 
HETATM    9  C8  UNL     1      23.543   4.389  50.311  1.00  0.00     0.109 C 
HETATM   10  C9  UNL     1      24.185   3.756  49.034  1.00  0.00     0.078 C 
HETATM   11  O2  UNL     1      24.571   4.624  51.294  1.00  0.00    -0.344 OA
HETATM   12  C10 UNL     1      24.485   3.363  51.775  1.00  0.00     0.154 C 
HETATM   13  C11 UNL     1      24.236   3.250  53.280  1.00  0.00     0.073 C 
HETATM   14  C12 UNL     1      23.098   3.316  51.130  1.00  0.00     0.121 C 
HETATM   15 CL1  UNL     1      22.935   1.693  50.369  1.00  0.00    -0.111 Cl
HETATM   16  H9  UNL     1      23.998   7.660  49.525  1.00  0.00     0.162 HD
ENDROOT
BRANCH  14  17
HETATM   17  C13 UNL     1      21.936   3.555  52.032  1.00  0.00     0.063 C 
BRANCH  17  18
HETATM   18  C14 UNL     1      20.846   2.551  51.745  1.00  0.00     0.269 C 
BRANCH  18  19
HETATM   19  N3  UNL     1      20.491   1.822  52.974  1.00  0.00     0.078 N 
HETATM   20  H21 UNL     1      21.351   1.650  53.568  1.00  0.00     0.312 HD
HETATM   21  H22 UNL     1      20.207   0.859  52.665  1.00  0.00     0.312 HD
ENDBRANCH  18  19
ENDBRANCH  17  18
ENDBRANCH  14  17
BRANCH   1  22
HETATM   22  C2  UNL     1      26.244   1.767  52.229  1.00  0.00     0.116 C 
HETATM   23  C1  UNL     1      26.486   0.325  51.923  1.00  0.00     0.026 C 
ENDBRANCH   1  22
TORSDOF 4
ENDMDL
MODEL 8
REMARK VINA RESULT:      -5.7      2.038      3.879
REMARK  4 active torsions:
REMARK  status: ('A' for Active; 'I' for Inactive)
REMARK    1  A    between atoms: C2_2  and  N1_3 
REMARK    2  A    between atoms: C12_16  and  C13_18 
REMARK    3  A    between atoms: C13_18  and  C14_19 
REMARK    4  A    between atoms: C14_19  and  N3_20 
ROOT
HETATM    1  N1  UNL     1      22.785   2.134  52.324  1.00  0.00    -0.378 N 
HETATM    2  C3  UNL     1      22.994   0.760  52.759  1.00  0.00     0.154 C 
HETATM    3  C4  UNL     1      24.471   0.485  52.792  1.00  0.00    -0.054 C 
HETATM    4  C5  UNL     1      25.030   0.062  53.918  1.00  0.00     0.078 C 
HETATM    5  C6  UNL     1      26.384   0.530  54.308  1.00  0.00     0.241 C 
HETATM    6  O1  UNL     1      26.653  -0.074  55.374  1.00  0.00    -0.269 OA
HETATM    7  N2  UNL     1      27.193   1.488  53.578  1.00  0.00    -0.355 N 
HETATM    8  C7  UNL     1      27.005   2.313  52.369  1.00  0.00     0.163 C 
HETATM    9  C8  UNL     1      25.626   2.291  51.937  1.00  0.00     0.109 C 
HETATM   10  C9  UNL     1      25.239   0.835  51.519  1.00  0.00     0.078 C 
HETATM   11  O2  UNL     1      24.885   2.659  53.117  1.00  0.00    -0.344 OA
HETATM   12  C10 UNL     1      23.816   3.064  52.394  1.00  0.00     0.154 C 
HETATM   13  C11 UNL     1      23.343   4.492  52.664  1.00  0.00     0.073 C 
HETATM   14  C12 UNL     1      24.781   3.173  51.212  1.00  0.00     0.121 C 
HETATM   15 CL1  UNL     1      23.918   2.513  49.776  1.00  0.00    -0.111 Cl
HETATM   16  H9  UNL     1      28.108   1.533  54.126  1.00  0.00     0.162 HD
ENDROOT
BRANCH  14  17
HETATM   17  C13 UNL     1      25.293   4.536  50.894  1.00  0.00     0.063 C 
BRANCH  17  18
HETATM   18  C14 UNL     1      25.646   4.625  49.429  1.00  0.00     0.269 C 
BRANCH  18  19
HETATM   19  N3  UNL     1      27.108   4.587  49.257  1.00  0.00     0.078 N 
HETATM   20  H21 UNL     1      27.361   4.201  48.303  1.00  0.00     0.312 HD
HETATM   21  H22 UNL     1      27.456   3.851  49.921  1.00  0.00     0.312 HD
ENDBRANCH  18  19
ENDBRANCH  17  18
ENDBRANCH  14  17
BRANCH   1  22
HETATM   22  C2  UNL     1      21.475   2.532  52.682  1.00  0.00     0.116 C 
HETATM   23  C1  UNL     1      20.380   2.203  51.721  1.00  0.00     0.026 C 
ENDBRANCH   1  22
TORSDOF 4
ENDMDL
MODEL 9
REMARK VINA RESULT:      -5.5      2.253      2.922
REMARK  4 active torsions:
REMARK  status: ('A' for Active; 'I' for Inactive)
REMARK    1  A    between atoms: C2_2  and  N1_3 
REMARK    2  A    between atoms: C12_16  and  C13_18 
REMARK    3  A    between atoms: C13_18  and  C14_19 
REMARK    4  A    between atoms: C14_19  and  N3_20 
ROOT
HETATM    1  N1  UNL     1      23.340   3.585  50.163  1.00  0.00    -0.378 N 
HETATM    2  C3  UNL     1      23.932   3.604  51.494  1.00  0.00     0.154 C 
HETATM    3  C4  UNL     1      23.256   2.558  52.336  1.00  0.00    -0.054 C 
HETATM    4  C5  UNL     1      23.988   1.615  52.915  1.00  0.00     0.078 C 
HETATM    5  C6  UNL     1      23.479   0.225  53.017  1.00  0.00     0.241 C 
HETATM    6  O1  UNL     1      24.359  -0.408  53.649  1.00  0.00    -0.269 OA
HETATM    7  N2  UNL     1      22.220  -0.260  52.483  1.00  0.00    -0.355 N 
HETATM    8  C7  UNL     1      21.125   0.327  51.686  1.00  0.00     0.163 C 
HETATM    9  C8  UNL     1      21.500   1.621  51.166  1.00  0.00     0.109 C 
HETATM   10  C9  UNL     1      21.730   2.609  52.356  1.00  0.00     0.078 C 
HETATM   11  O2  UNL     1      22.756   1.381  50.500  1.00  0.00    -0.344 OA
HETATM   12  C10 UNL     1      22.623   2.479  49.722  1.00  0.00     0.154 C 
HETATM   13  C11 UNL     1      22.730   2.234  48.216  1.00  0.00     0.073 C 
HETATM   14  C12 UNL     1      21.129   2.405  50.040  1.00  0.00     0.121 C 
HETATM   15 CL1  UNL     1      20.577   4.092  50.339  1.00  0.00    -0.111 Cl
HETATM   16  H9  UNL     1      22.177  -1.281  52.792  1.00  0.00     0.162 HD
ENDROOT
BRANCH  14  17
HETATM   17  C13 UNL     1      20.258   1.779  49.005  1.00  0.00     0.063 C 
BRANCH  17  18
HETATM   18  C14 UNL     1      19.113   2.703  48.668  1.00  0.00     0.269 C 
BRANCH  18  19
HETATM   19  N3  UNL     1      18.981   2.836  47.207  1.00  0.00     0.078 N 
HETATM   20  H21 UNL     1      19.151   1.906  46.731  1.00  0.00     0.312 HD
HETATM   21  H22 UNL     1      19.795   3.424  46.898  1.00  0.00     0.312 HD
ENDBRANCH  18  19
ENDBRANCH  17  18
ENDBRANCH  14  17
BRANCH   1  22
HETATM   22  C2  UNL     1      24.216   4.240  49.265  1.00  0.00     0.116 C 
HETATM   23  C1  UNL     1      25.679   4.139  49.549  1.00  0.00     0.026 C 
ENDBRANCH   1  22
TORSDOF 4
ENDMDL
