MODEL 1
REMARK VINA RESULT:      -8.5      0.000      0.000
REMARK  2 active torsions:
REMARK  status: ('A' for Active; 'I' for Inactive)
REMARK    1  A    between atoms: C3_3  and  N1_5 
REMARK    2  A    between atoms: N1_5  and  C5_7 
ROOT
HETATM    1  C5  UNL     1      25.041  -0.243  54.207  1.00  0.00     0.145 A 
HETATM    2  N2  UNL     1      25.286  -0.923  55.342  1.00  0.00    -0.223 NA
HETATM    3  C6  UNL     1      24.232  -1.517  55.971  1.00  0.00     0.236 A 
HETATM    4  N3  UNL     1      22.970  -1.463  55.523  1.00  0.00    -0.241 NA
HETATM    5  C7  UNL     1      22.726  -0.786  54.392  1.00  0.00     0.072 A 
HETATM    6  C8  UNL     1      23.757  -0.168  53.722  1.00  0.00     0.040 A 
HETATM    7  C9  UNL     1      23.750   0.621  52.498  1.00  0.00     0.039 C 
HETATM    8  C10 UNL     1      22.634   1.088  51.963  1.00  0.00     0.050 C 
HETATM    9 CL1  UNL     1      22.918   1.999  50.499  1.00  0.00    -0.086 Cl
HETATM   10  C11 UNL     1      21.192   1.083  52.219  1.00  0.00     0.294 C 
HETATM   11  N4  UNL     1      20.431   0.932  50.996  1.00  0.00     0.102 N 
HETATM   12  C12 UNL     1      19.330   0.025  51.284  1.00  0.00     0.221 C 
HETATM   13  C13 UNL     1      18.017   0.558  50.764  1.00  0.00     0.043 C 
HETATM   14  C14 UNL     1      19.309  -0.124  52.802  1.00  0.00     0.072 C 
HETATM   15  C15 UNL     1      20.757  -0.015  53.114  1.00  0.00    -0.038 C 
HETATM   16  C16 UNL     1      21.327  -0.797  54.003  1.00  0.00     0.038 C 
HETATM   17  H11 UNL     1      19.967   1.869  50.819  1.00  0.00     0.317 HD
ENDROOT
BRANCH   1  18
HETATM   18  N1  UNL     1      26.204   0.323  53.625  1.00  0.00    -0.312 N 
HETATM   19  C4  UNL     1      26.796   1.591  53.252  1.00  0.00     0.160 C 
BRANCH  18  20
HETATM   20  C3  UNL     1      27.137  -0.697  53.276  1.00  0.00     0.187 C 
HETATM   21  C2  UNL     1      28.427  -0.717  53.595  1.00  0.00     0.030 C 
HETATM   22  C1  UNL     1      29.188  -1.889  53.114  1.00  0.00     0.041 C 
HETATM   23  F1  UNL     1      26.725  -1.766  52.552  1.00  0.00    -0.186 F 
ENDBRANCH  18  20
ENDBRANCH   1  18
TORSDOF 2
ENDMDL
MODEL 2
REMARK VINA RESULT:      -8.2      1.920      3.094
REMARK  2 active torsions:
REMARK  status: ('A' for Active; 'I' for Inactive)
REMARK    1  A    between atoms: C3_3  and  N1_5 
REMARK    2  A    between atoms: N1_5  and  C5_7 
ROOT
HETATM    1  C5  UNL     1      25.911   1.074  52.914  1.00  0.00     0.145 A 
HETATM    2  N2  UNL     1      26.747   1.874  52.228  1.00  0.00    -0.223 NA
HETATM    3  C6  UNL     1      26.234   2.591  51.187  1.00  0.00     0.236 A 
HETATM    4  N3  UNL     1      24.949   2.544  50.812  1.00  0.00    -0.241 NA
HETATM    5  C7  UNL     1      24.116   1.746  51.496  1.00  0.00     0.072 A 
HETATM    6  C8  UNL     1      24.587   1.002  52.554  1.00  0.00     0.040 A 
HETATM    7  C9  UNL     1      23.897   0.071  53.435  1.00  0.00     0.039 C 
HETATM    8  C10 UNL     1      22.693  -0.404  53.162  1.00  0.00     0.050 C 
HETATM    9 CL1  UNL     1      22.106  -1.500  54.389  1.00  0.00    -0.086 Cl
HETATM   10  C11 UNL     1      21.667  -0.297  52.122  1.00  0.00     0.294 C 
HETATM   11  N4  UNL     1      20.334  -0.260  52.687  1.00  0.00     0.102 N 
HETATM   12  C12 UNL     1      19.575   0.728  51.934  1.00  0.00     0.221 C 
HETATM   13  C13 UNL     1      18.221   0.198  51.526  1.00  0.00     0.043 C 
HETATM   14  C14 UNL     1      20.433   1.062  50.717  1.00  0.00     0.072 C 
HETATM   15  C15 UNL     1      21.797   0.922  51.289  1.00  0.00    -0.038 C 
HETATM   16  C16 UNL     1      22.751   1.777  51.002  1.00  0.00     0.038 C 
HETATM   17  H11 UNL     1      19.882  -1.189  52.442  1.00  0.00     0.317 HD
ENDROOT
BRANCH   1  18
HETATM   18  N1  UNL     1      26.540   0.385  53.983  1.00  0.00    -0.312 N 
HETATM   19  C4  UNL     1      26.461   0.179  55.415  1.00  0.00     0.160 C 
BRANCH  18  20
HETATM   20  C3  UNL     1      27.642  -0.383  53.506  1.00  0.00     0.187 C 
HETATM   21  C2  UNL     1      28.869  -0.387  54.016  1.00  0.00     0.030 C 
HETATM   22  C1  UNL     1      29.841  -1.272  53.340  1.00  0.00     0.041 C 
HETATM   23  F1  UNL     1      27.479  -1.199  52.437  1.00  0.00    -0.186 F 
ENDBRANCH  18  20
ENDBRANCH   1  18
TORSDOF 2
ENDMDL
MODEL 3
REMARK VINA RESULT:      -8.0      2.287      6.105
REMARK  2 active torsions:
REMARK  status: ('A' for Active; 'I' for Inactive)
REMARK    1  A    between atoms: C3_3  and  N1_5 
REMARK    2  A    between atoms: N1_5  and  C5_7 
ROOT
HETATM    1  C5  UNL     1      22.200   0.931  52.849  1.00  0.00     0.145 A 
HETATM    2  N2  UNL     1      21.270   0.227  53.520  1.00  0.00    -0.223 NA
HETATM    3  C6  UNL     1      21.699  -0.744  54.377  1.00  0.00     0.236 A 
HETATM    4  N3  UNL     1      22.990  -1.034  54.587  1.00  0.00    -0.241 NA
HETATM    5  C7  UNL     1      23.917  -0.332  53.919  1.00  0.00     0.072 A 
HETATM    6  C8  UNL     1      23.533   0.657  53.042  1.00  0.00     0.040 A 
HETATM    7  C9  UNL     1      24.332   1.540  52.205  1.00  0.00     0.039 C 
HETATM    8  C10 UNL     1      25.618   1.328  51.976  1.00  0.00     0.050 C 
HETATM    9 CL1  UNL     1      26.328   2.541  50.939  1.00  0.00    -0.086 Cl
HETATM   10  C11 UNL     1      26.664   0.365  52.327  1.00  0.00     0.294 C 
HETATM   11  N4  UNL     1      27.932   1.019  52.576  1.00  0.00     0.102 N 
HETATM   12  C12 UNL     1      28.535   0.364  53.728  1.00  0.00     0.221 C 
HETATM   13  C13 UNL     1      29.985   0.025  53.480  1.00  0.00     0.043 C 
HETATM   14  C14 UNL     1      27.702  -0.891  53.967  1.00  0.00     0.072 C 
HETATM   15  C15 UNL     1      26.357  -0.419  53.547  1.00  0.00    -0.038 C 
HETATM   16  C16 UNL     1      25.278  -0.731  54.228  1.00  0.00     0.038 C 
HETATM   17  H11 UNL     1      28.562   0.764  51.762  1.00  0.00     0.317 HD
ENDROOT
BRANCH   1  18
HETATM   18  N1  UNL     1      21.650   1.924  51.997  1.00  0.00    -0.312 N 
HETATM   19  C4  UNL     1      21.112   3.269  52.006  1.00  0.00     0.160 C 
BRANCH  18  20
HETATM   20  C3  UNL     1      21.599   1.457  50.652  1.00  0.00     0.187 C 
HETATM   21  C2  UNL     1      21.854   2.179  49.565  1.00  0.00     0.030 C 
HETATM   22  C1  UNL     1      21.733   1.464  48.277  1.00  0.00     0.041 C 
HETATM   23  F1  UNL     1      21.265   0.168  50.399  1.00  0.00    -0.186 F 
ENDBRANCH  18  20
ENDBRANCH   1  18
TORSDOF 2
ENDMDL
MODEL 4
REMARK VINA RESULT:      -7.9      2.390      3.059
REMARK  2 active torsions:
REMARK  status: ('A' for Active; 'I' for Inactive)
REMARK    1  A    between atoms: C3_3  and  N1_5 
REMARK    2  A    between atoms: N1_5  and  C5_7 
ROOT
HETATM    1  C5  UNL     1      26.178   0.654  53.503  1.00  0.00     0.145 A 
HETATM    2  N2  UNL     1      25.769  -0.156  54.497  1.00  0.00    -0.223 NA
HETATM    3  C6  UNL     1      24.462  -0.546  54.506  1.00  0.00     0.236 A 
HETATM    4  N3  UNL     1      23.566  -0.169  53.584  1.00  0.00    -0.241 NA
HETATM    5  C7  UNL     1      23.973   0.637  52.594  1.00  0.00     0.072 A 
HETATM    6  C8  UNL     1      25.282   1.059  52.542  1.00  0.00     0.040 A 
HETATM    7  C9  UNL     1      25.957   1.928  51.590  1.00  0.00     0.039 C 
HETATM    8  C10 UNL     1      25.297   2.679  50.724  1.00  0.00     0.050 C 
HETATM    9 CL1  UNL     1      26.356   3.622  49.703  1.00  0.00    -0.086 Cl
HETATM   10  C11 UNL     1      23.915   2.980  50.341  1.00  0.00     0.294 C 
HETATM   11  N4  UNL     1      23.773   3.108  48.905  1.00  0.00     0.102 N 
HETATM   12  C12 UNL     1      22.526   2.453  48.537  1.00  0.00     0.221 C 
HETATM   13  C13 UNL     1      21.697   3.312  47.613  1.00  0.00     0.043 C 
HETATM   14  C14 UNL     1      21.800   2.186  49.851  1.00  0.00     0.072 C 
HETATM   15  C15 UNL     1      22.949   1.938  50.761  1.00  0.00    -0.038 C 
HETATM   16  C16 UNL     1      22.919   0.976  51.655  1.00  0.00     0.038 C 
HETATM   17  H11 UNL     1      23.601   4.138  48.716  1.00  0.00     0.317 HD
ENDROOT
BRANCH   1  18
HETATM   18  N1  UNL     1      27.554   0.989  53.577  1.00  0.00    -0.312 N 
HETATM   19  C4  UNL     1      28.450   2.110  53.774  1.00  0.00     0.160 C 
BRANCH  18  20
HETATM   20  C3  UNL     1      28.362  -0.172  53.398  1.00  0.00     0.187 C 
HETATM   21  C2  UNL     1      29.516  -0.420  54.009  1.00  0.00     0.030 C 
HETATM   22  C1  UNL     1      30.167  -1.699  53.653  1.00  0.00     0.041 C 
HETATM   23  F1  UNL     1      27.965  -1.141  52.539  1.00  0.00    -0.186 F 
ENDBRANCH  18  20
ENDBRANCH   1  18
TORSDOF 2
ENDMDL
MODEL 5
REMARK VINA RESULT:      -7.8      2.275      3.557
REMARK  2 active torsions:
REMARK  status: ('A' for Active; 'I' for Inactive)
REMARK    1  A    between atoms: C3_3  and  N1_5 
REMARK    2  A    between atoms: N1_5  and  C5_7 
ROOT
HETATM    1  C5  UNL     1      24.317   1.818  51.806  1.00  0.00     0.145 A 
HETATM    2  N2  UNL     1      24.671   2.573  50.749  1.00  0.00    -0.223 NA
HETATM    3  C6  UNL     1      23.722   2.835  49.805  1.00  0.00     0.236 A 
HETATM    4  N3  UNL     1      22.462   2.383  49.869  1.00  0.00    -0.241 NA
HETATM    5  C7  UNL     1      22.110   1.631  50.922  1.00  0.00     0.072 A 
HETATM    6  C8  UNL     1      23.032   1.339  51.901  1.00  0.00     0.040 A 
HETATM    7  C9  UNL     1      22.901   0.550  53.117  1.00  0.00     0.039 C 
HETATM    8  C10 UNL     1      21.872  -0.252  53.335  1.00  0.00     0.050 C 
HETATM    9 CL1  UNL     1      21.971  -1.075  54.872  1.00  0.00    -0.086 Cl
HETATM   10  C11 UNL     1      20.638  -0.681  52.670  1.00  0.00     0.294 C 
HETATM   11  N4  UNL     1      19.541  -0.806  53.608  1.00  0.00     0.102 N 
HETATM   12  C12 UNL     1      18.355  -0.272  52.955  1.00  0.00     0.221 C 
HETATM   13  C13 UNL     1      17.172  -1.197  53.105  1.00  0.00     0.043 C 
HETATM   14  C14 UNL     1      18.741  -0.092  51.490  1.00  0.00     0.072 C 
HETATM   15  C15 UNL     1      20.179   0.257  51.619  1.00  0.00    -0.038 C 
HETATM   16  C16 UNL     1      20.723   1.202  50.886  1.00  0.00     0.038 C 
HETATM   17  H11 UNL     1      19.350  -1.845  53.702  1.00  0.00     0.317 HD
ENDROOT
BRANCH   1  18
HETATM   18  N1  UNL     1      25.370   1.619  52.735  1.00  0.00    -0.312 N 
HETATM   19  C4  UNL     1      25.980   2.197  53.915  1.00  0.00     0.160 C 
BRANCH  18  20
HETATM   20  C3  UNL     1      26.102   0.438  52.416  1.00  0.00     0.187 C 
HETATM   21  C2  UNL     1      26.146  -0.673  53.145  1.00  0.00     0.030 C 
HETATM   22  C1  UNL     1      26.980  -1.764  52.600  1.00  0.00     0.041 C 
HETATM   23  F1  UNL     1      26.837   0.389  51.279  1.00  0.00    -0.186 F 
ENDBRANCH  18  20
ENDBRANCH   1  18
TORSDOF 2
ENDMDL
MODEL 6
REMARK VINA RESULT:      -7.3      4.267      6.141
REMARK  2 active torsions:
REMARK  status: ('A' for Active; 'I' for Inactive)
REMARK    1  A    between atoms: C3_3  and  N1_5 
REMARK    2  A    between atoms: N1_5  and  C5_7 
ROOT
HETATM    1  C5  UNL     1      23.901   4.742  49.331  1.00  0.00     0.145 A 
HETATM    2  N2  UNL     1      23.374   5.018  48.123  1.00  0.00    -0.223 NA
HETATM    3  C6  UNL     1      22.364   4.221  47.670  1.00  0.00     0.236 A 
HETATM    4  N3  UNL     1      21.869   3.182  48.357  1.00  0.00    -0.241 NA
HETATM    5  C7  UNL     1      22.393   2.907  49.559  1.00  0.00     0.072 A 
HETATM    6  C8  UNL     1      23.415   3.682  50.060  1.00  0.00     0.040 A 
HETATM    7  C9  UNL     1      24.147   3.585  51.314  1.00  0.00     0.039 C 
HETATM    8  C10 UNL     1      24.088   2.514  52.088  1.00  0.00     0.050 C 
HETATM    9 CL1  UNL     1      25.063   2.670  53.530  1.00  0.00    -0.086 Cl
HETATM   10  C11 UNL     1      23.445   1.198  52.117  1.00  0.00     0.294 C 
HETATM   11  N4  UNL     1      23.002   0.848  53.450  1.00  0.00     0.102 N 
HETATM   12  C12 UNL     1      21.698   0.216  53.317  1.00  0.00     0.221 C 
HETATM   13  C13 UNL     1      21.612  -1.061  54.119  1.00  0.00     0.043 C 
HETATM   14  C14 UNL     1      21.522  -0.050  51.825  1.00  0.00     0.072 C 
HETATM   15  C15 UNL     1      22.249   1.109  51.246  1.00  0.00    -0.038 C 
HETATM   16  C16 UNL     1      21.778   1.765  50.210  1.00  0.00     0.038 C 
HETATM   17  H11 UNL     1      23.644   0.071  53.781  1.00  0.00     0.317 HD
ENDROOT
BRANCH   1  18
HETATM   18  N1  UNL     1      24.932   5.637  49.714  1.00  0.00    -0.312 N 
HETATM   19  C4  UNL     1      25.173   6.848  50.471  1.00  0.00     0.160 C 
BRANCH  18  20
HETATM   20  C3  UNL     1      26.184   5.217  49.178  1.00  0.00     0.187 C 
HETATM   21  C2  UNL     1      27.174   6.016  48.792  1.00  0.00     0.030 C 
HETATM   22  C1  UNL     1      28.378   5.337  48.267  1.00  0.00     0.041 C 
HETATM   23  F1  UNL     1      26.442   3.896  49.027  1.00  0.00    -0.186 F 
ENDBRANCH  18  20
ENDBRANCH   1  18
TORSDOF 2
ENDMDL
MODEL 7
REMARK VINA RESULT:      -7.2      2.865      6.493
REMARK  2 active torsions:
REMARK  status: ('A' for Active; 'I' for Inactive)
REMARK    1  A    between atoms: C3_3  and  N1_5 
REMARK    2  A    between atoms: N1_5  and  C5_7 
ROOT
HETATM    1  C5  UNL     1      21.883   1.548  51.433  1.00  0.00     0.145 A 
HETATM    2  N2  UNL     1      20.803   0.888  51.889  1.00  0.00    -0.223 NA
HETATM    3  C6  UNL     1      20.992  -0.055  52.856  1.00  0.00     0.236 A 
HETATM    4  N3  UNL     1      22.190  -0.360  53.375  1.00  0.00    -0.241 NA
HETATM    5  C7  UNL     1      23.266   0.298  52.921  1.00  0.00     0.072 A 
HETATM    6  C8  UNL     1      23.125   1.259  51.945  1.00  0.00     0.040 A 
HETATM    7  C9  UNL     1      24.123   2.093  51.291  1.00  0.00     0.039 C 
HETATM    8  C10 UNL     1      25.420   1.849  51.379  1.00  0.00     0.050 C 
HETATM    9 CL1  UNL     1      26.386   3.007  50.498  1.00  0.00    -0.086 Cl
HETATM   10  C11 UNL     1      26.328   0.882  52.001  1.00  0.00     0.294 C 
HETATM   11  N4  UNL     1      27.519   1.523  52.520  1.00  0.00     0.102 N 
HETATM   12  C12 UNL     1      27.816   0.904  53.803  1.00  0.00     0.221 C 
HETATM   13  C13 UNL     1      29.274   0.529  53.917  1.00  0.00     0.043 C 
HETATM   14  C14 UNL     1      26.916  -0.326  53.882  1.00  0.00     0.072 C 
HETATM   15  C15 UNL     1      25.722   0.153  53.140  1.00  0.00    -0.038 C 
HETATM   16  C16 UNL     1      24.504  -0.112  53.557  1.00  0.00     0.038 C 
HETATM   17  H11 UNL     1      28.316   1.224  51.887  1.00  0.00     0.317 HD
ENDROOT
BRANCH   1  18
HETATM   18  N1  UNL     1      21.576   2.516  50.442  1.00  0.00    -0.312 N 
HETATM   19  C4  UNL     1      21.291   2.655  49.028  1.00  0.00     0.160 C 
BRANCH  18  20
HETATM   20  C3  UNL     1      21.525   3.820  51.013  1.00  0.00     0.187 C 
HETATM   21  C2  UNL     1      21.807   4.958  50.387  1.00  0.00     0.030 C 
HETATM   22  C1  UNL     1      21.679   6.186  51.200  1.00  0.00     0.041 C 
HETATM   23  F1  UNL     1      21.163   3.972  52.310  1.00  0.00    -0.186 F 
ENDBRANCH  18  20
ENDBRANCH   1  18
TORSDOF 2
ENDMDL
MODEL 8
REMARK VINA RESULT:      -7.1      5.656      7.839
REMARK  2 active torsions:
REMARK  status: ('A' for Active; 'I' for Inactive)
REMARK    1  A    between atoms: C3_3  and  N1_5 
REMARK    2  A    between atoms: N1_5  and  C5_7 
ROOT
HETATM    1  C5  UNL     1      25.625   5.949  49.252  1.00  0.00     0.145 A 
HETATM    2  N2  UNL     1      26.745   6.078  48.518  1.00  0.00    -0.223 NA
HETATM    3  C6  UNL     1      27.651   5.059  48.551  1.00  0.00     0.236 A 
HETATM    4  N3  UNL     1      27.488   3.941  49.270  1.00  0.00    -0.241 NA
HETATM    5  C7  UNL     1      26.372   3.812  50.001  1.00  0.00     0.072 A 
HETATM    6  C8  UNL     1      25.428   4.814  50.001  1.00  0.00     0.040 A 
HETATM    7  C9  UNL     1      24.158   4.914  50.705  1.00  0.00     0.039 C 
HETATM    8  C10 UNL     1      23.834   4.107  51.701  1.00  0.00     0.050 C 
HETATM    9 CL1  UNL     1      22.254   4.452  52.362  1.00  0.00    -0.086 Cl
HETATM   10  C11 UNL     1      24.400   2.981  52.448  1.00  0.00     0.294 C 
HETATM   11  N4  UNL     1      23.398   1.979  52.748  1.00  0.00     0.102 N 
HETATM   12  C12 UNL     1      24.018   0.677  52.548  1.00  0.00     0.221 C 
HETATM   13  C13 UNL     1      23.744  -0.254  53.703  1.00  0.00     0.043 C 
HETATM   14  C14 UNL     1      25.510   0.954  52.396  1.00  0.00     0.072 C 
HETATM   15  C15 UNL     1      25.483   2.278  51.721  1.00  0.00    -0.038 C 
HETATM   16  C16 UNL     1      26.304   2.561  50.735  1.00  0.00     0.038 C 
HETATM   17  H11 UNL     1      23.226   2.036  53.793  1.00  0.00     0.317 HD
ENDROOT
BRANCH   1  18
HETATM   18  N1  UNL     1      24.744   7.055  49.137  1.00  0.00    -0.312 N 
HETATM   19  C4  UNL     1      24.250   8.205  49.865  1.00  0.00     0.160 C 
BRANCH  18  20
HETATM   20  C3  UNL     1      24.107   7.057  47.862  1.00  0.00     0.187 C 
HETATM   21  C2  UNL     1      24.175   8.029  46.958  1.00  0.00     0.030 C 
HETATM   22  C1  UNL     1      23.424   7.795  45.706  1.00  0.00     0.041 C 
HETATM   23  F1  UNL     1      23.351   5.998  47.485  1.00  0.00    -0.186 F 
ENDBRANCH  18  20
ENDBRANCH   1  18
TORSDOF 2
ENDMDL
MODEL 9
REMARK VINA RESULT:      -7.0      3.168      7.426
REMARK  2 active torsions:
REMARK  status: ('A' for Active; 'I' for Inactive)
REMARK    1  A    between atoms: C3_3  and  N1_5 
REMARK    2  A    between atoms: N1_5  and  C5_7 
ROOT
HETATM    1  C5  UNL     1      23.119   2.754  50.015  1.00  0.00     0.145 A 
HETATM    2  N2  UNL     1      23.222   3.801  49.175  1.00  0.00    -0.223 NA
HETATM    3  C6  UNL     1      24.414   4.461  49.120  1.00  0.00     0.236 A 
HETATM    4  N3  UNL     1      25.485   4.128  49.853  1.00  0.00    -0.241 NA
HETATM    5  C7  UNL     1      25.383   3.085  50.690  1.00  0.00     0.072 A 
HETATM    6  C8  UNL     1      24.200   2.387  50.781  1.00  0.00     0.040 A 
HETATM    7  C9  UNL     1      23.840   1.243  51.606  1.00  0.00     0.039 C 
HETATM    8  C10 UNL     1      24.578   0.847  52.630  1.00  0.00     0.050 C 
HETATM    9 CL1  UNL     1      23.911  -0.549  53.442  1.00  0.00    -0.086 Cl
HETATM   10  C11 UNL     1      25.815   1.223  53.319  1.00  0.00     0.294 C 
HETATM   11  N4  UNL     1      26.581   0.060  53.716  1.00  0.00     0.102 N 
HETATM   12  C12 UNL     1      27.982   0.358  53.457  1.00  0.00     0.221 C 
HETATM   13  C13 UNL     1      28.855  -0.001  54.635  1.00  0.00     0.043 C 
HETATM   14  C14 UNL     1      28.033   1.854  53.160  1.00  0.00     0.072 C 
HETATM   15  C15 UNL     1      26.722   2.051  52.490  1.00  0.00    -0.038 C 
HETATM   16  C16 UNL     1      26.603   2.816  51.429  1.00  0.00     0.038 C 
HETATM   17  H11 UNL     1      26.509   0.005  54.773  1.00  0.00     0.317 HD
ENDROOT
BRANCH   1  18
HETATM   18  N1  UNL     1      21.846   2.129  49.986  1.00  0.00    -0.312 N 
HETATM   19  C4  UNL     1      21.153   0.971  49.461  1.00  0.00     0.160 C 
BRANCH  18  20
HETATM   20  C3  UNL     1      20.897   2.890  50.727  1.00  0.00     0.187 C 
HETATM   21  C2  UNL     1      19.614   3.051  50.418  1.00  0.00     0.030 C 
HETATM   22  C1  UNL     1      18.831   3.891  51.349  1.00  0.00     0.041 C 
HETATM   23  F1  UNL     1      21.283   3.530  51.857  1.00  0.00    -0.186 F 
ENDBRANCH  18  20
ENDBRANCH   1  18
TORSDOF 2
ENDMDL
