MODEL 1
REMARK VINA RESULT:      -8.1      0.000      0.000
REMARK  9 active torsions:
REMARK  status: ('A' for Active; 'I' for Inactive)
REMARK    1  A    between atoms: O1_1  and  C1_2 
REMARK    2  A    between atoms: C1_2  and  C2_3 
REMARK    3  A    between atoms: C2_3  and  C3_4 
REMARK    4  A    between atoms: C3_4  and  C4_5 
REMARK    5  A    between atoms: C4_5  and  C5_6 
REMARK    6  A    between atoms: C5_6  and  O2_7 
REMARK    7  A    between atoms: O2_7  and  C6_8 
REMARK    8  A    between atoms: N1_12  and  C10_13 
REMARK    9  A    between atoms: C20_26  and  O3_27 
ROOT
HETATM    1  C6  UNL     1      25.519   4.735  49.700  1.00  0.00     0.109 C 
HETATM    2  C7  UNL     1      25.355   3.601  49.011  1.00  0.00     0.010 C 
HETATM    3  C8  UNL     1      26.117   2.717  49.763  1.00  0.00     0.008 C 
HETATM    4  C9  UNL     1      26.471   2.845  51.172  1.00  0.00     0.153 C 
HETATM    5  N1  UNL     1      26.085   1.791  52.086  1.00  0.00    -0.359 N 
HETATM    6  C16 UNL     1      24.789   1.287  52.602  1.00  0.00     0.275 C 
HETATM    7  N2  UNL     1      24.016   2.376  53.092  1.00  0.00    -0.264 NA
HETATM    8  C17 UNL     1      22.796   2.741  52.701  1.00  0.00     0.222 C 
HETATM    9  N3  UNL     1      22.538   1.733  51.685  1.00  0.00    -0.282 NA
HETATM   10  C18 UNL     1      23.142   2.106  50.557  1.00  0.00     0.100 C 
HETATM   11  C19 UNL     1      23.660   3.374  51.139  1.00  0.00     0.137 C 
HETATM   12  C20 UNL     1      24.533   4.264  50.721  1.00  0.00     0.084 C 
ENDROOT
BRANCH   1  13
HETATM   13  O2  UNL     1      26.095   5.950  49.890  1.00  0.00    -0.348 OA
BRANCH  13  14
HETATM   14  C5  UNL     1      26.807   6.503  48.810  1.00  0.00     0.176 C 
BRANCH  14  15
HETATM   15  C4  UNL     1      27.999   5.587  48.482  1.00  0.00     0.027 C 
BRANCH  15  16
HETATM   16  C3  UNL     1      29.219   6.381  48.163  1.00  0.00     0.004 C 
BRANCH  16  17
HETATM   17  C2  UNL     1      30.521   5.651  48.222  1.00  0.00     0.026 C 
BRANCH  17  18
HETATM   18  C1  UNL     1      31.458   6.131  49.273  1.00  0.00     0.164 C 
BRANCH  18  19
HETATM   19  O1  UNL     1      31.356   5.419  50.449  1.00  0.00    -0.401 OA
HETATM   20  H1  UNL     1      31.647   5.982  51.225  1.00  0.00     0.209 HD
ENDBRANCH  18  19
ENDBRANCH  17  18
ENDBRANCH  16  17
ENDBRANCH  15  16
ENDBRANCH  14  15
ENDBRANCH  13  14
ENDBRANCH   1  13
BRANCH  12  21
HETATM   21  O3  UNL     1      24.362   5.109  51.828  1.00  0.00    -0.362 OA
HETATM   22  H24 UNL     1      24.017   4.731  52.683  1.00  0.00     0.217 HD
ENDBRANCH  12  21
BRANCH   5  23
HETATM   23  C10 UNL     1      27.177   0.989  52.640  1.00  0.00     0.034 A 
HETATM   24  C11 UNL     1      28.173   1.731  53.285  1.00  0.00     0.029 A 
HETATM   25  C12 UNL     1      29.255   1.085  53.869  1.00  0.00     0.005 A 
HETATM   26  C13 UNL     1      29.373  -0.293  53.828  1.00  0.00     0.042 A 
HETATM   27  C14 UNL     1      28.381  -1.001  53.188  1.00  0.00     0.118 A 
HETATM   28  F1  UNL     1      28.384  -2.360  53.081  1.00  0.00    -0.206 F 
HETATM   29  C15 UNL     1      27.313  -0.356  52.612  1.00  0.00     0.071 A 
ENDBRANCH   5  23
TORSDOF 9
ENDMDL
MODEL 2
REMARK VINA RESULT:      -8.0      4.185      6.646
REMARK  9 active torsions:
REMARK  status: ('A' for Active; 'I' for Inactive)
REMARK    1  A    between atoms: O1_1  and  C1_2 
REMARK    2  A    between atoms: C1_2  and  C2_3 
REMARK    3  A    between atoms: C2_3  and  C3_4 
REMARK    4  A    between atoms: C3_4  and  C4_5 
REMARK    5  A    between atoms: C4_5  and  C5_6 
REMARK    6  A    between atoms: C5_6  and  O2_7 
REMARK    7  A    between atoms: O2_7  and  C6_8 
REMARK    8  A    between atoms: N1_12  and  C10_13 
REMARK    9  A    between atoms: C20_26  and  O3_27 
ROOT
HETATM    1  C6  UNL     1      25.819   1.886  53.046  1.00  0.00     0.109 C 
HETATM    2  C7  UNL     1      25.626   1.370  51.828  1.00  0.00     0.010 C 
HETATM    3  C8  UNL     1      24.397   0.746  51.992  1.00  0.00     0.008 C 
HETATM    4  C9  UNL     1      23.374   1.073  52.980  1.00  0.00     0.153 C 
HETATM    5  N1  UNL     1      22.051   1.437  52.520  1.00  0.00    -0.359 N 
HETATM    6  C16 UNL     1      21.493   2.587  51.769  1.00  0.00     0.275 C 
HETATM    7  N2  UNL     1      21.920   3.802  52.373  1.00  0.00    -0.264 NA
HETATM    8  C17 UNL     1      22.598   4.795  51.799  1.00  0.00     0.222 C 
HETATM    9  N3  UNL     1      22.744   4.264  50.454  1.00  0.00    -0.282 NA
HETATM   10  C18 UNL     1      23.762   3.405  50.447  1.00  0.00     0.100 C 
HETATM   11  C19 UNL     1      24.080   3.619  51.885  1.00  0.00     0.137 C 
HETATM   12  C20 UNL     1      24.865   2.994  52.735  1.00  0.00     0.084 C 
ENDROOT
BRANCH   1  13
HETATM   13  O2  UNL     1      26.392   1.871  54.278  1.00  0.00    -0.348 OA
BRANCH  13  14
HETATM   14  C5  UNL     1      26.752   0.618  54.808  1.00  0.00     0.176 C 
BRANCH  14  15
HETATM   15  C4  UNL     1      28.287   0.506  54.812  1.00  0.00     0.027 C 
BRANCH  15  16
HETATM   16  C3  UNL     1      28.797   0.016  53.501  1.00  0.00     0.004 C 
BRANCH  16  17
HETATM   17  C2  UNL     1      29.358  -1.368  53.482  1.00  0.00     0.026 C 
BRANCH  17  18
HETATM   18  C1  UNL     1      28.447  -2.403  52.921  1.00  0.00     0.164 C 
BRANCH  18  19
HETATM   19  O1  UNL     1      28.690  -3.663  53.425  1.00  0.00    -0.401 OA
HETATM   20  H1  UNL     1      29.128  -4.237  52.731  1.00  0.00     0.209 HD
ENDBRANCH  18  19
ENDBRANCH  17  18
ENDBRANCH  16  17
ENDBRANCH  15  16
ENDBRANCH  14  15
ENDBRANCH  13  14
ENDBRANCH   1  13
BRANCH  12  21
HETATM   21  O3  UNL     1      24.597   3.874  53.795  1.00  0.00    -0.362 OA
HETATM   22  H24 UNL     1      23.802   3.714  54.373  1.00  0.00     0.217 HD
ENDBRANCH  12  21
BRANCH   5  23
HETATM   23  C10 UNL     1      20.984   0.477  52.809  1.00  0.00     0.034 A 
HETATM   24  C11 UNL     1      21.333  -0.521  53.725  1.00  0.00     0.029 A 
HETATM   25  C12 UNL     1      20.402  -1.482  54.098  1.00  0.00     0.005 A 
HETATM   26  C13 UNL     1      19.120  -1.474  53.578  1.00  0.00     0.042 A 
HETATM   27  C14 UNL     1      18.799  -0.483  52.679  1.00  0.00     0.118 A 
HETATM   28  F1  UNL     1      17.571  -0.370  52.098  1.00  0.00    -0.206 F 
HETATM   29  C15 UNL     1      19.726   0.464  52.313  1.00  0.00     0.071 A 
ENDBRANCH   5  23
TORSDOF 9
ENDMDL
MODEL 3
REMARK VINA RESULT:      -7.9      1.756      2.351
REMARK  9 active torsions:
REMARK  status: ('A' for Active; 'I' for Inactive)
REMARK    1  A    between atoms: O1_1  and  C1_2 
REMARK    2  A    between atoms: C1_2  and  C2_3 
REMARK    3  A    between atoms: C2_3  and  C3_4 
REMARK    4  A    between atoms: C3_4  and  C4_5 
REMARK    5  A    between atoms: C4_5  and  C5_6 
REMARK    6  A    between atoms: C5_6  and  O2_7 
REMARK    7  A    between atoms: O2_7  and  C6_8 
REMARK    8  A    between atoms: N1_12  and  C10_13 
REMARK    9  A    between atoms: C20_26  and  O3_27 
ROOT
HETATM    1  C6  UNL     1      23.347   4.611  50.163  1.00  0.00     0.109 C 
HETATM    2  C7  UNL     1      23.644   3.614  49.323  1.00  0.00     0.010 C 
HETATM    3  C8  UNL     1      24.686   2.994  50.000  1.00  0.00     0.008 C 
HETATM    4  C9  UNL     1      24.951   3.043  51.433  1.00  0.00     0.153 C 
HETATM    5  N1  UNL     1      25.001   1.802  52.176  1.00  0.00    -0.359 N 
HETATM    6  C16 UNL     1      24.002   0.768  52.539  1.00  0.00     0.275 C 
HETATM    7  N2  UNL     1      22.861   1.391  53.117  1.00  0.00    -0.264 NA
HETATM    8  C17 UNL     1      21.598   1.309  52.701  1.00  0.00     0.222 C 
HETATM    9  N3  UNL     1      21.762   0.439  51.548  1.00  0.00    -0.282 NA
HETATM   10  C18 UNL     1      22.180   1.174  50.519  1.00  0.00     0.100 C 
HETATM   11  C19 UNL     1      22.157   2.446  51.293  1.00  0.00     0.137 C 
HETATM   12  C20 UNL     1      22.616   3.654  51.050  1.00  0.00     0.084 C 
ENDROOT
BRANCH   1  13
HETATM   13  O2  UNL     1      23.401   5.913  50.546  1.00  0.00    -0.348 OA
BRANCH  13  14
HETATM   14  C5  UNL     1      24.094   6.805  49.706  1.00  0.00     0.176 C 
BRANCH  14  15
HETATM   15  C4  UNL     1      25.605   6.577  49.882  1.00  0.00     0.027 C 
BRANCH  15  16
HETATM   16  C3  UNL     1      26.250   6.210  48.590  1.00  0.00     0.004 C 
BRANCH  16  17
HETATM   17  C2  UNL     1      27.393   5.250  48.667  1.00  0.00     0.026 C 
BRANCH  17  18
HETATM   18  C1  UNL     1      28.714   5.824  48.295  1.00  0.00     0.164 C 
BRANCH  18  19
HETATM   19  O1  UNL     1      29.726   5.441  49.150  1.00  0.00    -0.401 OA
HETATM   20  H1  UNL     1      30.606   5.793  48.830  1.00  0.00     0.209 HD
ENDBRANCH  18  19
ENDBRANCH  17  18
ENDBRANCH  16  17
ENDBRANCH  15  16
ENDBRANCH  14  15
ENDBRANCH  13  14
ENDBRANCH   1  13
BRANCH  12  21
HETATM   21  O3  UNL     1      22.120   4.198  52.245  1.00  0.00    -0.362 OA
HETATM   22  H24 UNL     1      21.289   4.746  52.224  1.00  0.00     0.217 HD
ENDBRANCH  12  21
BRANCH   5  23
HETATM   23  C10 UNL     1      26.316   1.412  52.688  1.00  0.00     0.034 A 
HETATM   24  C11 UNL     1      26.611   0.051  52.558  1.00  0.00     0.029 A 
HETATM   25  C12 UNL     1      27.836  -0.442  52.988  1.00  0.00     0.005 A 
HETATM   26  C13 UNL     1      28.785   0.394  53.550  1.00  0.00     0.042 A 
HETATM   27  C14 UNL     1      28.473   1.729  53.669  1.00  0.00     0.118 A 
HETATM   28  F1  UNL     1      29.323   2.650  54.205  1.00  0.00    -0.206 F 
HETATM   29  C15 UNL     1      27.258   2.210  53.241  1.00  0.00     0.071 A 
ENDBRANCH   5  23
TORSDOF 9
ENDMDL
MODEL 4
REMARK VINA RESULT:      -7.9      3.098      6.290
REMARK  9 active torsions:
REMARK  status: ('A' for Active; 'I' for Inactive)
REMARK    1  A    between atoms: O1_1  and  C1_2 
REMARK    2  A    between atoms: C1_2  and  C2_3 
REMARK    3  A    between atoms: C2_3  and  C3_4 
REMARK    4  A    between atoms: C3_4  and  C4_5 
REMARK    5  A    between atoms: C4_5  and  C5_6 
REMARK    6  A    between atoms: C5_6  and  O2_7 
REMARK    7  A    between atoms: O2_7  and  C6_8 
REMARK    8  A    between atoms: N1_12  and  C10_13 
REMARK    9  A    between atoms: C20_26  and  O3_27 
ROOT
HETATM    1  C6  UNL     1      22.043   2.334  51.325  1.00  0.00     0.109 C 
HETATM    2  C7  UNL     1      22.445   3.143  52.311  1.00  0.00     0.010 C 
HETATM    3  C8  UNL     1      23.619   2.519  52.709  1.00  0.00     0.008 C 
HETATM    4  C9  UNL     1      24.452   1.628  51.909  1.00  0.00     0.153 C 
HETATM    5  N1  UNL     1      25.840   1.978  51.692  1.00  0.00    -0.359 N 
HETATM    6  C16 UNL     1      26.534   3.061  50.954  1.00  0.00     0.275 C 
HETATM    7  N2  UNL     1      26.018   3.143  49.631  1.00  0.00    -0.264 NA
HETATM    8  C17 UNL     1      25.463   4.202  49.044  1.00  0.00     0.222 C 
HETATM    9  N3  UNL     1      25.555   5.172  50.123  1.00  0.00    -0.282 NA
HETATM   10  C18 UNL     1      24.546   4.962  50.967  1.00  0.00     0.100 C 
HETATM   11  C19 UNL     1      23.978   3.844  50.164  1.00  0.00     0.137 C 
HETATM   12  C20 UNL     1      23.048   2.946  50.403  1.00  0.00     0.084 C 
ENDROOT
BRANCH   1  13
HETATM   13  O2  UNL     1      21.260   1.338  50.836  1.00  0.00    -0.348 OA
BRANCH  13  14
HETATM   14  C5  UNL     1      21.102   0.189  51.633  1.00  0.00     0.176 C 
BRANCH  14  15
HETATM   15  C4  UNL     1      20.021   0.466  52.692  1.00  0.00     0.027 C 
BRANCH  15  16
HETATM   16  C3  UNL     1      20.517   0.164  54.063  1.00  0.00     0.004 C 
BRANCH  16  17
HETATM   17  C2  UNL     1      21.895  -0.405  54.161  1.00  0.00     0.026 C 
BRANCH  17  18
HETATM   18  C1  UNL     1      21.977  -1.726  54.842  1.00  0.00     0.164 C 
BRANCH  18  19
HETATM   19  O1  UNL     1      22.968  -1.776  55.799  1.00  0.00    -0.401 OA
HETATM   20  H1  UNL     1      23.352  -0.864  55.953  1.00  0.00     0.209 HD
ENDBRANCH  18  19
ENDBRANCH  17  18
ENDBRANCH  16  17
ENDBRANCH  15  16
ENDBRANCH  14  15
ENDBRANCH  13  14
ENDBRANCH   1  13
BRANCH  12  21
HETATM   21  O3  UNL     1      23.132   2.364  49.130  1.00  0.00    -0.362 OA
HETATM   22  H24 UNL     1      22.752   2.847  48.346  1.00  0.00     0.217 HD
ENDBRANCH  12  21
BRANCH   5  23
HETATM   23  C10 UNL     1      26.828   1.120  52.346  1.00  0.00     0.034 A 
HETATM   24  C11 UNL     1      26.579  -0.251  52.224  1.00  0.00     0.029 A 
HETATM   25  C12 UNL     1      27.455  -1.172  52.785  1.00  0.00     0.005 A 
HETATM   26  C13 UNL     1      28.583  -0.758  53.473  1.00  0.00     0.042 A 
HETATM   27  C14 UNL     1      28.807   0.595  53.580  1.00  0.00     0.118 A 
HETATM   28  F1  UNL     1      29.881   1.125  54.232  1.00  0.00    -0.206 F 
HETATM   29  C15 UNL     1      27.936   1.501  53.023  1.00  0.00     0.071 A 
ENDBRANCH   5  23
TORSDOF 9
ENDMDL
MODEL 5
REMARK VINA RESULT:      -7.5      3.059      5.877
REMARK  9 active torsions:
REMARK  status: ('A' for Active; 'I' for Inactive)
REMARK    1  A    between atoms: O1_1  and  C1_2 
REMARK    2  A    between atoms: C1_2  and  C2_3 
REMARK    3  A    between atoms: C2_3  and  C3_4 
REMARK    4  A    between atoms: C3_4  and  C4_5 
REMARK    5  A    between atoms: C4_5  and  C5_6 
REMARK    6  A    between atoms: C5_6  and  O2_7 
REMARK    7  A    between atoms: O2_7  and  C6_8 
REMARK    8  A    between atoms: N1_12  and  C10_13 
REMARK    9  A    between atoms: C20_26  and  O3_27 
ROOT
HETATM    1  C6  UNL     1      23.824   1.451  52.686  1.00  0.00     0.109 C 
HETATM    2  C7  UNL     1      23.820   2.610  53.353  1.00  0.00     0.010 C 
HETATM    3  C8  UNL     1      24.554   3.416  52.494  1.00  0.00     0.008 C 
HETATM    4  C9  UNL     1      24.737   3.229  51.059  1.00  0.00     0.153 C 
HETATM    5  N1  UNL     1      24.327   4.286  50.159  1.00  0.00    -0.359 N 
HETATM    6  C16 UNL     1      23.021   4.873  49.774  1.00  0.00     0.275 C 
HETATM    7  N2  UNL     1      22.122   3.833  49.407  1.00  0.00    -0.264 NA
HETATM    8  C17 UNL     1      20.930   3.570  49.942  1.00  0.00     0.222 C 
HETATM    9  N3  UNL     1      20.861   4.618  50.947  1.00  0.00    -0.282 NA
HETATM   10  C18 UNL     1      21.559   4.229  52.013  1.00  0.00     0.100 C 
HETATM   11  C19 UNL     1      21.917   2.912  51.418  1.00  0.00     0.137 C 
HETATM   12  C20 UNL     1      22.765   1.969  51.766  1.00  0.00     0.084 C 
ENDROOT
BRANCH   1  13
HETATM   13  O2  UNL     1      24.286   0.192  52.473  1.00  0.00    -0.348 OA
BRANCH  13  14
HETATM   14  C5  UNL     1      25.497  -0.165  53.094  1.00  0.00     0.176 C 
BRANCH  14  15
HETATM   15  C4  UNL     1      26.636  -0.037  52.067  1.00  0.00     0.027 C 
BRANCH  15  16
HETATM   16  C3  UNL     1      27.481   1.158  52.344  1.00  0.00     0.004 C 
BRANCH  16  17
HETATM   17  C2  UNL     1      27.652   1.533  53.779  1.00  0.00     0.026 C 
BRANCH  17  18
HETATM   18  C1  UNL     1      28.996   1.236  54.345  1.00  0.00     0.164 C 
BRANCH  18  19
HETATM   19  O1  UNL     1      29.691   2.372  54.702  1.00  0.00    -0.401 OA
HETATM   20  H1  UNL     1      29.143   3.190  54.518  1.00  0.00     0.209 HD
ENDBRANCH  18  19
ENDBRANCH  17  18
ENDBRANCH  16  17
ENDBRANCH  15  16
ENDBRANCH  14  15
ENDBRANCH  13  14
ENDBRANCH   1  13
BRANCH  12  21
HETATM   21  O3  UNL     1      22.411   1.113  50.712  1.00  0.00    -0.362 OA
HETATM   22  H24 UNL     1      21.596   0.547  50.796  1.00  0.00     0.217 HD
ENDBRANCH  12  21
BRANCH   5  23
HETATM   23  C10 UNL     1      25.405   4.990  49.463  1.00  0.00     0.034 A 
HETATM   24  C11 UNL     1      25.110   6.316  49.126  1.00  0.00     0.029 A 
HETATM   25  C12 UNL     1      26.059   7.098  48.479  1.00  0.00     0.005 A 
HETATM   26  C13 UNL     1      27.305   6.590  48.156  1.00  0.00     0.042 A 
HETATM   27  C14 UNL     1      27.572   5.284  48.497  1.00  0.00     0.118 A 
HETATM   28  F1  UNL     1      28.761   4.671  48.233  1.00  0.00    -0.206 F 
HETATM   29  C15 UNL     1      26.629   4.515  49.137  1.00  0.00     0.071 A 
ENDBRANCH   5  23
TORSDOF 9
ENDMDL
MODEL 6
REMARK VINA RESULT:      -7.5      1.949      2.302
REMARK  9 active torsions:
REMARK  status: ('A' for Active; 'I' for Inactive)
REMARK    1  A    between atoms: O1_1  and  C1_2 
REMARK    2  A    between atoms: C1_2  and  C2_3 
REMARK    3  A    between atoms: C2_3  and  C3_4 
REMARK    4  A    between atoms: C3_4  and  C4_5 
REMARK    5  A    between atoms: C4_5  and  C5_6 
REMARK    6  A    between atoms: C5_6  and  O2_7 
REMARK    7  A    between atoms: O2_7  and  C6_8 
REMARK    8  A    between atoms: N1_12  and  C10_13 
REMARK    9  A    between atoms: C20_26  and  O3_27 
ROOT
HETATM    1  C6  UNL     1      25.008   4.875  49.972  1.00  0.00     0.109 C 
HETATM    2  C7  UNL     1      25.144   3.797  49.194  1.00  0.00     0.010 C 
HETATM    3  C8  UNL     1      25.976   3.004  49.973  1.00  0.00     0.008 C 
HETATM    4  C9  UNL     1      26.141   3.069  51.421  1.00  0.00     0.153 C 
HETATM    5  N1  UNL     1      25.869   1.884  52.208  1.00  0.00    -0.359 N 
HETATM    6  C16 UNL     1      24.646   1.106  52.523  1.00  0.00     0.275 C 
HETATM    7  N2  UNL     1      23.628   1.986  52.985  1.00  0.00    -0.264 NA
HETATM    8  C17 UNL     1      22.411   2.153  52.470  1.00  0.00     0.222 C 
HETATM    9  N3  UNL     1      22.466   1.210  51.365  1.00  0.00    -0.282 NA
HETATM   10  C18 UNL     1      23.106   1.787  50.348  1.00  0.00     0.100 C 
HETATM   11  C19 UNL     1      23.302   3.072  51.074  1.00  0.00     0.137 C 
HETATM   12  C20 UNL     1      24.027   4.141  50.829  1.00  0.00     0.084 C 
ENDROOT
BRANCH   1  13
HETATM   13  O2  UNL     1      25.314   6.153  50.314  1.00  0.00    -0.348 OA
BRANCH  13  14
HETATM   14  C5  UNL     1      24.899   7.173  49.437  1.00  0.00     0.176 C 
BRANCH  14  15
HETATM   15  C4  UNL     1      25.989   7.383  48.371  1.00  0.00     0.027 C 
BRANCH  15  16
HETATM   16  C3  UNL     1      27.340   7.474  48.991  1.00  0.00     0.004 C 
BRANCH  16  17
HETATM   17  C2  UNL     1      28.055   8.777  48.837  1.00  0.00     0.026 C 
BRANCH  17  18
HETATM   18  C1  UNL     1      27.614   9.844  49.776  1.00  0.00     0.164 C 
BRANCH  18  19
HETATM   19  O1  UNL     1      27.625   9.437  51.093  1.00  0.00    -0.401 OA
HETATM   20  H1  UNL     1      28.559   9.450  51.455  1.00  0.00     0.209 HD
ENDBRANCH  18  19
ENDBRANCH  17  18
ENDBRANCH  16  17
ENDBRANCH  15  16
ENDBRANCH  14  15
ENDBRANCH  13  14
ENDBRANCH   1  13
BRANCH  12  21
HETATM   21  O3  UNL     1      23.575   4.838  51.960  1.00  0.00    -0.362 OA
HETATM   22  H24 UNL     1      24.232   5.321  52.531  1.00  0.00     0.217 HD
ENDBRANCH  12  21
BRANCH   5  23
HETATM   23  C10 UNL     1      27.028   1.251  52.838  1.00  0.00     0.034 A 
HETATM   24  C11 UNL     1      27.127  -0.127  52.620  1.00  0.00     0.029 A 
HETATM   25  C12 UNL     1      28.194  -0.842  53.150  1.00  0.00     0.005 A 
HETATM   26  C13 UNL     1      29.175  -0.213  53.897  1.00  0.00     0.042 A 
HETATM   27  C14 UNL     1      29.057   1.143  54.098  1.00  0.00     0.118 A 
HETATM   28  F1  UNL     1      29.957   1.873  54.815  1.00  0.00    -0.206 F 
HETATM   29  C15 UNL     1      27.998   1.844  53.571  1.00  0.00     0.071 A 
ENDBRANCH   5  23
TORSDOF 9
ENDMDL
MODEL 7
REMARK VINA RESULT:      -7.5      3.775      6.609
REMARK  9 active torsions:
REMARK  status: ('A' for Active; 'I' for Inactive)
REMARK    1  A    between atoms: O1_1  and  C1_2 
REMARK    2  A    between atoms: C1_2  and  C2_3 
REMARK    3  A    between atoms: C2_3  and  C3_4 
REMARK    4  A    between atoms: C3_4  and  C4_5 
REMARK    5  A    between atoms: C4_5  and  C5_6 
REMARK    6  A    between atoms: C5_6  and  O2_7 
REMARK    7  A    between atoms: O2_7  and  C6_8 
REMARK    8  A    between atoms: N1_12  and  C10_13 
REMARK    9  A    between atoms: C20_26  and  O3_27 
ROOT
HETATM    1  C6  UNL     1      23.635   1.614  52.452  1.00  0.00     0.109 C 
HETATM    2  C7  UNL     1      23.596   2.777  53.108  1.00  0.00     0.010 C 
HETATM    3  C8  UNL     1      24.405   3.568  52.303  1.00  0.00     0.008 C 
HETATM    4  C9  UNL     1      24.695   3.367  50.888  1.00  0.00     0.153 C 
HETATM    5  N1  UNL     1      24.370   4.423  49.953  1.00  0.00    -0.359 N 
HETATM    6  C16 UNL     1      23.105   5.024  49.464  1.00  0.00     0.275 C 
HETATM    7  N2  UNL     1      22.222   3.994  49.036  1.00  0.00    -0.264 NA
HETATM    8  C17 UNL     1      20.990   3.750  49.480  1.00  0.00     0.222 C 
HETATM    9  N3  UNL     1      20.858   4.806  50.470  1.00  0.00    -0.282 NA
HETATM   10  C18 UNL     1      21.467   4.416  51.588  1.00  0.00     0.100 C 
HETATM   11  C19 UNL     1      21.852   3.090  51.032  1.00  0.00     0.137 C 
HETATM   12  C20 UNL     1      22.658   2.139  51.449  1.00  0.00     0.084 C 
ENDROOT
BRANCH   1  13
HETATM   13  O2  UNL     1      24.096   0.347  52.283  1.00  0.00    -0.348 OA
BRANCH  13  14
HETATM   14  C5  UNL     1      24.648  -0.295  53.407  1.00  0.00     0.176 C 
BRANCH  14  15
HETATM   15  C4  UNL     1      26.087   0.210  53.608  1.00  0.00     0.027 C 
BRANCH  15  16
HETATM   16  C3  UNL     1      27.011  -0.374  52.595  1.00  0.00     0.004 C 
BRANCH  16  17
HETATM   17  C2  UNL     1      27.187  -1.857  52.633  1.00  0.00     0.026 C 
BRANCH  17  18
HETATM   18  C1  UNL     1      28.559  -2.311  52.990  1.00  0.00     0.164 C 
BRANCH  18  19
HETATM   19  O1  UNL     1      28.595  -3.620  53.423  1.00  0.00    -0.401 OA
HETATM   20  H1  UNL     1      27.806  -4.126  53.071  1.00  0.00     0.209 HD
ENDBRANCH  18  19
ENDBRANCH  17  18
ENDBRANCH  16  17
ENDBRANCH  15  16
ENDBRANCH  14  15
ENDBRANCH  13  14
ENDBRANCH   1  13
BRANCH  12  21
HETATM   21  O3  UNL     1      22.374   1.280  50.377  1.00  0.00    -0.362 OA
HETATM   22  H24 UNL     1      22.971   0.501  50.204  1.00  0.00     0.217 HD
ENDBRANCH  12  21
BRANCH   5  23
HETATM   23  C10 UNL     1      25.507   5.108  49.337  1.00  0.00     0.034 A 
HETATM   24  C11 UNL     1      26.660   4.325  49.213  1.00  0.00     0.029 A 
HETATM   25  C12 UNL     1      27.803   4.854  48.627  1.00  0.00     0.005 A 
HETATM   26  C13 UNL     1      27.829   6.155  48.157  1.00  0.00     0.042 A 
HETATM   27  C14 UNL     1      26.684   6.906  48.290  1.00  0.00     0.118 A 
HETATM   28  F1  UNL     1      26.585   8.198  47.867  1.00  0.00    -0.206 F 
HETATM   29  C15 UNL     1      25.556   6.377  48.871  1.00  0.00     0.071 A 
ENDBRANCH   5  23
TORSDOF 9
ENDMDL
MODEL 8
REMARK VINA RESULT:      -7.4      3.917      6.758
REMARK  9 active torsions:
REMARK  status: ('A' for Active; 'I' for Inactive)
REMARK    1  A    between atoms: O1_1  and  C1_2 
REMARK    2  A    between atoms: C1_2  and  C2_3 
REMARK    3  A    between atoms: C2_3  and  C3_4 
REMARK    4  A    between atoms: C3_4  and  C4_5 
REMARK    5  A    between atoms: C4_5  and  C5_6 
REMARK    6  A    between atoms: C5_6  and  O2_7 
REMARK    7  A    between atoms: O2_7  and  C6_8 
REMARK    8  A    between atoms: N1_12  and  C10_13 
REMARK    9  A    between atoms: C20_26  and  O3_27 
ROOT
HETATM    1  C6  UNL     1      25.330   2.528  52.456  1.00  0.00     0.109 C 
HETATM    2  C7  UNL     1      25.058   2.083  51.225  1.00  0.00     0.010 C 
HETATM    3  C8  UNL     1      23.870   1.398  51.443  1.00  0.00     0.008 C 
HETATM    4  C9  UNL     1      22.919   1.618  52.528  1.00  0.00     0.153 C 
HETATM    5  N1  UNL     1      21.551   1.954  52.199  1.00  0.00    -0.359 N 
HETATM    6  C16 UNL     1      20.891   3.126  51.573  1.00  0.00     0.275 C 
HETATM    7  N2  UNL     1      21.321   4.317  52.222  1.00  0.00    -0.264 NA
HETATM    8  C17 UNL     1      21.913   5.372  51.664  1.00  0.00     0.222 C 
HETATM    9  N3  UNL     1      21.968   4.934  50.279  1.00  0.00    -0.282 NA
HETATM   10  C18 UNL     1      23.014   4.121  50.134  1.00  0.00     0.100 C 
HETATM   11  C19 UNL     1      23.439   4.256  51.554  1.00  0.00     0.137 C 
HETATM   12  C20 UNL     1      24.313   3.612  52.296  1.00  0.00     0.084 C 
ENDROOT
BRANCH   1  13
HETATM   13  O2  UNL     1      26.000   2.459  53.636  1.00  0.00    -0.348 OA
BRANCH  13  14
HETATM   14  C5  UNL     1      27.327   1.992  53.598  1.00  0.00     0.176 C 
BRANCH  14  15
HETATM   15  C4  UNL     1      27.410   0.671  54.382  1.00  0.00     0.027 C 
BRANCH  15  16
HETATM   16  C3  UNL     1      27.179  -0.501  53.492  1.00  0.00     0.004 C 
BRANCH  16  17
HETATM   17  C2  UNL     1      25.800  -1.076  53.496  1.00  0.00     0.026 C 
BRANCH  17  18
HETATM   18  C1  UNL     1      24.969  -0.695  54.670  1.00  0.00     0.164 C 
BRANCH  18  19
HETATM   19  O1  UNL     1      25.036  -1.612  55.697  1.00  0.00    -0.401 OA
HETATM   20  H1  UNL     1      25.121  -1.145  56.578  1.00  0.00     0.209 HD
ENDBRANCH  18  19
ENDBRANCH  17  18
ENDBRANCH  16  17
ENDBRANCH  15  16
ENDBRANCH  14  15
ENDBRANCH  13  14
ENDBRANCH   1  13
BRANCH  12  21
HETATM   21  O3  UNL     1      24.099   4.411  53.430  1.00  0.00    -0.362 OA
HETATM   22  H24 UNL     1      23.801   3.984  54.279  1.00  0.00     0.217 HD
ENDBRANCH  12  21
BRANCH   5  23
HETATM   23  C10 UNL     1      20.547   0.934  52.506  1.00  0.00     0.034 A 
HETATM   24  C11 UNL     1      19.340   1.078  51.813  1.00  0.00     0.029 A 
HETATM   25  C12 UNL     1      18.314   0.162  52.002  1.00  0.00     0.005 A 
HETATM   26  C13 UNL     1      18.458  -0.904  52.872  1.00  0.00     0.042 A 
HETATM   27  C14 UNL     1      19.653  -1.026  53.543  1.00  0.00     0.118 A 
HETATM   28  F1  UNL     1      19.917  -2.032  54.424  1.00  0.00    -0.206 F 
HETATM   29  C15 UNL     1      20.666  -0.116  53.351  1.00  0.00     0.071 A 
ENDBRANCH   5  23
TORSDOF 9
ENDMDL
MODEL 9
REMARK VINA RESULT:      -7.4      2.336      3.459
REMARK  9 active torsions:
REMARK  status: ('A' for Active; 'I' for Inactive)
REMARK    1  A    between atoms: O1_1  and  C1_2 
REMARK    2  A    between atoms: C1_2  and  C2_3 
REMARK    3  A    between atoms: C2_3  and  C3_4 
REMARK    4  A    between atoms: C3_4  and  C4_5 
REMARK    5  A    between atoms: C4_5  and  C5_6 
REMARK    6  A    between atoms: C5_6  and  O2_7 
REMARK    7  A    between atoms: O2_7  and  C6_8 
REMARK    8  A    between atoms: N1_12  and  C10_13 
REMARK    9  A    between atoms: C20_26  and  O3_27 
ROOT
HETATM    1  C6  UNL     1      21.786   3.727  50.545  1.00  0.00     0.109 C 
HETATM    2  C7  UNL     1      21.952   2.658  49.759  1.00  0.00     0.010 C 
HETATM    3  C8  UNL     1      23.064   2.066  50.343  1.00  0.00     0.008 C 
HETATM    4  C9  UNL     1      23.518   2.223  51.720  1.00  0.00     0.153 C 
HETATM    5  N1  UNL     1      23.646   1.046  52.552  1.00  0.00    -0.359 N 
HETATM    6  C16 UNL     1      22.687   0.073  53.128  1.00  0.00     0.275 C 
HETATM    7  N2  UNL     1      21.643   0.772  53.796  1.00  0.00    -0.264 NA
HETATM    8  C17 UNL     1      20.335   0.692  53.558  1.00  0.00     0.222 C 
HETATM    9  N3  UNL     1      20.330  -0.273  52.471  1.00  0.00    -0.282 NA
HETATM   10  C18 UNL     1      20.619   0.365  51.337  1.00  0.00     0.100 C 
HETATM   11  C19 UNL     1      20.721   1.695  51.998  1.00  0.00     0.137 C 
HETATM   12  C20 UNL     1      21.164   2.866  51.597  1.00  0.00     0.084 C 
ENDROOT
BRANCH   1  13
HETATM   13  O2  UNL     1      21.912   5.054  50.806  1.00  0.00    -0.348 OA
BRANCH  13  14
HETATM   14  C5  UNL     1      22.486   5.858  49.804  1.00  0.00     0.176 C 
BRANCH  14  15
HETATM   15  C4  UNL     1      24.006   5.924  50.032  1.00  0.00     0.027 C 
BRANCH  15  16
HETATM   16  C3  UNL     1      24.744   5.168  48.981  1.00  0.00     0.004 C 
BRANCH  16  17
HETATM   17  C2  UNL     1      26.177   4.858  49.267  1.00  0.00     0.026 C 
BRANCH  17  18
HETATM   18  C1  UNL     1      26.433   3.468  49.731  1.00  0.00     0.164 C 
BRANCH  18  19
HETATM   19  O1  UNL     1      27.121   3.418  50.925  1.00  0.00    -0.401 OA
HETATM   20  H1  UNL     1      27.687   2.593  50.968  1.00  0.00     0.209 HD
ENDBRANCH  18  19
ENDBRANCH  17  18
ENDBRANCH  16  17
ENDBRANCH  15  16
ENDBRANCH  14  15
ENDBRANCH  13  14
ENDBRANCH   1  13
BRANCH  12  21
HETATM   21  O3  UNL     1      20.841   3.519  52.796  1.00  0.00    -0.362 OA
HETATM   22  H24 UNL     1      20.142   3.130  53.390  1.00  0.00     0.217 HD
ENDBRANCH  12  21
BRANCH   5  23
HETATM   23  C10 UNL     1      25.011   0.663  52.917  1.00  0.00     0.034 A 
HETATM   24  C11 UNL     1      25.736   1.660  53.579  1.00  0.00     0.029 A 
HETATM   25  C12 UNL     1      27.038   1.414  53.996  1.00  0.00     0.005 A 
HETATM   26  C13 UNL     1      27.642   0.190  53.770  1.00  0.00     0.042 A 
HETATM   27  C14 UNL     1      26.910  -0.775  53.117  1.00  0.00     0.118 A 
HETATM   28  F1  UNL     1      27.394  -2.018  52.836  1.00  0.00    -0.206 F 
HETATM   29  C15 UNL     1      25.622  -0.525  52.707  1.00  0.00     0.071 A 
ENDBRANCH   5  23
TORSDOF 9
ENDMDL
