MODEL 1
REMARK VINA RESULT:      -7.0      0.000      0.000
REMARK  7 active torsions:
REMARK  status: ('A' for Active; 'I' for Inactive)
REMARK    1  A    between atoms: C7_7  and  C8_8 
REMARK    2  A    between atoms: C8_8  and  O1_9 
REMARK    3  A    between atoms: O1_9  and  C9_10 
REMARK    4  A    between atoms: C12_13  and  C13_14 
REMARK    5  A    between atoms: C13_14  and  C14_16 
REMARK    6  A    between atoms: C14_16  and  C15_17 
REMARK    7  A    between atoms: C15_17  and  N1_18 
ROOT
HETATM    1  C9  UNL     1      23.596   3.702  51.336  1.00  0.00     0.068 A 
HETATM    2  C10 UNL     1      24.273   3.527  52.524  1.00  0.00     0.037 A 
HETATM    3  C11 UNL     1      24.275   2.265  53.133  1.00  0.00     0.018 A 
HETATM    4  C12 UNL     1      23.589   1.248  52.501  1.00  0.00     0.010 A 
HETATM    5  C18 UNL     1      22.907   1.406  51.311  1.00  0.00     0.018 A 
HETATM    6  C19 UNL     1      22.918   2.659  50.728  1.00  0.00     0.037 A 
ENDROOT
BRANCH   1   7
HETATM    7  O1  UNL     1      23.662   4.975  50.833  1.00  0.00    -0.350 OA
BRANCH   7   8
HETATM    8  C8  UNL     1      24.808   5.689  50.478  1.00  0.00     0.188 C 
BRANCH   8   9
HETATM    9  C7  UNL     1      25.212   5.297  49.065  1.00  0.00     0.060 C 
HETATM   10  C2  UNL     1      26.588   4.777  49.013  1.00  0.00    -0.077 C 
HETATM   11  C1  UNL     1      26.538   3.352  49.495  1.00  0.00     0.044 C 
HETATM   12  C3  UNL     1      27.729   5.335  48.638  1.00  0.00    -0.020 C 
HETATM   13  C4  UNL     1      27.722   6.767  48.162  1.00  0.00     0.054 C 
HETATM   14  C5  UNL     1      26.324   7.196  47.902  1.00  0.00    -0.026 C 
HETATM   15  C6  UNL     1      25.197   6.582  48.279  1.00  0.00    -0.019 C 
ENDBRANCH   8   9
ENDBRANCH   7   8
ENDBRANCH   1   7
BRANCH   4  16
HETATM   16  C13 UNL     1      23.622  -0.031  53.174  1.00  0.00     0.161 C 
HETATM   17  O2  UNL     1      22.646  -0.823  53.077  1.00  0.00    -0.292 OA
BRANCH  16  18
HETATM   18  C14 UNL     1      24.673  -0.631  54.022  1.00  0.00     0.114 C 
BRANCH  18  19
HETATM   19  C15 UNL     1      25.864  -1.049  53.196  1.00  0.00     0.279 C 
BRANCH  19  20
HETATM   20  N1  UNL     1      27.031  -0.289  53.543  1.00  0.00     0.080 N 
HETATM   21  C16 UNL     1      28.279  -0.912  53.233  1.00  0.00     0.309 C 
HETATM   22  C17 UNL     1      26.986   0.315  54.838  1.00  0.00     0.309 C 
ENDBRANCH  19  20
ENDBRANCH  18  19
ENDBRANCH  16  18
ENDBRANCH   4  16
TORSDOF 7
ENDMDL
MODEL 2
REMARK VINA RESULT:      -6.9      3.950      6.616
REMARK  7 active torsions:
REMARK  status: ('A' for Active; 'I' for Inactive)
REMARK    1  A    between atoms: C7_7  and  C8_8 
REMARK    2  A    between atoms: C8_8  and  O1_9 
REMARK    3  A    between atoms: O1_9  and  C9_10 
REMARK    4  A    between atoms: C12_13  and  C13_14 
REMARK    5  A    between atoms: C13_14  and  C14_16 
REMARK    6  A    between atoms: C14_16  and  C15_17 
REMARK    7  A    between atoms: C15_17  and  N1_18 
ROOT
HETATM    1  C9  UNL     1      24.375   0.934  53.192  1.00  0.00     0.068 A 
HETATM    2  C10 UNL     1      24.309   1.764  52.093  1.00  0.00     0.037 A 
HETATM    3  C11 UNL     1      23.216   1.666  51.224  1.00  0.00     0.018 A 
HETATM    4  C12 UNL     1      22.246   0.730  51.517  1.00  0.00     0.010 A 
HETATM    5  C18 UNL     1      22.296  -0.110  52.612  1.00  0.00     0.018 A 
HETATM    6  C19 UNL     1      23.384   0.003  53.456  1.00  0.00     0.037 A 
ENDROOT
BRANCH   1   7
HETATM    7  O1  UNL     1      25.487   1.117  53.970  1.00  0.00    -0.350 OA
BRANCH   7   8
HETATM    8  C8  UNL     1      26.478   0.180  54.270  1.00  0.00     0.188 C 
BRANCH   8   9
HETATM    9  C7  UNL     1      27.378   0.013  53.055  1.00  0.00     0.060 C 
HETATM   10  C2  UNL     1      27.875  -1.367  52.927  1.00  0.00    -0.077 C 
HETATM   11  C1  UNL     1      26.759  -2.181  52.329  1.00  0.00     0.044 C 
HETATM   12  C3  UNL     1      29.041  -1.918  53.232  1.00  0.00    -0.020 C 
HETATM   13  C4  UNL     1      30.124  -1.054  53.829  1.00  0.00     0.054 C 
HETATM   14  C5  UNL     1      29.764   0.378  53.665  1.00  0.00    -0.026 C 
HETATM   15  C6  UNL     1      28.574   0.888  53.328  1.00  0.00    -0.019 C 
ENDBRANCH   8   9
ENDBRANCH   7   8
ENDBRANCH   1   7
BRANCH   4  16
HETATM   16  C13 UNL     1      21.143   0.670  50.585  1.00  0.00     0.161 C 
HETATM   17  O2  UNL     1      19.985   0.378  50.992  1.00  0.00    -0.292 OA
BRANCH  16  18
HETATM   18  C14 UNL     1      21.117   0.909  49.127  1.00  0.00     0.114 C 
BRANCH  18  19
HETATM   19  C15 UNL     1      20.349   2.163  48.796  1.00  0.00     0.279 C 
BRANCH  19  20
HETATM   20  N1  UNL     1      21.154   3.086  48.047  1.00  0.00     0.080 N 
HETATM   21  C16 UNL     1      22.361   2.544  47.507  1.00  0.00     0.309 C 
HETATM   22  C17 UNL     1      21.313   4.370  48.658  1.00  0.00     0.309 C 
ENDBRANCH  19  20
ENDBRANCH  18  19
ENDBRANCH  16  18
ENDBRANCH   4  16
TORSDOF 7
ENDMDL
MODEL 3
REMARK VINA RESULT:      -6.7      2.966      7.566
REMARK  7 active torsions:
REMARK  status: ('A' for Active; 'I' for Inactive)
REMARK    1  A    between atoms: C7_7  and  C8_8 
REMARK    2  A    between atoms: C8_8  and  O1_9 
REMARK    3  A    between atoms: O1_9  and  C9_10 
REMARK    4  A    between atoms: C12_13  and  C13_14 
REMARK    5  A    between atoms: C13_14  and  C14_16 
REMARK    6  A    between atoms: C14_16  and  C15_17 
REMARK    7  A    between atoms: C15_17  and  N1_18 
ROOT
HETATM    1  C9  UNL     1      24.459   3.947  49.712  1.00  0.00     0.068 A 
HETATM    2  C10 UNL     1      25.637   3.236  49.803  1.00  0.00     0.037 A 
HETATM    3  C11 UNL     1      26.829   3.823  49.358  1.00  0.00     0.018 A 
HETATM    4  C12 UNL     1      26.760   5.101  48.844  1.00  0.00     0.010 A 
HETATM    5  C18 UNL     1      25.590   5.827  48.745  1.00  0.00     0.018 A 
HETATM    6  C19 UNL     1      24.426   5.229  49.190  1.00  0.00     0.037 A 
ENDROOT
BRANCH   1   7
HETATM    7  O1  UNL     1      23.360   3.275  50.176  1.00  0.00    -0.350 OA
BRANCH   7   8
HETATM    8  C8  UNL     1      23.296   1.950  50.612  1.00  0.00     0.188 C 
BRANCH   8   9
HETATM    9  C7  UNL     1      22.854   1.934  52.068  1.00  0.00     0.060 C 
HETATM   10  C2  UNL     1      23.816   1.220  52.924  1.00  0.00    -0.077 C 
HETATM   11  C1  UNL     1      24.959   2.165  53.183  1.00  0.00     0.044 C 
HETATM   12  C3  UNL     1      23.805  -0.002  53.436  1.00  0.00    -0.020 C 
HETATM   13  C4  UNL     1      22.633  -0.907  53.144  1.00  0.00     0.054 C 
HETATM   14  C5  UNL     1      21.522  -0.110  52.566  1.00  0.00    -0.026 C 
HETATM   15  C6  UNL     1      21.576   1.137  52.083  1.00  0.00    -0.019 C 
ENDBRANCH   8   9
ENDBRANCH   7   8
ENDBRANCH   1   7
BRANCH   4  16
HETATM   16  C13 UNL     1      28.018   5.656  48.397  1.00  0.00     0.161 C 
HETATM   17  O2  UNL     1      29.038   4.920  48.303  1.00  0.00    -0.292 OA
BRANCH  16  18
HETATM   18  C14 UNL     1      28.357   7.037  47.995  1.00  0.00     0.114 C 
BRANCH  18  19
HETATM   19  C15 UNL     1      29.800   7.140  47.569  1.00  0.00     0.279 C 
BRANCH  19  20
HETATM   20  N1  UNL     1      30.545   7.991  48.452  1.00  0.00     0.080 N 
HETATM   21  C16 UNL     1      31.495   7.324  49.285  1.00  0.00     0.309 C 
HETATM   22  C17 UNL     1      29.761   8.976  49.133  1.00  0.00     0.309 C 
ENDBRANCH  19  20
ENDBRANCH  18  19
ENDBRANCH  16  18
ENDBRANCH   4  16
TORSDOF 7
ENDMDL
MODEL 4
REMARK VINA RESULT:      -6.6      4.745      7.161
REMARK  7 active torsions:
REMARK  status: ('A' for Active; 'I' for Inactive)
REMARK    1  A    between atoms: C7_7  and  C8_8 
REMARK    2  A    between atoms: C8_8  and  O1_9 
REMARK    3  A    between atoms: O1_9  and  C9_10 
REMARK    4  A    between atoms: C12_13  and  C13_14 
REMARK    5  A    between atoms: C13_14  and  C14_16 
REMARK    6  A    between atoms: C14_16  and  C15_17 
REMARK    7  A    between atoms: C15_17  and  N1_18 
ROOT
HETATM    1  C9  UNL     1      23.663  -0.024  53.400  1.00  0.00     0.068 A 
HETATM    2  C10 UNL     1      23.106   0.764  52.415  1.00  0.00     0.037 A 
HETATM    3  C11 UNL     1      21.725   0.704  52.189  1.00  0.00     0.018 A 
HETATM    4  C12 UNL     1      20.983  -0.153  52.975  1.00  0.00     0.010 A 
HETATM    5  C18 UNL     1      21.525  -0.949  53.964  1.00  0.00     0.018 A 
HETATM    6  C19 UNL     1      22.889  -0.875  54.171  1.00  0.00     0.037 A 
ENDROOT
BRANCH   1   7
HETATM    7  O1  UNL     1      25.020   0.116  53.532  1.00  0.00    -0.350 OA
BRANCH   7   8
HETATM    8  C8  UNL     1      25.977  -0.899  53.592  1.00  0.00     0.188 C 
BRANCH   8   9
HETATM    9  C7  UNL     1      27.121  -0.550  52.653  1.00  0.00     0.060 C 
HETATM   10  C2  UNL     1      28.430  -0.882  53.238  1.00  0.00    -0.077 C 
HETATM   11  C1  UNL     1      28.623  -2.365  53.072  1.00  0.00     0.044 C 
HETATM   12  C3  UNL     1      29.353  -0.130  53.822  1.00  0.00    -0.020 C 
HETATM   13  C4  UNL     1      29.109   1.352  53.962  1.00  0.00     0.054 C 
HETATM   14  C5  UNL     1      27.964   1.750  53.103  1.00  0.00    -0.026 C 
HETATM   15  C6  UNL     1      27.070   0.949  52.510  1.00  0.00    -0.019 C 
ENDBRANCH   8   9
ENDBRANCH   7   8
ENDBRANCH   1   7
BRANCH   4  16
HETATM   16  C13 UNL     1      19.565  -0.177  52.696  1.00  0.00     0.161 C 
HETATM   17  O2  UNL     1      19.049   0.710  51.963  1.00  0.00    -0.292 OA
BRANCH  16  18
HETATM   18  C14 UNL     1      18.525  -1.125  53.146  1.00  0.00     0.114 C 
BRANCH  18  19
HETATM   19  C15 UNL     1      17.144  -0.599  52.847  1.00  0.00     0.279 C 
BRANCH  19  20
HETATM   20  N1  UNL     1      16.475  -1.413  51.873  1.00  0.00     0.080 N 
HETATM   21  C16 UNL     1      15.906  -0.704  50.771  1.00  0.00     0.309 C 
HETATM   22  C17 UNL     1      15.620  -2.419  52.423  1.00  0.00     0.309 C 
ENDBRANCH  19  20
ENDBRANCH  18  19
ENDBRANCH  16  18
ENDBRANCH   4  16
TORSDOF 7
ENDMDL
MODEL 5
REMARK VINA RESULT:      -6.6      4.566      6.816
REMARK  7 active torsions:
REMARK  status: ('A' for Active; 'I' for Inactive)
REMARK    1  A    between atoms: C7_7  and  C8_8 
REMARK    2  A    between atoms: C8_8  and  O1_9 
REMARK    3  A    between atoms: O1_9  and  C9_10 
REMARK    4  A    between atoms: C12_13  and  C13_14 
REMARK    5  A    between atoms: C13_14  and  C14_16 
REMARK    6  A    between atoms: C14_16  and  C15_17 
REMARK    7  A    between atoms: C15_17  and  N1_18 
ROOT
HETATM    1  C9  UNL     1      23.300   0.422  53.075  1.00  0.00     0.068 A 
HETATM    2  C10 UNL     1      22.545  -0.279  53.992  1.00  0.00     0.037 A 
HETATM    3  C11 UNL     1      21.186  -0.500  53.737  1.00  0.00     0.018 A 
HETATM    4  C12 UNL     1      20.665   0.002  52.562  1.00  0.00     0.010 A 
HETATM    5  C18 UNL     1      21.405   0.706  51.634  1.00  0.00     0.018 A 
HETATM    6  C19 UNL     1      22.744   0.913  51.905  1.00  0.00     0.037 A 
ENDROOT
BRANCH   1   7
HETATM    7  O1  UNL     1      24.614   0.578  53.429  1.00  0.00    -0.350 OA
BRANCH   7   8
HETATM    8  C8  UNL     1      25.559  -0.426  53.650  1.00  0.00     0.188 C 
BRANCH   8   9
HETATM    9  C7  UNL     1      26.660  -0.300  52.609  1.00  0.00     0.060 C 
HETATM   10  C2  UNL     1      27.858  -1.068  52.983  1.00  0.00    -0.077 C 
HETATM   11  C1  UNL     1      27.579  -2.509  52.649  1.00  0.00     0.044 C 
HETATM   12  C3  UNL     1      29.016  -0.698  53.512  1.00  0.00    -0.020 C 
HETATM   13  C4  UNL     1      29.243   0.760  53.827  1.00  0.00     0.054 C 
HETATM   14  C5  UNL     1      28.195   1.580  53.167  1.00  0.00    -0.026 C 
HETATM   15  C6  UNL     1      27.049   1.155  52.621  1.00  0.00    -0.019 C 
ENDBRANCH   8   9
ENDBRANCH   7   8
ENDBRANCH   1   7
BRANCH   4  16
HETATM   16  C13 UNL     1      19.258  -0.253  52.351  1.00  0.00     0.161 C 
HETATM   17  O2  UNL     1      18.583  -0.852  53.232  1.00  0.00    -0.292 OA
BRANCH  16  18
HETATM   18  C14 UNL     1      18.393   0.089  51.203  1.00  0.00     0.114 C 
BRANCH  18  19
HETATM   19  C15 UNL     1      17.713   1.418  51.411  1.00  0.00     0.279 C 
BRANCH  19  20
HETATM   20  N1  UNL     1      18.369   2.461  50.675  1.00  0.00     0.080 N 
HETATM   21  C16 UNL     1      18.470   3.715  51.351  1.00  0.00     0.309 C 
HETATM   22  C17 UNL     1      17.970   2.566  49.305  1.00  0.00     0.309 C 
ENDBRANCH  19  20
ENDBRANCH  18  19
ENDBRANCH  16  18
ENDBRANCH   4  16
TORSDOF 7
ENDMDL
MODEL 6
REMARK VINA RESULT:      -6.5      3.009      7.696
REMARK  7 active torsions:
REMARK  status: ('A' for Active; 'I' for Inactive)
REMARK    1  A    between atoms: C7_7  and  C8_8 
REMARK    2  A    between atoms: C8_8  and  O1_9 
REMARK    3  A    between atoms: O1_9  and  C9_10 
REMARK    4  A    between atoms: C12_13  and  C13_14 
REMARK    5  A    between atoms: C13_14  and  C14_16 
REMARK    6  A    between atoms: C14_16  and  C15_17 
REMARK    7  A    between atoms: C15_17  and  N1_18 
ROOT
HETATM    1  C9  UNL     1      24.592   4.070  49.586  1.00  0.00     0.068 A 
HETATM    2  C10 UNL     1      24.616   5.360  49.099  1.00  0.00     0.037 A 
HETATM    3  C11 UNL     1      25.834   5.917  48.691  1.00  0.00     0.018 A 
HETATM    4  C12 UNL     1      26.965   5.134  48.800  1.00  0.00     0.010 A 
HETATM    5  C18 UNL     1      26.959   3.842  49.286  1.00  0.00     0.018 A 
HETATM    6  C19 UNL     1      25.747   3.312  49.682  1.00  0.00     0.037 A 
ENDROOT
BRANCH   1   7
HETATM    7  O1  UNL     1      23.348   3.631  49.954  1.00  0.00    -0.350 OA
BRANCH   7   8
HETATM    8  C8  UNL     1      22.981   3.038  51.164  1.00  0.00     0.188 C 
BRANCH   8   9
HETATM    9  C7  UNL     1      23.132   1.530  51.036  1.00  0.00     0.060 C 
HETATM   10  C2  UNL     1      21.843   0.835  51.184  1.00  0.00    -0.077 C 
HETATM   11  C1  UNL     1      21.119   0.968  49.872  1.00  0.00     0.044 C 
HETATM   12  C3  UNL     1      21.303   0.183  52.204  1.00  0.00    -0.020 C 
HETATM   13  C4  UNL     1      22.074   0.080  53.497  1.00  0.00     0.054 C 
HETATM   14  C5  UNL     1      23.485   0.483  53.268  1.00  0.00    -0.026 C 
HETATM   15  C6  UNL     1      23.990   1.119  52.204  1.00  0.00    -0.019 C 
ENDBRANCH   8   9
ENDBRANCH   7   8
ENDBRANCH   1   7
BRANCH   4  16
HETATM   16  C13 UNL     1      28.194   5.760  48.368  1.00  0.00     0.161 C 
HETATM   17  O2  UNL     1      29.276   5.112  48.386  1.00  0.00    -0.292 OA
BRANCH  16  18
HETATM   18  C14 UNL     1      28.438   7.129  47.866  1.00  0.00     0.114 C 
BRANCH  18  19
HETATM   19  C15 UNL     1      29.906   7.469  47.907  1.00  0.00     0.279 C 
BRANCH  19  20
HETATM   20  N1  UNL     1      30.249   8.149  49.124  1.00  0.00     0.080 N 
HETATM   21  C16 UNL     1      29.765   9.489  49.232  1.00  0.00     0.309 C 
HETATM   22  C17 UNL     1      31.610   7.984  49.534  1.00  0.00     0.309 C 
ENDBRANCH  19  20
ENDBRANCH  18  19
ENDBRANCH  16  18
ENDBRANCH   4  16
TORSDOF 7
ENDMDL
MODEL 7
REMARK VINA RESULT:      -6.5      2.965      7.772
REMARK  7 active torsions:
REMARK  status: ('A' for Active; 'I' for Inactive)
REMARK    1  A    between atoms: C7_7  and  C8_8 
REMARK    2  A    between atoms: C8_8  and  O1_9 
REMARK    3  A    between atoms: O1_9  and  C9_10 
REMARK    4  A    between atoms: C12_13  and  C13_14 
REMARK    5  A    between atoms: C13_14  and  C14_16 
REMARK    6  A    between atoms: C14_16  and  C15_17 
REMARK    7  A    between atoms: C15_17  and  N1_18 
ROOT
HETATM    1  C9  UNL     1      23.993   3.138  50.423  1.00  0.00     0.068 A 
HETATM    2  C10 UNL     1      25.281   2.756  50.733  1.00  0.00     0.037 A 
HETATM    3  C11 UNL     1      26.358   3.455  50.173  1.00  0.00     0.018 A 
HETATM    4  C12 UNL     1      26.069   4.505  49.326  1.00  0.00     0.010 A 
HETATM    5  C18 UNL     1      24.786   4.900  49.005  1.00  0.00     0.018 A 
HETATM    6  C19 UNL     1      23.739   4.198  49.568  1.00  0.00     0.037 A 
ENDROOT
BRANCH   1   7
HETATM    7  O1  UNL     1      23.022   2.385  51.028  1.00  0.00    -0.350 OA
BRANCH   7   8
HETATM    8  C8  UNL     1      23.044   1.846  52.316  1.00  0.00     0.188 C 
BRANCH   8   9
HETATM    9  C7  UNL     1      22.774   0.352  52.227  1.00  0.00     0.060 C 
HETATM   10  C2  UNL     1      21.423   0.010  52.702  1.00  0.00    -0.077 C 
HETATM   11  C1  UNL     1      20.467   0.345  51.589  1.00  0.00     0.044 C 
HETATM   12  C3  UNL     1      20.993  -0.496  53.849  1.00  0.00    -0.020 C 
HETATM   13  C4  UNL     1      21.995  -0.814  54.931  1.00  0.00     0.054 C 
HETATM   14  C5  UNL     1      23.366  -0.784  54.361  1.00  0.00    -0.026 C 
HETATM   15  C6  UNL     1      23.751  -0.283  53.181  1.00  0.00    -0.019 C 
ENDBRANCH   8   9
ENDBRANCH   7   8
ENDBRANCH   1   7
BRANCH   4  16
HETATM   16  C13 UNL     1      27.217   5.188  48.774  1.00  0.00     0.161 C 
HETATM   17  O2  UNL     1      28.285   4.555  48.552  1.00  0.00    -0.292 OA
BRANCH  16  18
HETATM   18  C14 UNL     1      27.384   6.605  48.389  1.00  0.00     0.114 C 
BRANCH  18  19
HETATM   19  C15 UNL     1      28.752   6.851  47.804  1.00  0.00     0.279 C 
BRANCH  19  20
HETATM   20  N1  UNL     1      29.337   8.051  48.333  1.00  0.00     0.080 N 
HETATM   21  C16 UNL     1      30.634   7.894  48.911  1.00  0.00     0.309 C 
HETATM   22  C17 UNL     1      28.445   8.857  49.108  1.00  0.00     0.309 C 
ENDBRANCH  19  20
ENDBRANCH  18  19
ENDBRANCH  16  18
ENDBRANCH   4  16
TORSDOF 7
ENDMDL
MODEL 8
REMARK VINA RESULT:      -6.4      3.029      7.732
REMARK  7 active torsions:
REMARK  status: ('A' for Active; 'I' for Inactive)
REMARK    1  A    between atoms: C7_7  and  C8_8 
REMARK    2  A    between atoms: C8_8  and  O1_9 
REMARK    3  A    between atoms: O1_9  and  C9_10 
REMARK    4  A    between atoms: C12_13  and  C13_14 
REMARK    5  A    between atoms: C13_14  and  C14_16 
REMARK    6  A    between atoms: C14_16  and  C15_17 
REMARK    7  A    between atoms: C15_17  and  N1_18 
ROOT
HETATM    1  C9  UNL     1      25.592   4.397  50.040  1.00  0.00     0.068 A 
HETATM    2  C10 UNL     1      25.234   5.719  49.881  1.00  0.00     0.037 A 
HETATM    3  C11 UNL     1      26.056   6.567  49.128  1.00  0.00     0.018 A 
HETATM    4  C12 UNL     1      27.199   6.026  48.576  1.00  0.00     0.010 A 
HETATM    5  C18 UNL     1      27.573   4.706  48.726  1.00  0.00     0.018 A 
HETATM    6  C19 UNL     1      26.748   3.887  49.473  1.00  0.00     0.037 A 
ENDROOT
BRANCH   1   7
HETATM    7  O1  UNL     1      24.715   3.663  50.795  1.00  0.00    -0.350 OA
BRANCH   7   8
HETATM    8  C8  UNL     1      24.861   2.341  51.220  1.00  0.00     0.188 C 
BRANCH   8   9
HETATM    9  C7  UNL     1      24.485   2.255  52.691  1.00  0.00     0.060 C 
HETATM   10  C2  UNL     1      25.238   1.199  53.388  1.00  0.00    -0.077 C 
HETATM   11  C1  UNL     1      26.609   1.752  53.673  1.00  0.00     0.044 C 
HETATM   12  C3  UNL     1      24.904  -0.029  53.754  1.00  0.00    -0.020 C 
HETATM   13  C4  UNL     1      23.516  -0.533  53.444  1.00  0.00     0.054 C 
HETATM   14  C5  UNL     1      22.652   0.607  53.043  1.00  0.00    -0.026 C 
HETATM   15  C6  UNL     1      23.036   1.844  52.705  1.00  0.00    -0.019 C 
ENDBRANCH   8   9
ENDBRANCH   7   8
ENDBRANCH   1   7
BRANCH   4  16
HETATM   16  C13 UNL     1      28.011   6.946  47.812  1.00  0.00     0.161 C 
HETATM   17  O2  UNL     1      27.471   7.896  47.182  1.00  0.00    -0.292 OA
BRANCH  16  18
HETATM   18  C14 UNL     1      29.476   6.984  47.619  1.00  0.00     0.114 C 
BRANCH  18  19
HETATM   19  C15 UNL     1      30.137   7.867  48.647  1.00  0.00     0.279 C 
BRANCH  19  20
HETATM   20  N1  UNL     1      31.329   7.260  49.166  1.00  0.00     0.080 N 
HETATM   21  C16 UNL     1      32.537   7.986  48.928  1.00  0.00     0.309 C 
HETATM   22  C17 UNL     1      31.436   5.854  48.925  1.00  0.00     0.309 C 
ENDBRANCH  19  20
ENDBRANCH  18  19
ENDBRANCH  16  18
ENDBRANCH   4  16
TORSDOF 7
ENDMDL
MODEL 9
REMARK VINA RESULT:      -6.4      4.223      6.855
REMARK  7 active torsions:
REMARK  status: ('A' for Active; 'I' for Inactive)
REMARK    1  A    between atoms: C7_7  and  C8_8 
REMARK    2  A    between atoms: C8_8  and  O1_9 
REMARK    3  A    between atoms: O1_9  and  C9_10 
REMARK    4  A    between atoms: C12_13  and  C13_14 
REMARK    5  A    between atoms: C13_14  and  C14_16 
REMARK    6  A    between atoms: C14_16  and  C15_17 
REMARK    7  A    between atoms: C15_17  and  N1_18 
ROOT
HETATM    1  C9  UNL     1      23.607   0.010  53.653  1.00  0.00     0.068 A 
HETATM    2  C10 UNL     1      23.110   0.841  52.672  1.00  0.00     0.037 A 
HETATM    3  C11 UNL     1      21.742   0.808  52.373  1.00  0.00     0.018 A 
HETATM    4  C12 UNL     1      20.951  -0.068  53.087  1.00  0.00     0.010 A 
HETATM    5  C18 UNL     1      21.432  -0.907  54.072  1.00  0.00     0.018 A 
HETATM    6  C19 UNL     1      22.784  -0.859  54.351  1.00  0.00     0.037 A 
ENDROOT
BRANCH   1   7
HETATM    7  O1  UNL     1      24.956   0.127  53.860  1.00  0.00    -0.350 OA
BRANCH   7   8
HETATM    8  C8  UNL     1      25.898  -0.902  53.928  1.00  0.00     0.188 C 
BRANCH   8   9
HETATM    9  C7  UNL     1      27.139  -0.482  53.156  1.00  0.00     0.060 C 
HETATM   10  C2  UNL     1      27.792   0.689  53.763  1.00  0.00    -0.077 C 
HETATM   11  C1  UNL     1      28.581   0.189  54.944  1.00  0.00     0.044 C 
HETATM   12  C3  UNL     1      27.778   1.974  53.442  1.00  0.00    -0.020 C 
HETATM   13  C4  UNL     1      26.970   2.421  52.248  1.00  0.00     0.054 C 
HETATM   14  C5  UNL     1      26.577   1.236  51.443  1.00  0.00    -0.026 C 
HETATM   15  C6  UNL     1      26.635  -0.052  51.803  1.00  0.00    -0.019 C 
ENDBRANCH   8   9
ENDBRANCH   7   8
ENDBRANCH   1   7
BRANCH   4  16
HETATM   16  C13 UNL     1      19.549  -0.063  52.735  1.00  0.00     0.161 C 
HETATM   17  O2  UNL     1      18.779  -0.953  53.188  1.00  0.00    -0.292 OA
BRANCH  16  18
HETATM   18  C14 UNL     1      18.789   0.869  51.876  1.00  0.00     0.114 C 
BRANCH  18  19
HETATM   19  C15 UNL     1      18.305   0.181  50.625  1.00  0.00     0.279 C 
BRANCH  19  20
HETATM   20  N1  UNL     1      16.871   0.140  50.574  1.00  0.00     0.080 N 
HETATM   21  C16 UNL     1      16.320  -0.561  49.458  1.00  0.00     0.309 C 
HETATM   22  C17 UNL     1      16.228   1.386  50.856  1.00  0.00     0.309 C 
ENDBRANCH  19  20
ENDBRANCH  18  19
ENDBRANCH  16  18
ENDBRANCH   4  16
TORSDOF 7
ENDMDL
