MODEL 1
REMARK VINA RESULT:      -7.4      0.000      0.000
REMARK  5 active torsions:
REMARK  status: ('A' for Active; 'I' for Inactive)
REMARK    1  A    between atoms: C5_7  and  N2_8 
REMARK    2  A    between atoms: N2_8  and  C6_9 
REMARK    3  A    between atoms: N3_12  and  C9_13 
REMARK    4  A    between atoms: C9_13  and  C10_14 
REMARK    5  A    between atoms: C9_13  and  C11_16 
ROOT
HETATM    1  C6  UNL     1      24.861   2.687  52.636  1.00  0.00     0.081 C 
HETATM    2  C7  UNL     1      25.124   2.490  51.153  1.00  0.00     0.055 C 
HETATM    3  C8  UNL     1      23.928   2.936  50.313  1.00  0.00     0.275 C 
HETATM    4  N3  UNL     1      22.660   2.612  50.918  1.00  0.00     0.100 N 
HETATM    5  C17 UNL     1      22.507   3.091  52.248  1.00  0.00     0.275 C 
HETATM    6  C18 UNL     1      23.814   3.719  52.790  1.00  0.00     0.055 C 
ENDROOT
BRANCH   1   7
HETATM    7  N2  UNL     1      25.992   2.731  53.443  1.00  0.00    -0.398 N 
HETATM    8  H8  UNL     1      26.662   3.496  53.359  1.00  0.00     0.155 HD
BRANCH   7   9
HETATM    9  C5  UNL     1      26.440   1.553  54.135  1.00  0.00     0.184 A 
HETATM   10  C2  UNL     1      27.790   1.221  53.630  1.00  0.00    -0.047 A 
HETATM   11  C1  UNL     1      28.654   2.449  53.708  1.00  0.00     0.047 C 
HETATM   12  C3  UNL     1      28.554   0.257  53.158  1.00  0.00     0.008 A 
HETATM   13  C4  UNL     1      27.864  -1.012  53.016  1.00  0.00     0.029 A 
HETATM   14  P1  UNL     1      26.292  -0.988  53.459  1.00  0.00     0.029 P 
HETATM   15  N1  UNL     1      25.548   0.479  54.043  1.00  0.00    -0.267 NA
HETATM   16  H6  UNL     1      24.753   0.756  53.393  1.00  0.00     0.129 HD
ENDBRANCH   7   9
ENDBRANCH   1   7
BRANCH   4  17
HETATM   17  C9  UNL     1      22.371   1.258  50.660  1.00  0.00     0.289 C 
BRANCH  17  18
HETATM   18  C10 UNL     1      21.485   1.232  49.435  1.00  0.00     0.431 C 
HETATM   19  O1  UNL     1      20.874   1.449  48.404  1.00  0.00    -0.428 OA
ENDBRANCH  17  18
BRANCH  17  20
HETATM   20  C11 UNL     1      21.602   0.546  51.695  1.00  0.00    -0.022 A 
HETATM   21  C12 UNL     1      20.233   0.533  51.877  1.00  0.00     0.009 A 
HETATM   22  C13 UNL     1      19.649  -0.187  52.899  1.00  0.00     0.001 A 
HETATM   23  C14 UNL     1      20.450  -0.915  53.766  1.00  0.00     0.000 A 
HETATM   24  C15 UNL     1      21.823  -0.926  53.617  1.00  0.00     0.001 A 
HETATM   25  C16 UNL     1      22.363  -0.189  52.575  1.00  0.00     0.009 A 
ENDBRANCH  17  20
ENDBRANCH   4  17
TORSDOF 5
ENDMDL
MODEL 2
REMARK VINA RESULT:      -7.0      3.838      4.920
REMARK  5 active torsions:
REMARK  status: ('A' for Active; 'I' for Inactive)
REMARK    1  A    between atoms: C5_7  and  N2_8 
REMARK    2  A    between atoms: N2_8  and  C6_9 
REMARK    3  A    between atoms: N3_12  and  C9_13 
REMARK    4  A    between atoms: C9_13  and  C10_14 
REMARK    5  A    between atoms: C9_13  and  C11_16 
ROOT
HETATM    1  C6  UNL     1      24.594   4.758  50.714  1.00  0.00     0.081 C 
HETATM    2  C7  UNL     1      23.804   4.169  49.558  1.00  0.00     0.055 C 
HETATM    3  C8  UNL     1      22.381   3.810  49.984  1.00  0.00     0.275 C 
HETATM    4  N3  UNL     1      22.310   3.267  51.319  1.00  0.00     0.100 N 
HETATM    5  C17 UNL     1      22.909   4.087  52.316  1.00  0.00     0.275 C 
HETATM    6  C18 UNL     1      23.638   5.306  51.699  1.00  0.00     0.055 C 
ENDROOT
BRANCH   1   7
HETATM    7  N2  UNL     1      25.713   5.502  50.355  1.00  0.00    -0.398 N 
HETATM    8  H8  UNL     1      26.388   5.799  51.060  1.00  0.00     0.155 HD
BRANCH   7   9
HETATM    9  C5  UNL     1      25.764   6.176  49.087  1.00  0.00     0.184 A 
HETATM   10  C2  UNL     1      27.157   6.107  48.597  1.00  0.00    -0.047 A 
HETATM   11  C1  UNL     1      27.621   4.677  48.649  1.00  0.00     0.047 C 
HETATM   12  C3  UNL     1      28.158   6.806  48.101  1.00  0.00     0.008 A 
HETATM   13  C4  UNL     1      27.874   8.223  47.986  1.00  0.00     0.029 A 
HETATM   14  P1  UNL     1      26.386   8.666  48.497  1.00  0.00     0.029 P 
HETATM   15  N1  UNL     1      25.269   7.483  49.130  1.00  0.00    -0.267 NA
HETATM   16  H6  UNL     1      25.035   7.723  50.139  1.00  0.00     0.129 HD
ENDBRANCH   7   9
ENDBRANCH   1   7
BRANCH   4  17
HETATM   17  C9  UNL     1      22.669   1.907  51.271  1.00  0.00     0.289 C 
BRANCH  17  18
HETATM   18  C10 UNL     1      21.908   1.301  50.114  1.00  0.00     0.431 C 
HETATM   19  O1  UNL     1      21.364   0.584  49.292  1.00  0.00    -0.428 OA
ENDBRANCH  17  18
BRANCH  17  20
HETATM   20  C11 UNL     1      22.290   1.091  52.437  1.00  0.00    -0.022 A 
HETATM   21  C12 UNL     1      21.064   1.033  53.072  1.00  0.00     0.009 A 
HETATM   22  C13 UNL     1      20.855   0.215  54.162  1.00  0.00     0.001 A 
HETATM   23  C14 UNL     1      21.895  -0.569  54.638  1.00  0.00     0.000 A 
HETATM   24  C15 UNL     1      23.136  -0.539  54.031  1.00  0.00     0.001 A 
HETATM   25  C16 UNL     1      23.298   0.298  52.939  1.00  0.00     0.009 A 
ENDBRANCH  17  20
ENDBRANCH   4  17
TORSDOF 5
ENDMDL
MODEL 3
REMARK VINA RESULT:      -7.0      1.371      1.676
REMARK  5 active torsions:
REMARK  status: ('A' for Active; 'I' for Inactive)
REMARK    1  A    between atoms: C5_7  and  N2_8 
REMARK    2  A    between atoms: N2_8  and  C6_9 
REMARK    3  A    between atoms: N3_12  and  C9_13 
REMARK    4  A    between atoms: C9_13  and  C10_14 
REMARK    5  A    between atoms: C9_13  and  C11_16 
ROOT
HETATM    1  C6  UNL     1      24.466   2.820  52.326  1.00  0.00     0.081 C 
HETATM    2  C7  UNL     1      24.771   2.666  50.845  1.00  0.00     0.055 C 
HETATM    3  C8  UNL     1      23.637   3.221  49.984  1.00  0.00     0.275 C 
HETATM    4  N3  UNL     1      22.329   2.955  50.531  1.00  0.00     0.100 N 
HETATM    5  C17 UNL     1      22.158   3.390  51.875  1.00  0.00     0.275 C 
HETATM    6  C18 UNL     1      23.482   3.911  52.486  1.00  0.00     0.055 C 
ENDROOT
BRANCH   1   7
HETATM    7  N2  UNL     1      25.568   2.759  53.172  1.00  0.00    -0.398 N 
HETATM    8  H8  UNL     1      25.749   3.504  53.845  1.00  0.00     0.155 HD
BRANCH   7   9
HETATM    9  C5  UNL     1      26.659   1.868  52.885  1.00  0.00     0.184 A 
HETATM   10  C2  UNL     1      26.617   0.772  53.876  1.00  0.00    -0.047 A 
HETATM   11  C1  UNL     1      25.229   0.193  53.903  1.00  0.00     0.047 C 
HETATM   12  C3  UNL     1      27.329   0.074  54.737  1.00  0.00     0.008 A 
HETATM   13  C4  UNL     1      28.708   0.511  54.838  1.00  0.00     0.029 A 
HETATM   14  P1  UNL     1      29.096   1.774  53.876  1.00  0.00     0.029 P 
HETATM   15  N1  UNL     1      27.902   2.506  52.835  1.00  0.00    -0.267 NA
HETATM   16  H6  UNL     1      27.769   3.525  53.111  1.00  0.00     0.129 HD
ENDBRANCH   7   9
ENDBRANCH   1   7
BRANCH   4  17
HETATM   17  C9  UNL     1      21.966   1.634  50.207  1.00  0.00     0.289 C 
BRANCH  17  18
HETATM   18  C10 UNL     1      21.058   1.720  49.002  1.00  0.00     0.431 C 
HETATM   19  O1  UNL     1      20.413   2.038  48.017  1.00  0.00    -0.428 OA
ENDBRANCH  17  18
BRANCH  17  20
HETATM   20  C11 UNL     1      21.179   0.907  51.218  1.00  0.00    -0.022 A 
HETATM   21  C12 UNL     1      19.804   0.832  51.332  1.00  0.00     0.009 A 
HETATM   22  C13 UNL     1      19.204   0.106  52.340  1.00  0.00     0.001 A 
HETATM   23  C14 UNL     1      19.992  -0.566  53.262  1.00  0.00     0.000 A 
HETATM   24  C15 UNL     1      21.370  -0.514  53.181  1.00  0.00     0.001 A 
HETATM   25  C16 UNL     1      21.928   0.227  52.152  1.00  0.00     0.009 A 
ENDBRANCH  17  20
ENDBRANCH   4  17
TORSDOF 5
ENDMDL
MODEL 4
REMARK VINA RESULT:      -6.8      3.449      6.035
REMARK  5 active torsions:
REMARK  status: ('A' for Active; 'I' for Inactive)
REMARK    1  A    between atoms: C5_7  and  N2_8 
REMARK    2  A    between atoms: N2_8  and  C6_9 
REMARK    3  A    between atoms: N3_12  and  C9_13 
REMARK    4  A    between atoms: C9_13  and  C10_14 
REMARK    5  A    between atoms: C9_13  and  C11_16 
ROOT
HETATM    1  C6  UNL     1      24.333   3.195  50.766  1.00  0.00     0.081 C 
HETATM    2  C7  UNL     1      23.201   2.217  50.498  1.00  0.00     0.055 C 
HETATM    3  C8  UNL     1      22.514   1.794  51.796  1.00  0.00     0.275 C 
HETATM    4  N3  UNL     1      23.435   1.622  52.893  1.00  0.00     0.100 N 
HETATM    5  C17 UNL     1      24.262   2.751  53.144  1.00  0.00     0.275 C 
HETATM    6  C18 UNL     1      24.083   3.850  52.067  1.00  0.00     0.055 C 
ENDROOT
BRANCH   1   7
HETATM    7  N2  UNL     1      24.730   3.961  49.676  1.00  0.00    -0.398 N 
HETATM    8  H8  UNL     1      25.076   3.517  48.825  1.00  0.00     0.155 HD
BRANCH   7   9
HETATM    9  C5  UNL     1      25.015   5.362  49.835  1.00  0.00     0.184 A 
HETATM   10  C2  UNL     1      24.340   6.085  48.737  1.00  0.00    -0.047 A 
HETATM   11  C1  UNL     1      22.896   5.666  48.693  1.00  0.00     0.047 C 
HETATM   12  C3  UNL     1      24.496   6.983  47.786  1.00  0.00     0.008 A 
HETATM   13  C4  UNL     1      25.850   7.495  47.689  1.00  0.00     0.029 A 
HETATM   14  P1  UNL     1      26.901   6.855  48.764  1.00  0.00     0.029 P 
HETATM   15  N1  UNL     1      26.382   5.647  49.912  1.00  0.00    -0.267 NA
HETATM   16  H6  UNL     1      26.924   4.747  49.748  1.00  0.00     0.129 HD
ENDBRANCH   7   9
ENDBRANCH   1   7
BRANCH   4  17
HETATM   17  C9  UNL     1      24.047   0.360  52.774  1.00  0.00     0.289 C 
BRANCH  17  18
HETATM   18  C10 UNL     1      23.260  -0.586  53.651  1.00  0.00     0.431 C 
HETATM   19  O1  UNL     1      22.510  -1.128  54.444  1.00  0.00    -0.428 OA
ENDBRANCH  17  18
BRANCH  17  20
HETATM   20  C11 UNL     1      25.433   0.259  53.262  1.00  0.00    -0.022 A 
HETATM   21  C12 UNL     1      25.874   0.250  54.571  1.00  0.00     0.009 A 
HETATM   22  C13 UNL     1      27.215   0.148  54.879  1.00  0.00     0.001 A 
HETATM   23  C14 UNL     1      28.146   0.053  53.856  1.00  0.00     0.000 A 
HETATM   24  C15 UNL     1      27.744   0.059  52.534  1.00  0.00     0.001 A 
HETATM   25  C16 UNL     1      26.387   0.162  52.274  1.00  0.00     0.009 A 
ENDBRANCH  17  20
ENDBRANCH   4  17
TORSDOF 5
ENDMDL
MODEL 5
REMARK VINA RESULT:      -6.5      4.284      6.770
REMARK  5 active torsions:
REMARK  status: ('A' for Active; 'I' for Inactive)
REMARK    1  A    between atoms: C5_7  and  N2_8 
REMARK    2  A    between atoms: N2_8  and  C6_9 
REMARK    3  A    between atoms: N3_12  and  C9_13 
REMARK    4  A    between atoms: C9_13  and  C10_14 
REMARK    5  A    between atoms: C9_13  and  C11_16 
ROOT
HETATM    1  C6  UNL     1      25.934   3.482  51.061  1.00  0.00     0.081 C 
HETATM    2  C7  UNL     1      24.492   3.882  50.803  1.00  0.00     0.055 C 
HETATM    3  C8  UNL     1      24.304   4.393  49.375  1.00  0.00     0.275 C 
HETATM    4  N3  UNL     1      25.417   5.182  48.906  1.00  0.00     0.100 N 
HETATM    5  C17 UNL     1      26.679   4.536  49.014  1.00  0.00     0.275 C 
HETATM    6  C18 UNL     1      26.574   3.184  49.762  1.00  0.00     0.055 C 
ENDROOT
BRANCH   1   7
HETATM    7  N2  UNL     1      26.133   2.624  52.137  1.00  0.00    -0.398 N 
HETATM    8  H8  UNL     1      25.540   2.683  52.966  1.00  0.00     0.155 HD
BRANCH   7   9
HETATM    9  C5  UNL     1      27.368   1.902  52.276  1.00  0.00     0.184 A 
HETATM   10  C2  UNL     1      27.076   0.645  52.997  1.00  0.00    -0.047 A 
HETATM   11  C1  UNL     1      25.931  -0.052  52.315  1.00  0.00     0.047 C 
HETATM   12  C3  UNL     1      27.442  -0.131  53.997  1.00  0.00     0.008 A 
HETATM   13  C4  UNL     1      28.547   0.404  54.770  1.00  0.00     0.029 A 
HETATM   14  P1  UNL     1      29.105   1.850  54.254  1.00  0.00     0.029 P 
HETATM   15  N1  UNL     1      28.385   2.649  52.879  1.00  0.00    -0.267 NA
HETATM   16  H6  UNL     1      27.981   3.584  53.185  1.00  0.00     0.129 HD
ENDBRANCH   7   9
ENDBRANCH   1   7
BRANCH   4  17
HETATM   17  C9  UNL     1      25.290   6.487  49.418  1.00  0.00     0.289 C 
BRANCH  17  18
HETATM   18  C10 UNL     1      24.134   7.128  48.685  1.00  0.00     0.431 C 
HETATM   19  O1  UNL     1      23.185   7.410  47.974  1.00  0.00    -0.428 OA
ENDBRANCH  17  18
BRANCH  17  20
HETATM   20  C11 UNL     1      26.429   7.392  49.186  1.00  0.00    -0.022 A 
HETATM   21  C12 UNL     1      27.323   7.380  48.132  1.00  0.00     0.009 A 
HETATM   22  C13 UNL     1      28.348   8.299  48.048  1.00  0.00     0.001 A 
HETATM   23  C14 UNL     1      28.491   9.258  49.039  1.00  0.00     0.000 A 
HETATM   24  C15 UNL     1      27.617   9.302  50.108  1.00  0.00     0.001 A 
HETATM   25  C16 UNL     1      26.603   8.359  50.150  1.00  0.00     0.009 A 
ENDBRANCH  17  20
ENDBRANCH   4  17
TORSDOF 5
ENDMDL
MODEL 6
REMARK VINA RESULT:      -6.5      3.293      5.765
REMARK  5 active torsions:
REMARK  status: ('A' for Active; 'I' for Inactive)
REMARK    1  A    between atoms: C5_7  and  N2_8 
REMARK    2  A    between atoms: N2_8  and  C6_9 
REMARK    3  A    between atoms: N3_12  and  C9_13 
REMARK    4  A    between atoms: C9_13  and  C10_14 
REMARK    5  A    between atoms: C9_13  and  C11_16 
ROOT
HETATM    1  C6  UNL     1      24.978   2.866  52.021  1.00  0.00     0.081 C 
HETATM    2  C7  UNL     1      23.820   3.574  52.702  1.00  0.00     0.055 C 
HETATM    3  C8  UNL     1      22.793   4.065  51.682  1.00  0.00     0.275 C 
HETATM    4  N3  UNL     1      23.394   4.565  50.470  1.00  0.00     0.100 N 
HETATM    5  C17 UNL     1      24.285   3.653  49.840  1.00  0.00     0.275 C 
HETATM    6  C18 UNL     1      24.519   2.387  50.701  1.00  0.00     0.055 C 
ENDROOT
BRANCH   1   7
HETATM    7  N2  UNL     1      25.724   2.022  52.837  1.00  0.00    -0.398 N 
HETATM    8  H8  UNL     1      25.440   1.844  53.800  1.00  0.00     0.155 HD
BRANCH   7   9
HETATM    9  C5  UNL     1      27.077   1.681  52.489  1.00  0.00     0.184 A 
HETATM   10  C2  UNL     1      27.297   0.271  52.873  1.00  0.00    -0.047 A 
HETATM   11  C1  UNL     1      26.193  -0.570  52.295  1.00  0.00     0.047 C 
HETATM   12  C3  UNL     1      28.103  -0.557  53.508  1.00  0.00     0.008 A 
HETATM   13  C4  UNL     1      29.234   0.101  54.134  1.00  0.00     0.029 A 
HETATM   14  P1  UNL     1      29.277   1.722  53.934  1.00  0.00     0.029 P 
HETATM   15  N1  UNL     1      28.029   2.547  53.035  1.00  0.00    -0.267 NA
HETATM   16  H6  UNL     1      27.531   3.236  53.674  1.00  0.00     0.129 HD
ENDBRANCH   7   9
ENDBRANCH   1   7
BRANCH   4  17
HETATM   17  C9  UNL     1      23.838   5.882  50.697  1.00  0.00     0.289 C 
BRANCH  17  18
HETATM   18  C10 UNL     1      22.602   6.750  50.756  1.00  0.00     0.431 C 
HETATM   19  O1  UNL     1      21.590   7.362  51.052  1.00  0.00    -0.428 OA
ENDBRANCH  17  18
BRANCH  17  20
HETATM   20  C11 UNL     1      24.668   6.482  49.639  1.00  0.00    -0.022 A 
HETATM   21  C12 UNL     1      26.038   6.665  49.635  1.00  0.00     0.009 A 
HETATM   22  C13 UNL     1      26.683   7.247  48.564  1.00  0.00     0.001 A 
HETATM   23  C14 UNL     1      25.947   7.659  47.464  1.00  0.00     0.000 A 
HETATM   24  C15 UNL     1      24.576   7.494  47.430  1.00  0.00     0.001 A 
HETATM   25  C16 UNL     1      23.972   6.904  48.529  1.00  0.00     0.009 A 
ENDBRANCH  17  20
ENDBRANCH   4  17
TORSDOF 5
ENDMDL
MODEL 7
REMARK VINA RESULT:      -6.3      7.897      9.591
REMARK  5 active torsions:
REMARK  status: ('A' for Active; 'I' for Inactive)
REMARK    1  A    between atoms: C5_7  and  N2_8 
REMARK    2  A    between atoms: N2_8  and  C6_9 
REMARK    3  A    between atoms: N3_12  and  C9_13 
REMARK    4  A    between atoms: C9_13  and  C10_14 
REMARK    5  A    between atoms: C9_13  and  C11_16 
ROOT
HETATM    1  C6  UNL     1      31.551   7.705  48.026  1.00  0.00     0.081 C 
HETATM    2  C7  UNL     1      31.256   8.394  46.705  1.00  0.00     0.055 C 
HETATM    3  C8  UNL     1      30.079   9.360  46.833  1.00  0.00     0.275 C 
HETATM    4  N3  UNL     1      29.032   8.864  47.692  1.00  0.00     0.100 N 
HETATM    5  C17 UNL     1      29.471   8.482  48.989  1.00  0.00     0.275 C 
HETATM    6  C18 UNL     1      31.013   8.544  49.118  1.00  0.00     0.055 C 
ENDROOT
BRANCH   1   7
HETATM    7  N2  UNL     1      32.824   7.158  48.144  1.00  0.00    -0.398 N 
HETATM    8  H8  UNL     1      33.613   7.563  47.639  1.00  0.00     0.155 HD
BRANCH   7   9
HETATM    9  C5  UNL     1      33.001   5.829  48.661  1.00  0.00     0.184 A 
HETATM   10  C2  UNL     1      34.378   5.399  48.334  1.00  0.00    -0.047 A 
HETATM   11  C1  UNL     1      35.340   6.461  48.790  1.00  0.00     0.047 C 
HETATM   12  C3  UNL     1      35.108   4.431  47.819  1.00  0.00     0.008 A 
HETATM   13  C4  UNL     1      34.324   3.316  47.323  1.00  0.00     0.029 A 
HETATM   14  P1  UNL     1      32.708   3.487  47.494  1.00  0.00     0.029 P 
HETATM   15  N1  UNL     1      32.032   4.924  48.217  1.00  0.00    -0.267 NA
HETATM   16  H6  UNL     1      31.409   5.417  47.509  1.00  0.00     0.129 HD
ENDBRANCH   7   9
ENDBRANCH   1   7
BRANCH   4  17
HETATM   17  C9  UNL     1      28.242   7.956  46.961  1.00  0.00     0.289 C 
BRANCH  17  18
HETATM   18  C10 UNL     1      27.195   8.776  46.243  1.00  0.00     0.431 C 
HETATM   19  O1  UNL     1      26.559   9.546  45.545  1.00  0.00    -0.428 OA
ENDBRANCH  17  18
BRANCH  17  20
HETATM   20  C11 UNL     1      27.476   6.976  47.750  1.00  0.00    -0.022 A 
HETATM   21  C12 UNL     1      26.177   7.086  48.211  1.00  0.00     0.009 A 
HETATM   22  C13 UNL     1      25.587   6.078  48.944  1.00  0.00     0.001 A 
HETATM   23  C14 UNL     1      26.306   4.927  49.228  1.00  0.00     0.000 A 
HETATM   24  C15 UNL     1      27.606   4.780  48.785  1.00  0.00     0.001 A 
HETATM   25  C16 UNL     1      28.157   5.819  48.052  1.00  0.00     0.009 A 
ENDBRANCH  17  20
ENDBRANCH   4  17
TORSDOF 5
ENDMDL
MODEL 8
REMARK VINA RESULT:      -6.2      1.904      2.522
REMARK  5 active torsions:
REMARK  status: ('A' for Active; 'I' for Inactive)
REMARK    1  A    between atoms: C5_7  and  N2_8 
REMARK    2  A    between atoms: N2_8  and  C6_9 
REMARK    3  A    between atoms: N3_12  and  C9_13 
REMARK    4  A    between atoms: C9_13  and  C10_14 
REMARK    5  A    between atoms: C9_13  and  C11_16 
ROOT
HETATM    1  C6  UNL     1      25.062   1.811  52.283  1.00  0.00     0.081 C 
HETATM    2  C7  UNL     1      25.482   2.360  50.930  1.00  0.00     0.055 C 
HETATM    3  C8  UNL     1      24.955   3.778  50.718  1.00  0.00     0.275 C 
HETATM    4  N3  UNL     1      23.628   3.974  51.248  1.00  0.00     0.100 N 
HETATM    5  C17 UNL     1      23.487   3.617  52.618  1.00  0.00     0.275 C 
HETATM    6  C18 UNL     1      24.769   2.951  53.176  1.00  0.00     0.055 C 
ENDROOT
BRANCH   1   7
HETATM    7  N2  UNL     1      25.818   0.745  52.756  1.00  0.00    -0.398 N 
HETATM    8  H8  UNL     1      25.501   0.195  53.554  1.00  0.00     0.155 HD
BRANCH   7   9
HETATM    9  C5  UNL     1      27.203   0.615  52.392  1.00  0.00     0.184 A 
HETATM   10  C2  UNL     1      27.633  -0.756  52.737  1.00  0.00    -0.047 A 
HETATM   11  C1  UNL     1      26.658  -1.736  52.143  1.00  0.00     0.047 C 
HETATM   12  C3  UNL     1      28.557  -1.472  53.345  1.00  0.00     0.008 A 
HETATM   13  C4  UNL     1      29.584  -0.671  53.983  1.00  0.00     0.029 A 
HETATM   14  P1  UNL     1      29.386   0.943  53.827  1.00  0.00     0.029 P 
HETATM   15  N1  UNL     1      28.022   1.598  52.957  1.00  0.00    -0.267 NA
HETATM   16  H6  UNL     1      27.434   2.190  53.616  1.00  0.00     0.129 HD
ENDBRANCH   7   9
ENDBRANCH   1   7
BRANCH   4  17
HETATM   17  C9  UNL     1      22.695   3.460  50.327  1.00  0.00     0.289 C 
BRANCH  17  18
HETATM   18  C10 UNL     1      21.934   4.646  49.778  1.00  0.00     0.431 C 
HETATM   19  O1  UNL     1      21.244   5.430  49.151  1.00  0.00    -0.428 OA
ENDBRANCH  17  18
BRANCH  17  20
HETATM   20  C11 UNL     1      21.658   2.570  50.876  1.00  0.00    -0.022 A 
HETATM   21  C12 UNL     1      20.524   2.921  51.583  1.00  0.00     0.009 A 
HETATM   22  C13 UNL     1      19.635   1.970  52.037  1.00  0.00     0.001 A 
HETATM   23  C14 UNL     1      19.880   0.628  51.783  1.00  0.00     0.000 A 
HETATM   24  C15 UNL     1      21.003   0.238  51.081  1.00  0.00     0.001 A 
HETATM   25  C16 UNL     1      21.867   1.229  50.644  1.00  0.00     0.009 A 
ENDBRANCH  17  20
ENDBRANCH   4  17
TORSDOF 5
ENDMDL
MODEL 9
REMARK VINA RESULT:      -6.1      3.460      6.173
REMARK  5 active torsions:
REMARK  status: ('A' for Active; 'I' for Inactive)
REMARK    1  A    between atoms: C5_7  and  N2_8 
REMARK    2  A    between atoms: N2_8  and  C6_9 
REMARK    3  A    between atoms: N3_12  and  C9_13 
REMARK    4  A    between atoms: C9_13  and  C10_14 
REMARK    5  A    between atoms: C9_13  and  C11_16 
ROOT
HETATM    1  C6  UNL     1      23.947   2.057  51.503  1.00  0.00     0.081 C 
HETATM    2  C7  UNL     1      25.405   1.852  51.129  1.00  0.00     0.055 C 
HETATM    3  C8  UNL     1      26.190   3.160  51.220  1.00  0.00     0.275 C 
HETATM    4  N3  UNL     1      25.436   4.305  50.773  1.00  0.00     0.100 N 
HETATM    5  C17 UNL     1      24.178   4.464  51.418  1.00  0.00     0.275 C 
HETATM    6  C18 UNL     1      23.848   3.268  52.344  1.00  0.00     0.055 C 
ENDROOT
BRANCH   1   7
HETATM    7  N2  UNL     1      23.258   0.907  51.870  1.00  0.00    -0.398 N 
HETATM    8  H8  UNL     1      23.094   0.160  51.194  1.00  0.00     0.155 HD
BRANCH   7   9
HETATM    9  C5  UNL     1      22.455   0.887  53.062  1.00  0.00     0.184 A 
HETATM   10  C2  UNL     1      22.780  -0.350  53.804  1.00  0.00    -0.047 A 
HETATM   11  C1  UNL     1      24.272  -0.444  53.964  1.00  0.00     0.047 C 
HETATM   12  C3  UNL     1      22.273  -1.403  54.411  1.00  0.00     0.008 A 
HETATM   13  C4  UNL     1      20.825  -1.469  54.346  1.00  0.00     0.029 A 
HETATM   14  P1  UNL     1      20.121  -0.237  53.535  1.00  0.00     0.029 P 
HETATM   15  N1  UNL     1      21.086   1.027  52.814  1.00  0.00    -0.267 NA
HETATM   16  H6  UNL     1      20.932   1.033  51.762  1.00  0.00     0.129 HD
ENDBRANCH   7   9
ENDBRANCH   1   7
BRANCH   4  17
HETATM   17  C9  UNL     1      25.474   4.349  49.367  1.00  0.00     0.289 C 
BRANCH  17  18
HETATM   18  C10 UNL     1      26.928   4.493  48.979  1.00  0.00     0.431 C 
HETATM   19  O1  UNL     1      28.113   4.761  48.881  1.00  0.00    -0.428 OA
ENDBRANCH  17  18
BRANCH  17  20
HETATM   20  C11 UNL     1      24.801   5.495  48.731  1.00  0.00    -0.022 A 
HETATM   21  C12 UNL     1      25.288   6.776  48.556  1.00  0.00     0.009 A 
HETATM   22  C13 UNL     1      24.538   7.753  47.937  1.00  0.00     0.001 A 
HETATM   23  C14 UNL     1      23.265   7.450  47.477  1.00  0.00     0.000 A 
HETATM   24  C15 UNL     1      22.743   6.181  47.634  1.00  0.00     0.001 A 
HETATM   25  C16 UNL     1      23.534   5.232  48.262  1.00  0.00     0.009 A 
ENDBRANCH  17  20
ENDBRANCH   4  17
TORSDOF 5
ENDMDL
