MODEL 1
REMARK VINA RESULT:      -8.6      0.000      0.000
REMARK  7 active torsions:
REMARK  status: ('A' for Active; 'I' for Inactive)
REMARK    1  A    between atoms: N1_2  and  C3_4 
REMARK    2  A    between atoms: C3_4  and  C4_5 
REMARK    3  A    between atoms: C4_5  and  C5_6 
REMARK    4  A    between atoms: C5_6  and  C6_7 
REMARK       I    between atoms: C6_7  and  N2_9 
REMARK    5  A    between atoms: N2_9  and  C7_10 
REMARK    6  A    between atoms: C14_19  and  C15_20 
REMARK    7  A    between atoms: C18_23  and  N5_24 
ROOT
HETATM    1  C7  UNL     1      24.469   2.981  49.948  1.00  0.00     0.035 A 
HETATM    2  C8  UNL     1      23.292   2.933  49.200  1.00  0.00     0.032 A 
HETATM    3  C9  UNL     1      22.260   2.120  49.667  1.00  0.00     0.035 A 
HETATM    4  C10 UNL     1      22.416   1.396  50.829  1.00  0.00     0.067 A 
HETATM    5  N3  UNL     1      21.446   0.599  51.303  1.00  0.00    -0.259 NA
HETATM    6  C11 UNL     1      21.646  -0.095  52.437  1.00  0.00     0.140 A 
HETATM    7  C12 UNL     1      22.828  -0.010  53.133  1.00  0.00     0.070 A 
HETATM    8  C13 UNL     1      22.766  -0.811  54.349  1.00  0.00     0.101 C 
HETATM    9  N4  UNL     1      22.711  -1.442  55.342  1.00  0.00    -0.191 NA
HETATM   10  C14 UNL     1      23.906   0.801  52.712  1.00  0.00    -0.012 A 
HETATM   11  C20 UNL     1      23.569   1.440  51.565  1.00  0.00     0.004 A 
HETATM   12  C21 UNL     1      24.561   2.247  51.077  1.00  0.00     0.044 A 
ENDROOT
BRANCH  10  13
HETATM   13  C15 UNL     1      25.030   0.663  53.589  1.00  0.00     0.068 A 
HETATM   14  C16 UNL     1      26.052  -0.161  52.782  1.00  0.00    -0.011 A 
HETATM   15  C17 UNL     1      27.265   0.441  52.819  1.00  0.00     0.025 A 
HETATM   16  C18 UNL     1      27.146   1.678  53.633  1.00  0.00     0.022 A 
HETATM   17  C19 UNL     1      25.861   1.748  54.042  1.00  0.00     0.015 A 
BRANCH  16  18
HETATM   18  N5  UNL     1      28.275   2.562  53.871  1.00  0.00    -0.399 N 
HETATM   19  H18 UNL     1      28.525   2.968  54.817  1.00  0.00     0.156 HD
HETATM   20  H19 UNL     1      28.903   2.832  53.084  1.00  0.00     0.156 HD
ENDBRANCH  16  18
ENDBRANCH  10  13
BRANCH   1  21
HETATM   21  N2  UNL     1      25.450   3.834  49.382  1.00  0.00    -0.324 N 
HETATM   22  C6  UNL     1      25.680   5.223  49.698  1.00  0.00     0.245 C 
HETATM   23  O1  UNL     1      24.883   5.653  50.583  1.00  0.00    -0.268 OA
HETATM   24  H11 UNL     1      25.893   3.151  48.720  1.00  0.00     0.169 HD
BRANCH  22  25
HETATM   25  C5  UNL     1      26.776   5.688  48.875  1.00  0.00     0.072 C 
BRANCH  25  26
HETATM   26  C4  UNL     1      27.805   6.061  48.211  1.00  0.00     0.008 C 
BRANCH  26  27
HETATM   27  C3  UNL     1      28.878   7.027  47.982  1.00  0.00     0.299 C 
BRANCH  27  28
HETATM   28  N1  UNL     1      30.067   6.549  48.647  1.00  0.00     0.083 N 
HETATM   29  C1  UNL     1      30.645   5.511  47.843  1.00  0.00     0.309 C 
HETATM   30  C2  UNL     1      31.008   7.640  48.795  1.00  0.00     0.309 C 
ENDBRANCH  27  28
ENDBRANCH  26  27
ENDBRANCH  25  26
ENDBRANCH  22  25
ENDBRANCH   1  21
TORSDOF 7
ENDMDL
MODEL 2
REMARK VINA RESULT:      -7.9      1.849      4.009
REMARK  7 active torsions:
REMARK  status: ('A' for Active; 'I' for Inactive)
REMARK    1  A    between atoms: N1_2  and  C3_4 
REMARK    2  A    between atoms: C3_4  and  C4_5 
REMARK    3  A    between atoms: C4_5  and  C5_6 
REMARK    4  A    between atoms: C5_6  and  C6_7 
REMARK       I    between atoms: C6_7  and  N2_9 
REMARK    5  A    between atoms: N2_9  and  C7_10 
REMARK    6  A    between atoms: C14_19  and  C15_20 
REMARK    7  A    between atoms: C18_23  and  N5_24 
ROOT
HETATM    1  C7  UNL     1      26.519   2.253  51.868  1.00  0.00     0.035 A 
HETATM    2  C8  UNL     1      27.583   1.848  52.674  1.00  0.00     0.032 A 
HETATM    3  C9  UNL     1      27.324   0.901  53.663  1.00  0.00     0.035 A 
HETATM    4  C10 UNL     1      26.054   0.391  53.823  1.00  0.00     0.067 A 
HETATM    5  N3  UNL     1      25.767  -0.517  54.768  1.00  0.00    -0.259 NA
HETATM    6  C11 UNL     1      24.511  -0.981  54.892  1.00  0.00     0.140 A 
HETATM    7  C12 UNL     1      23.500  -0.545  54.068  1.00  0.00     0.070 A 
HETATM    8  C13 UNL     1      22.256  -1.242  54.373  1.00  0.00     0.101 C 
HETATM    9  N4  UNL     1      21.255  -1.816  54.602  1.00  0.00    -0.191 NA
HETATM   10  C14 UNL     1      23.704   0.409  53.047  1.00  0.00    -0.012 A 
HETATM   11  C20 UNL     1      25.006   0.785  53.034  1.00  0.00     0.004 A 
HETATM   12  C21 UNL     1      25.297   1.718  52.075  1.00  0.00     0.044 A 
ENDROOT
BRANCH  10  13
HETATM   13  C15 UNL     1      22.477   0.720  52.377  1.00  0.00     0.068 A 
HETATM   14  C16 UNL     1      22.042   2.073  52.973  1.00  0.00    -0.011 A 
HETATM   15  C17 UNL     1      21.736   2.940  51.978  1.00  0.00     0.025 A 
HETATM   16  C18 UNL     1      21.935   2.247  50.679  1.00  0.00     0.022 A 
HETATM   17  C19 UNL     1      22.353   0.996  50.969  1.00  0.00     0.015 A 
BRANCH  16  18
HETATM   18  N5  UNL     1      21.692   2.902  49.405  1.00  0.00    -0.399 N 
HETATM   19  H18 UNL     1      22.217   3.756  49.064  1.00  0.00     0.156 HD
HETATM   20  H19 UNL     1      20.963   2.533  48.757  1.00  0.00     0.156 HD
ENDBRANCH  16  18
ENDBRANCH  10  13
BRANCH   1  21
HETATM   21  N2  UNL     1      26.893   3.220  50.901  1.00  0.00    -0.324 N 
HETATM   22  C6  UNL     1      26.127   3.643  49.753  1.00  0.00     0.245 C 
HETATM   23  O1  UNL     1      25.015   3.044  49.670  1.00  0.00    -0.268 OA
HETATM   24  H11 UNL     1      27.833   3.479  51.290  1.00  0.00     0.169 HD
BRANCH  22  25
HETATM   25  C5  UNL     1      26.902   4.641  49.049  1.00  0.00     0.072 C 
BRANCH  25  26
HETATM   26  C4  UNL     1      27.594   5.573  48.507  1.00  0.00     0.008 C 
BRANCH  26  27
HETATM   27  C3  UNL     1      27.932   6.990  48.389  1.00  0.00     0.299 C 
BRANCH  27  28
HETATM   28  N1  UNL     1      26.928   7.754  49.091  1.00  0.00     0.083 N 
HETATM   29  C1  UNL     1      27.558   8.912  49.656  1.00  0.00     0.309 C 
HETATM   30  C2  UNL     1      25.894   8.160  48.163  1.00  0.00     0.309 C 
ENDBRANCH  27  28
ENDBRANCH  26  27
ENDBRANCH  25  26
ENDBRANCH  22  25
ENDBRANCH   1  21
TORSDOF 7
ENDMDL
MODEL 3
REMARK VINA RESULT:      -7.5      2.172      2.347
REMARK  7 active torsions:
REMARK  status: ('A' for Active; 'I' for Inactive)
REMARK    1  A    between atoms: N1_2  and  C3_4 
REMARK    2  A    between atoms: C3_4  and  C4_5 
REMARK    3  A    between atoms: C4_5  and  C5_6 
REMARK    4  A    between atoms: C5_6  and  C6_7 
REMARK       I    between atoms: C6_7  and  N2_9 
REMARK    5  A    between atoms: N2_9  and  C7_10 
REMARK    6  A    between atoms: C14_19  and  C15_20 
REMARK    7  A    between atoms: C18_23  and  N5_24 
ROOT
HETATM    1  C7  UNL     1      23.557   5.007  51.479  1.00  0.00     0.035 A 
HETATM    2  C8  UNL     1      22.218   5.292  51.211  1.00  0.00     0.032 A 
HETATM    3  C9  UNL     1      21.268   4.339  51.571  1.00  0.00     0.035 A 
HETATM    4  C10 UNL     1      21.656   3.161  52.172  1.00  0.00     0.067 A 
HETATM    5  N3  UNL     1      20.769   2.219  52.527  1.00  0.00    -0.259 NA
HETATM    6  C11 UNL     1      21.195   1.082  53.105  1.00  0.00     0.140 A 
HETATM    7  C12 UNL     1      22.529   0.854  53.346  1.00  0.00     0.070 A 
HETATM    8  C13 UNL     1      22.716  -0.420  54.028  1.00  0.00     0.101 C 
HETATM    9  N4  UNL     1      22.870  -1.439  54.596  1.00  0.00    -0.191 NA
HETATM   10  C14 UNL     1      23.536   1.786  53.007  1.00  0.00    -0.012 A 
HETATM   11  C20 UNL     1      22.969   2.878  52.438  1.00  0.00     0.004 A 
HETATM   12  C21 UNL     1      23.875   3.836  52.070  1.00  0.00     0.044 A 
ENDROOT
BRANCH  10  13
HETATM   13  C15 UNL     1      24.837   1.276  53.318  1.00  0.00     0.068 A 
HETATM   14  C16 UNL     1      25.427   0.857  51.957  1.00  0.00    -0.011 A 
HETATM   15  C17 UNL     1      26.671   1.372  51.813  1.00  0.00     0.025 A 
HETATM   16  C18 UNL     1      26.998   2.150  53.036  1.00  0.00     0.022 A 
HETATM   17  C19 UNL     1      25.924   2.057  53.849  1.00  0.00     0.015 A 
BRANCH  16  18
HETATM   18  N5  UNL     1      28.268   2.836  53.202  1.00  0.00    -0.399 N 
HETATM   19  H18 UNL     1      29.208   2.349  53.241  1.00  0.00     0.156 HD
HETATM   20  H19 UNL     1      28.295   3.874  53.290  1.00  0.00     0.156 HD
ENDBRANCH  16  18
ENDBRANCH  10  13
BRANCH   1  21
HETATM   21  N2  UNL     1      24.436   6.042  51.069  1.00  0.00    -0.324 N 
HETATM   22  C6  UNL     1      25.278   6.053  49.897  1.00  0.00     0.245 C 
HETATM   23  O1  UNL     1      25.163   4.994  49.212  1.00  0.00    -0.268 OA
HETATM   24  H11 UNL     1      24.264   6.717  51.853  1.00  0.00     0.169 HD
BRANCH  22  25
HETATM   25  C5  UNL     1      26.002   7.305  49.885  1.00  0.00     0.072 C 
BRANCH  25  26
HETATM   26  C4  UNL     1      26.565   8.455  49.909  1.00  0.00     0.008 C 
BRANCH  26  27
HETATM   27  C3  UNL     1      27.690   9.303  50.297  1.00  0.00     0.299 C 
BRANCH  27  28
HETATM   28  N1  UNL     1      28.422   9.658  49.105  1.00  0.00     0.083 N 
HETATM   29  C1  UNL     1      28.326  11.077  48.924  1.00  0.00     0.309 C 
HETATM   30  C2  UNL     1      29.810   9.273  49.259  1.00  0.00     0.309 C 
ENDBRANCH  27  28
ENDBRANCH  26  27
ENDBRANCH  25  26
ENDBRANCH  22  25
ENDBRANCH   1  21
TORSDOF 7
ENDMDL
MODEL 4
REMARK VINA RESULT:      -7.5      3.918      6.196
REMARK  7 active torsions:
REMARK  status: ('A' for Active; 'I' for Inactive)
REMARK    1  A    between atoms: N1_2  and  C3_4 
REMARK    2  A    between atoms: C3_4  and  C4_5 
REMARK    3  A    between atoms: C4_5  and  C5_6 
REMARK    4  A    between atoms: C5_6  and  C6_7 
REMARK       I    between atoms: C6_7  and  N2_9 
REMARK    5  A    between atoms: N2_9  and  C7_10 
REMARK    6  A    between atoms: C14_19  and  C15_20 
REMARK    7  A    between atoms: C18_23  and  N5_24 
ROOT
HETATM    1  C7  UNL     1      22.860   0.231  53.237  1.00  0.00     0.035 A 
HETATM    2  C8  UNL     1      22.480  -0.475  54.379  1.00  0.00     0.032 A 
HETATM    3  C9  UNL     1      21.159  -0.913  54.460  1.00  0.00     0.035 A 
HETATM    4  C10 UNL     1      20.273  -0.649  53.438  1.00  0.00     0.067 A 
HETATM    5  N3  UNL     1      18.994  -1.050  53.486  1.00  0.00    -0.259 NA
HETATM    6  C11 UNL     1      18.164  -0.764  52.468  1.00  0.00     0.140 A 
HETATM    7  C12 UNL     1      18.594  -0.064  51.365  1.00  0.00     0.070 A 
HETATM    8  C13 UNL     1      17.521   0.062  50.388  1.00  0.00     0.101 C 
HETATM    9  N4  UNL     1      16.661   0.149  49.588  1.00  0.00    -0.191 NA
HETATM   10  C14 UNL     1      19.921   0.400  51.225  1.00  0.00    -0.012 A 
HETATM   11  C20 UNL     1      20.643   0.042  52.315  1.00  0.00     0.004 A 
HETATM   12  C21 UNL     1      21.946   0.458  52.270  1.00  0.00     0.044 A 
ENDROOT
BRANCH  10  13
HETATM   13  C15 UNL     1      20.084   1.142  50.011  1.00  0.00     0.068 A 
HETATM   14  C16 UNL     1      20.075   2.618  50.453  1.00  0.00    -0.011 A 
HETATM   15  C17 UNL     1      21.131   3.271  49.912  1.00  0.00     0.025 A 
HETATM   16  C18 UNL     1      21.903   2.304  49.089  1.00  0.00     0.022 A 
HETATM   17  C19 UNL     1      21.262   1.120  49.182  1.00  0.00     0.015 A 
BRANCH  16  18
HETATM   18  N5  UNL     1      23.105   2.686  48.367  1.00  0.00    -0.399 N 
HETATM   19  H18 UNL     1      23.623   2.054  47.694  1.00  0.00     0.156 HD
HETATM   20  H19 UNL     1      23.510   3.639  48.492  1.00  0.00     0.156 HD
ENDBRANCH  16  18
ENDBRANCH  10  13
BRANCH   1  21
HETATM   21  N2  UNL     1      24.221   0.630  53.260  1.00  0.00    -0.324 N 
HETATM   22  C6  UNL     1      24.735   1.971  53.120  1.00  0.00     0.245 C 
HETATM   23  O1  UNL     1      23.814   2.826  52.963  1.00  0.00    -0.268 OA
HETATM   24  H11 UNL     1      24.661  -0.312  53.400  1.00  0.00     0.169 HD
BRANCH  22  25
HETATM   25  C5  UNL     1      26.178   1.901  53.202  1.00  0.00     0.072 C 
BRANCH  25  26
HETATM   26  C4  UNL     1      27.457   1.839  53.179  1.00  0.00     0.008 C 
BRANCH  26  27
HETATM   27  C3  UNL     1      28.745   2.086  53.823  1.00  0.00     0.299 C 
BRANCH  27  28
HETATM   28  N1  UNL     1      29.198   0.850  54.417  1.00  0.00     0.083 N 
HETATM   29  C1  UNL     1      28.057   0.160  54.943  1.00  0.00     0.309 C 
HETATM   30  C2  UNL     1      29.844   0.038  53.407  1.00  0.00     0.309 C 
ENDBRANCH  27  28
ENDBRANCH  26  27
ENDBRANCH  25  26
ENDBRANCH  22  25
ENDBRANCH   1  21
TORSDOF 7
ENDMDL
MODEL 5
REMARK VINA RESULT:      -7.4      4.069      8.177
REMARK  7 active torsions:
REMARK  status: ('A' for Active; 'I' for Inactive)
REMARK    1  A    between atoms: N1_2  and  C3_4 
REMARK    2  A    between atoms: C3_4  and  C4_5 
REMARK    3  A    between atoms: C4_5  and  C5_6 
REMARK    4  A    between atoms: C5_6  and  C6_7 
REMARK       I    between atoms: C6_7  and  N2_9 
REMARK    5  A    between atoms: N2_9  and  C7_10 
REMARK    6  A    between atoms: C14_19  and  C15_20 
REMARK    7  A    between atoms: C18_23  and  N5_24 
ROOT
HETATM    1  C7  UNL     1      21.576   3.145  52.184  1.00  0.00     0.035 A 
HETATM    2  C8  UNL     1      22.348   4.266  51.877  1.00  0.00     0.032 A 
HETATM    3  C9  UNL     1      23.734   4.117  51.870  1.00  0.00     0.035 A 
HETATM    4  C10 UNL     1      24.304   2.896  52.158  1.00  0.00     0.067 A 
HETATM    5  N3  UNL     1      25.633   2.717  52.166  1.00  0.00    -0.259 NA
HETATM    6  C11 UNL     1      26.145   1.509  52.460  1.00  0.00     0.140 A 
HETATM    7  C12 UNL     1      25.335   0.438  52.756  1.00  0.00     0.070 A 
HETATM    8  C13 UNL     1      26.132  -0.761  52.980  1.00  0.00     0.101 C 
HETATM    9  N4  UNL     1      26.772  -1.736  53.143  1.00  0.00    -0.191 NA
HETATM   10  C14 UNL     1      23.925   0.529  52.774  1.00  0.00    -0.012 A 
HETATM   11  C20 UNL     1      23.549   1.793  52.460  1.00  0.00     0.004 A 
HETATM   12  C21 UNL     1      22.193   1.977  52.458  1.00  0.00     0.044 A 
ENDROOT
BRANCH  10  13
HETATM   13  C15 UNL     1      23.332  -0.715  53.163  1.00  0.00     0.068 A 
HETATM   14  C16 UNL     1      23.306  -0.668  54.703  1.00  0.00    -0.011 A 
HETATM   15  C17 UNL     1      22.071  -0.993  55.156  1.00  0.00     0.025 A 
HETATM   16  C18 UNL     1      21.204  -1.275  53.982  1.00  0.00     0.022 A 
HETATM   17  C19 UNL     1      21.973  -1.103  52.885  1.00  0.00     0.015 A 
BRANCH  16  18
HETATM   18  N5  UNL     1      19.809  -1.655  54.122  1.00  0.00    -0.399 N 
HETATM   19  H18 UNL     1      19.440  -2.637  53.973  1.00  0.00     0.156 HD
HETATM   20  H19 UNL     1      19.097  -0.943  54.390  1.00  0.00     0.156 HD
ENDBRANCH  16  18
ENDBRANCH  10  13
BRANCH   1  21
HETATM   21  N2  UNL     1      20.182   3.411  52.166  1.00  0.00    -0.324 N 
HETATM   22  C6  UNL     1      19.284   3.258  51.047  1.00  0.00     0.245 C 
HETATM   23  O1  UNL     1      19.875   2.839  50.009  1.00  0.00    -0.268 OA
HETATM   24  H11 UNL     1      20.067   3.727  53.160  1.00  0.00     0.169 HD
BRANCH  22  25
HETATM   25  C5  UNL     1      17.962   3.649  51.487  1.00  0.00     0.072 C 
BRANCH  25  26
HETATM   26  C4  UNL     1      16.795   3.923  51.939  1.00  0.00     0.008 C 
BRANCH  26  27
HETATM   27  C3  UNL     1      15.348   3.982  51.745  1.00  0.00     0.299 C 
BRANCH  27  28
HETATM   28  N1  UNL     1      14.710   3.486  52.941  1.00  0.00     0.083 N 
HETATM   29  C1  UNL     1      13.439   4.136  53.076  1.00  0.00     0.309 C 
HETATM   30  C2  UNL     1      14.523   2.054  52.829  1.00  0.00     0.309 C 
ENDBRANCH  27  28
ENDBRANCH  26  27
ENDBRANCH  25  26
ENDBRANCH  22  25
ENDBRANCH   1  21
TORSDOF 7
ENDMDL
MODEL 6
REMARK VINA RESULT:      -7.3      3.789      8.434
REMARK  7 active torsions:
REMARK  status: ('A' for Active; 'I' for Inactive)
REMARK    1  A    between atoms: N1_2  and  C3_4 
REMARK    2  A    between atoms: C3_4  and  C4_5 
REMARK    3  A    between atoms: C4_5  and  C5_6 
REMARK    4  A    between atoms: C5_6  and  C6_7 
REMARK       I    between atoms: C6_7  and  N2_9 
REMARK    5  A    between atoms: N2_9  and  C7_10 
REMARK    6  A    between atoms: C14_19  and  C15_20 
REMARK    7  A    between atoms: C18_23  and  N5_24 
ROOT
HETATM    1  C7  UNL     1      21.538  -0.133  53.551  1.00  0.00     0.035 A 
HETATM    2  C8  UNL     1      21.705  -1.282  54.324  1.00  0.00     0.032 A 
HETATM    3  C9  UNL     1      22.980  -1.550  54.820  1.00  0.00     0.035 A 
HETATM    4  C10 UNL     1      24.027  -0.697  54.546  1.00  0.00     0.067 A 
HETATM    5  N3  UNL     1      25.268  -0.928  55.002  1.00  0.00    -0.259 NA
HETATM    6  C11 UNL     1      26.260  -0.071  54.703  1.00  0.00     0.140 A 
HETATM    7  C12 UNL     1      26.037   1.048  53.935  1.00  0.00     0.070 A 
HETATM    8  C13 UNL     1      27.258   1.834  53.808  1.00  0.00     0.101 C 
HETATM    9  N4  UNL     1      28.237   2.481  53.720  1.00  0.00    -0.191 NA
HETATM   10  C14 UNL     1      24.766   1.373  53.410  1.00  0.00    -0.012 A 
HETATM   11  C20 UNL     1      23.867   0.432  53.788  1.00  0.00     0.004 A 
HETATM   12  C21 UNL     1      22.603   0.663  53.317  1.00  0.00     0.044 A 
ENDROOT
BRANCH  10  13
HETATM   13  C15 UNL     1      24.827   2.557  52.607  1.00  0.00     0.068 A 
HETATM   14  C16 UNL     1      24.674   2.052  51.159  1.00  0.00    -0.011 A 
HETATM   15  C17 UNL     1      23.725   2.771  50.514  1.00  0.00     0.025 A 
HETATM   16  C18 UNL     1      23.188   3.785  51.459  1.00  0.00     0.022 A 
HETATM   17  C19 UNL     1      23.850   3.616  52.623  1.00  0.00     0.015 A 
BRANCH  16  18
HETATM   18  N5  UNL     1      22.147   4.725  51.079  1.00  0.00    -0.399 N 
HETATM   19  H18 UNL     1      22.318   5.745  50.853  1.00  0.00     0.156 HD
HETATM   20  H19 UNL     1      21.156   4.409  51.011  1.00  0.00     0.156 HD
ENDBRANCH  16  18
ENDBRANCH  10  13
BRANCH   1  21
HETATM   21  N2  UNL     1      20.205   0.039  53.096  1.00  0.00    -0.324 N 
HETATM   22  C6  UNL     1      19.770   0.236  51.735  1.00  0.00     0.245 C 
HETATM   23  O1  UNL     1      20.737   0.243  50.917  1.00  0.00    -0.268 OA
HETATM   24  H11 UNL     1      19.713  -0.021  54.021  1.00  0.00     0.169 HD
BRANCH  22  25
HETATM   25  C5  UNL     1      18.330   0.369  51.746  1.00  0.00     0.072 C 
BRANCH  25  26
HETATM   26  C4  UNL     1      17.061   0.527  51.670  1.00  0.00     0.008 C 
BRANCH  26  27
HETATM   27  C3  UNL     1      15.872   0.838  50.878  1.00  0.00     0.299 C 
BRANCH  27  28
HETATM   28  N1  UNL     1      14.898   1.452  51.748  1.00  0.00     0.083 N 
HETATM   29  C1  UNL     1      14.740   0.621  52.905  1.00  0.00     0.309 C 
HETATM   30  C2  UNL     1      15.365   2.765  52.143  1.00  0.00     0.309 C 
ENDBRANCH  27  28
ENDBRANCH  26  27
ENDBRANCH  25  26
ENDBRANCH  22  25
ENDBRANCH   1  21
TORSDOF 7
ENDMDL
MODEL 7
REMARK VINA RESULT:      -6.9      3.160      5.482
REMARK  7 active torsions:
REMARK  status: ('A' for Active; 'I' for Inactive)
REMARK    1  A    between atoms: N1_2  and  C3_4 
REMARK    2  A    between atoms: C3_4  and  C4_5 
REMARK    3  A    between atoms: C4_5  and  C5_6 
REMARK    4  A    between atoms: C5_6  and  C6_7 
REMARK       I    between atoms: C6_7  and  N2_9 
REMARK    5  A    between atoms: N2_9  and  C7_10 
REMARK    6  A    between atoms: C14_19  and  C15_20 
REMARK    7  A    between atoms: C18_23  and  N5_24 
ROOT
HETATM    1  C7  UNL     1      24.211   2.932  50.242  1.00  0.00     0.035 A 
HETATM    2  C8  UNL     1      25.571   2.920  50.553  1.00  0.00     0.032 A 
HETATM    3  C9  UNL     1      25.994   2.071  51.574  1.00  0.00     0.035 A 
HETATM    4  C10 UNL     1      25.087   1.277  52.241  1.00  0.00     0.067 A 
HETATM    5  N3  UNL     1      25.459   0.453  53.232  1.00  0.00    -0.259 NA
HETATM    6  C11 UNL     1      24.537  -0.298  53.860  1.00  0.00     0.140 A 
HETATM    7  C12 UNL     1      23.208  -0.245  53.510  1.00  0.00     0.070 A 
HETATM    8  C13 UNL     1      22.433  -1.193  54.301  1.00  0.00     0.101 C 
HETATM    9  N4  UNL     1      21.806  -1.971  54.924  1.00  0.00    -0.191 NA
HETATM   10  C14 UNL     1      22.722   0.592  52.481  1.00  0.00    -0.012 A 
HETATM   11  C20 UNL     1      23.752   1.285  51.938  1.00  0.00     0.004 A 
HETATM   12  C21 UNL     1      23.371   2.131  50.931  1.00  0.00     0.044 A 
ENDROOT
BRANCH  10  13
HETATM   13  C15 UNL     1      21.298   0.490  52.362  1.00  0.00     0.068 A 
HETATM   14  C16 UNL     1      20.775   1.886  52.752  1.00  0.00    -0.011 A 
HETATM   15  C17 UNL     1      19.899   2.330  51.819  1.00  0.00     0.025 A 
HETATM   16  C18 UNL     1      19.775   1.289  50.765  1.00  0.00     0.022 A 
HETATM   17  C19 UNL     1      20.587   0.274  51.128  1.00  0.00     0.015 A 
BRANCH  16  18
HETATM   18  N5  UNL     1      18.908   1.455  49.611  1.00  0.00    -0.399 N 
HETATM   19  H18 UNL     1      18.741   0.707  48.879  1.00  0.00     0.156 HD
HETATM   20  H19 UNL     1      18.399   2.352  49.462  1.00  0.00     0.156 HD
ENDBRANCH  16  18
ENDBRANCH  10  13
BRANCH   1  21
HETATM   21  N2  UNL     1      23.891   3.832  49.193  1.00  0.00    -0.324 N 
HETATM   22  C6  UNL     1      23.459   5.202  49.326  1.00  0.00     0.245 C 
HETATM   23  O1  UNL     1      23.382   5.567  50.536  1.00  0.00    -0.268 OA
HETATM   24  H11 UNL     1      24.065   3.195  48.377  1.00  0.00     0.169 HD
BRANCH  22  25
HETATM   25  C5  UNL     1      23.244   5.728  47.995  1.00  0.00     0.072 C 
BRANCH  25  26
HETATM   26  C4  UNL     1      22.960   6.182  46.832  1.00  0.00     0.008 C 
BRANCH  26  27
HETATM   27  C3  UNL     1      22.143   6.131  45.621  1.00  0.00     0.299 C 
BRANCH  27  28
HETATM   28  N1  UNL     1      21.150   5.097  45.788  1.00  0.00     0.083 N 
HETATM   29  C1  UNL     1      19.932   5.540  45.175  1.00  0.00     0.309 C 
HETATM   30  C2  UNL     1      21.609   3.880  45.151  1.00  0.00     0.309 C 
ENDBRANCH  27  28
ENDBRANCH  26  27
ENDBRANCH  25  26
ENDBRANCH  22  25
ENDBRANCH   1  21
TORSDOF 7
ENDMDL
MODEL 8
REMARK VINA RESULT:      -6.9      1.636      4.122
REMARK  7 active torsions:
REMARK  status: ('A' for Active; 'I' for Inactive)
REMARK    1  A    between atoms: N1_2  and  C3_4 
REMARK    2  A    between atoms: C3_4  and  C4_5 
REMARK    3  A    between atoms: C4_5  and  C5_6 
REMARK    4  A    between atoms: C5_6  and  C6_7 
REMARK       I    between atoms: C6_7  and  N2_9 
REMARK    5  A    between atoms: N2_9  and  C7_10 
REMARK    6  A    between atoms: C14_19  and  C15_20 
REMARK    7  A    between atoms: C18_23  and  N5_24 
ROOT
HETATM    1  C7  UNL     1      26.140   3.150  50.492  1.00  0.00     0.035 A 
HETATM    2  C8  UNL     1      26.826   2.538  51.542  1.00  0.00     0.032 A 
HETATM    3  C9  UNL     1      26.115   1.658  52.356  1.00  0.00     0.035 A 
HETATM    4  C10 UNL     1      24.780   1.412  52.116  1.00  0.00     0.067 A 
HETATM    5  N3  UNL     1      24.064   0.576  52.882  1.00  0.00    -0.259 NA
HETATM    6  C11 UNL     1      22.762   0.372  52.614  1.00  0.00     0.140 A 
HETATM    7  C12 UNL     1      22.137   1.003  51.564  1.00  0.00     0.070 A 
HETATM    8  C13 UNL     1      20.750   0.568  51.458  1.00  0.00     0.101 C 
HETATM    9  N4  UNL     1      19.635   0.205  51.357  1.00  0.00    -0.191 NA
HETATM   10  C14 UNL     1      22.808   1.900  50.704  1.00  0.00    -0.012 A 
HETATM   11  C20 UNL     1      24.104   2.010  51.086  1.00  0.00     0.004 A 
HETATM   12  C21 UNL     1      24.833   2.868  50.308  1.00  0.00     0.044 A 
ENDROOT
BRANCH  10  13
HETATM   13  C15 UNL     1      21.912   2.453  49.733  1.00  0.00     0.068 A 
HETATM   14  C16 UNL     1      21.508   3.823  50.311  1.00  0.00    -0.011 A 
HETATM   15  C17 UNL     1      21.657   4.785  49.370  1.00  0.00     0.025 A 
HETATM   16  C18 UNL     1      22.156   4.145  48.125  1.00  0.00     0.022 A 
HETATM   17  C19 UNL     1      22.278   2.828  48.391  1.00  0.00     0.015 A 
BRANCH  16  18
HETATM   18  N5  UNL     1      22.423   4.905  46.915  1.00  0.00    -0.399 N 
HETATM   19  H18 UNL     1      23.055   4.577  46.132  1.00  0.00     0.156 HD
HETATM   20  H19 UNL     1      21.978   5.838  46.774  1.00  0.00     0.156 HD
ENDBRANCH  16  18
ENDBRANCH  10  13
BRANCH   1  21
HETATM   21  N2  UNL     1      26.958   4.025  49.733  1.00  0.00    -0.324 N 
HETATM   22  C6  UNL     1      26.553   5.252  49.089  1.00  0.00     0.245 C 
HETATM   23  O1  UNL     1      25.325   5.506  49.267  1.00  0.00    -0.268 OA
HETATM   24  H11 UNL     1      27.864   3.501  49.806  1.00  0.00     0.169 HD
BRANCH  22  25
HETATM   25  C5  UNL     1      27.713   5.807  48.428  1.00  0.00     0.072 C 
BRANCH  25  26
HETATM   26  C4  UNL     1      28.778   6.315  47.929  1.00  0.00     0.008 C 
BRANCH  26  27
HETATM   27  C3  UNL     1      30.220   6.251  47.699  1.00  0.00     0.299 C 
BRANCH  27  28
HETATM   28  N1  UNL     1      30.888   6.404  48.970  1.00  0.00     0.083 N 
HETATM   29  C1  UNL     1      32.092   5.625  48.941  1.00  0.00     0.309 C 
HETATM   30  C2  UNL     1      31.209   7.800  49.181  1.00  0.00     0.309 C 
ENDBRANCH  27  28
ENDBRANCH  26  27
ENDBRANCH  25  26
ENDBRANCH  22  25
ENDBRANCH   1  21
TORSDOF 7
ENDMDL
MODEL 9
REMARK VINA RESULT:      -6.8      3.611      5.711
REMARK  7 active torsions:
REMARK  status: ('A' for Active; 'I' for Inactive)
REMARK    1  A    between atoms: N1_2  and  C3_4 
REMARK    2  A    between atoms: C3_4  and  C4_5 
REMARK    3  A    between atoms: C4_5  and  C5_6 
REMARK    4  A    between atoms: C5_6  and  C6_7 
REMARK       I    between atoms: C6_7  and  N2_9 
REMARK    5  A    between atoms: N2_9  and  C7_10 
REMARK    6  A    between atoms: C14_19  and  C15_20 
REMARK    7  A    between atoms: C18_23  and  N5_24 
ROOT
HETATM    1  C7  UNL     1      24.021   3.439  52.152  1.00  0.00     0.035 A 
HETATM    2  C8  UNL     1      24.093   4.686  51.532  1.00  0.00     0.032 A 
HETATM    3  C9  UNL     1      22.911   5.229  51.030  1.00  0.00     0.035 A 
HETATM    4  C10 UNL     1      21.722   4.542  51.151  1.00  0.00     0.067 A 
HETATM    5  N3  UNL     1      20.568   5.031  50.674  1.00  0.00    -0.259 NA
HETATM    6  C11 UNL     1      19.434   4.322  50.809  1.00  0.00     0.140 A 
HETATM    7  C12 UNL     1      19.423   3.095  51.431  1.00  0.00     0.070 A 
HETATM    8  C13 UNL     1      18.066   2.566  51.496  1.00  0.00     0.101 C 
HETATM    9  N4  UNL     1      16.969   2.145  51.568  1.00  0.00    -0.191 NA
HETATM   10  C14 UNL     1      20.587   2.499  51.963  1.00  0.00    -0.012 A 
HETATM   11  C20 UNL     1      21.648   3.317  51.760  1.00  0.00     0.004 A 
HETATM   12  C21 UNL     1      22.828   2.815  52.240  1.00  0.00     0.044 A 
ENDROOT
BRANCH  10  13
HETATM   13  C15 UNL     1      20.303   1.204  52.504  1.00  0.00     0.068 A 
HETATM   14  C16 UNL     1      21.181   0.239  51.685  1.00  0.00    -0.011 A 
HETATM   15  C17 UNL     1      21.872  -0.579  52.515  1.00  0.00     0.025 A 
HETATM   16  C18 UNL     1      21.513  -0.231  53.915  1.00  0.00     0.022 A 
HETATM   17  C19 UNL     1      20.623   0.781  53.844  1.00  0.00     0.015 A 
BRANCH  16  18
HETATM   18  N5  UNL     1      22.083  -0.925  55.057  1.00  0.00    -0.399 N 
HETATM   19  H18 UNL     1      23.011  -0.677  55.503  1.00  0.00     0.156 HD
HETATM   20  H19 UNL     1      21.572  -1.722  55.493  1.00  0.00     0.156 HD
ENDBRANCH  16  18
ENDBRANCH  10  13
BRANCH   1  21
HETATM   21  N2  UNL     1      25.279   2.982  52.622  1.00  0.00    -0.324 N 
HETATM   22  C6  UNL     1      26.385   2.509  51.824  1.00  0.00     0.245 C 
HETATM   23  O1  UNL     1      26.130   2.536  50.585  1.00  0.00    -0.268 OA
HETATM   24  H11 UNL     1      25.118   3.101  53.652  1.00  0.00     0.169 HD
BRANCH  22  25
HETATM   25  C5  UNL     1      27.456   2.144  52.726  1.00  0.00     0.072 C 
BRANCH  25  26
HETATM   26  C4  UNL     1      28.449   1.902  53.498  1.00  0.00     0.008 C 
BRANCH  26  27
HETATM   27  C3  UNL     1      29.599   1.073  53.854  1.00  0.00     0.299 C 
BRANCH  27  28
HETATM   28  N1  UNL     1      29.109  -0.163  54.417  1.00  0.00     0.083 N 
HETATM   29  C1  UNL     1      27.796   0.071  54.943  1.00  0.00     0.309 C 
HETATM   30  C2  UNL     1      29.053  -1.175  53.382  1.00  0.00     0.309 C 
ENDBRANCH  27  28
ENDBRANCH  26  27
ENDBRANCH  25  26
ENDBRANCH  22  25
ENDBRANCH   1  21
TORSDOF 7
ENDMDL
