MODEL 1
REMARK VINA RESULT:      -7.2      0.000      0.000
REMARK  8 active torsions:
REMARK  status: ('A' for Active; 'I' for Inactive)
REMARK    1  A    between atoms: C2_2  and  C4_4 
REMARK    2  A    between atoms: C7_7  and  N1_8 
REMARK       I    between atoms: N1_8  and  C8_9 
REMARK    3  A    between atoms: C8_9  and  C9_11 
REMARK    4  A    between atoms: C12_14  and  N2_15 
REMARK    5  A    between atoms: N2_15  and  C13_16 
REMARK    6  A    between atoms: N2_15  and  C15_19 
REMARK    7  A    between atoms: C13_16  and  C14_17 
REMARK    8  A    between atoms: C15_19  and  C16_20 
ROOT
HETATM    1  C9  UNL     1      26.817   5.261  48.923  1.00  0.00     0.032 A 
HETATM    2  C10 UNL     1      28.126   5.071  48.537  1.00  0.00     0.019 A 
HETATM    3  C11 UNL     1      28.810   6.117  47.971  1.00  0.00     0.030 A 
HETATM    4  C12 UNL     1      28.334   7.373  47.733  1.00  0.00     0.030 A 
HETATM    5  C17 UNL     1      27.011   7.500  48.142  1.00  0.00     0.030 A 
HETATM    6  C18 UNL     1      26.270   6.500  48.714  1.00  0.00     0.019 A 
ENDROOT
BRANCH   1   7
HETATM    7  C8  UNL     1      25.996   4.236  49.531  1.00  0.00     0.256 C 
HETATM    8  N1  UNL     1      26.418   3.582  50.710  1.00  0.00    -0.323 N 
HETATM    9  H10 UNL     1      27.294   3.757  51.222  1.00  0.00     0.169 HD
HETATM   10  O1  UNL     1      24.883   3.882  49.048  1.00  0.00    -0.267 OA
BRANCH   8  11
HETATM   11  C7  UNL     1      25.850   2.565  51.521  1.00  0.00     0.035 A 
HETATM   12  C6  UNL     1      24.708   2.717  52.291  1.00  0.00     0.030 A 
HETATM   13  C5  UNL     1      24.206   1.695  53.057  1.00  0.00     0.010 A 
HETATM   14  C4  UNL     1      24.899   0.491  53.026  1.00  0.00    -0.055 A 
HETATM   15  C20 UNL     1      26.043   0.284  52.277  1.00  0.00     0.010 A 
HETATM   16  C19 UNL     1      26.508   1.335  51.526  1.00  0.00     0.030 A 
BRANCH  14  17
HETATM   17  C2  UNL     1      24.424  -0.682  53.825  1.00  0.00     0.010 C 
HETATM   18  C1  UNL     1      22.925  -0.521  54.012  1.00  0.00     0.015 C 
HETATM   19  C3  UNL     1      25.148  -0.809  55.137  1.00  0.00     0.015 C 
ENDBRANCH  14  17
ENDBRANCH   8  11
ENDBRANCH   1   7
BRANCH   4  20
HETATM   20  N2  UNL     1      29.095   8.433  47.121  1.00  0.00    -0.379 N 
BRANCH  20  21
HETATM   21  C13 UNL     1      29.587   8.138  45.795  1.00  0.00     0.138 C 
BRANCH  21  22
HETATM   22  C14 UNL     1      31.044   8.283  45.565  1.00  0.00     0.134 C 
HETATM   23 CL1  UNL     1      31.858   6.761  46.109  1.00  0.00    -0.129 Cl
ENDBRANCH  21  22
ENDBRANCH  20  21
BRANCH  20  24
HETATM   24  C15 UNL     1      29.314   9.628  47.891  1.00  0.00     0.138 C 
BRANCH  24  25
HETATM   25  C16 UNL     1      29.781   9.469  49.292  1.00  0.00     0.134 C 
HETATM   26 CL2  UNL     1      31.379   8.609  49.188  1.00  0.00    -0.129 Cl
ENDBRANCH  24  25
ENDBRANCH  20  24
ENDBRANCH   4  20
TORSDOF 8
ENDMDL
MODEL 2
REMARK VINA RESULT:      -7.2      1.562      2.277
REMARK  8 active torsions:
REMARK  status: ('A' for Active; 'I' for Inactive)
REMARK    1  A    between atoms: C2_2  and  C4_4 
REMARK    2  A    between atoms: C7_7  and  N1_8 
REMARK       I    between atoms: N1_8  and  C8_9 
REMARK    3  A    between atoms: C8_9  and  C9_11 
REMARK    4  A    between atoms: C12_14  and  N2_15 
REMARK    5  A    between atoms: N2_15  and  C13_16 
REMARK    6  A    between atoms: N2_15  and  C15_19 
REMARK    7  A    between atoms: C13_16  and  C14_17 
REMARK    8  A    between atoms: C15_19  and  C16_20 
ROOT
HETATM    1  C9  UNL     1      25.839   4.399  49.298  1.00  0.00     0.032 A 
HETATM    2  C10 UNL     1      27.173   4.151  49.055  1.00  0.00     0.019 A 
HETATM    3  C11 UNL     1      27.955   5.160  48.553  1.00  0.00     0.030 A 
HETATM    4  C12 UNL     1      27.559   6.429  48.251  1.00  0.00     0.030 A 
HETATM    5  C17 UNL     1      26.207   6.616  48.516  1.00  0.00     0.030 A 
HETATM    6  C18 UNL     1      25.369   5.655  49.018  1.00  0.00     0.019 A 
ENDROOT
BRANCH   1   7
HETATM    7  C8  UNL     1      24.917   3.418  49.828  1.00  0.00     0.256 C 
HETATM    8  N1  UNL     1      25.092   2.895  51.129  1.00  0.00    -0.323 N 
HETATM    9  H10 UNL     1      25.843   3.143  51.788  1.00  0.00     0.169 HD
HETATM   10  O1  UNL     1      23.928   2.988  49.168  1.00  0.00    -0.267 OA
BRANCH   8  11
HETATM   11  C7  UNL     1      24.376   1.948  51.907  1.00  0.00     0.035 A 
HETATM   12  C6  UNL     1      23.037   2.061  52.250  1.00  0.00     0.030 A 
HETATM   13  C5  UNL     1      22.399   1.112  53.007  1.00  0.00     0.010 A 
HETATM   14  C4  UNL     1      23.158   0.023  53.418  1.00  0.00    -0.055 A 
HETATM   15  C20 UNL     1      24.496  -0.139  53.106  1.00  0.00     0.010 A 
HETATM   16  C19 UNL     1      25.093   0.835  52.347  1.00  0.00     0.030 A 
BRANCH  14  17
HETATM   17  C2  UNL     1      22.547  -1.065  54.243  1.00  0.00     0.010 C 
HETATM   18  C1  UNL     1      21.116  -0.652  54.542  1.00  0.00     0.015 C 
HETATM   19  C3  UNL     1      23.331  -1.340  55.496  1.00  0.00     0.015 C 
ENDBRANCH  14  17
ENDBRANCH   8  11
ENDBRANCH   1   7
BRANCH   4  20
HETATM   20  N2  UNL     1      28.424   7.448  47.710  1.00  0.00    -0.379 N 
BRANCH  20  21
HETATM   21  C13 UNL     1      27.769   8.700  47.409  1.00  0.00     0.138 C 
BRANCH  21  22
HETATM   22  C14 UNL     1      28.146   9.876  48.230  1.00  0.00     0.134 C 
HETATM   23 CL1  UNL     1      27.942   9.436  49.975  1.00  0.00    -0.129 Cl
ENDBRANCH  21  22
ENDBRANCH  20  21
BRANCH  20  24
HETATM   24  C15 UNL     1      29.804   7.106  47.494  1.00  0.00     0.138 C 
BRANCH  24  25
HETATM   25  C16 UNL     1      30.786   7.518  48.530  1.00  0.00     0.134 C 
HETATM   26 CL2  UNL     1      31.400   5.977  49.272  1.00  0.00    -0.129 Cl
ENDBRANCH  24  25
ENDBRANCH  20  24
ENDBRANCH   4  20
TORSDOF 8
ENDMDL
MODEL 3
REMARK VINA RESULT:      -7.1      1.477      2.601
REMARK  8 active torsions:
REMARK  status: ('A' for Active; 'I' for Inactive)
REMARK    1  A    between atoms: C2_2  and  C4_4 
REMARK    2  A    between atoms: C7_7  and  N1_8 
REMARK       I    between atoms: N1_8  and  C8_9 
REMARK    3  A    between atoms: C8_9  and  C9_11 
REMARK    4  A    between atoms: C12_14  and  N2_15 
REMARK    5  A    between atoms: N2_15  and  C13_16 
REMARK    6  A    between atoms: N2_15  and  C15_19 
REMARK    7  A    between atoms: C13_16  and  C14_17 
REMARK    8  A    between atoms: C15_19  and  C16_20 
ROOT
HETATM    1  C9  UNL     1      26.090   4.708  49.457  1.00  0.00     0.032 A 
HETATM    2  C10 UNL     1      25.750   6.043  49.503  1.00  0.00     0.019 A 
HETATM    3  C11 UNL     1      26.637   6.971  49.021  1.00  0.00     0.030 A 
HETATM    4  C12 UNL     1      27.864   6.726  48.479  1.00  0.00     0.030 A 
HETATM    5  C17 UNL     1      28.149   5.365  48.462  1.00  0.00     0.030 A 
HETATM    6  C18 UNL     1      27.311   4.385  48.926  1.00  0.00     0.019 A 
ENDROOT
BRANCH   1   7
HETATM    7  C8  UNL     1      25.238   3.639  49.932  1.00  0.00     0.256 C 
HETATM    8  N1  UNL     1      25.395   3.121  51.237  1.00  0.00    -0.323 N 
HETATM    9  H10 UNL     1      26.085   3.431  51.936  1.00  0.00     0.169 HD
HETATM   10  O1  UNL     1      24.330   3.126  49.219  1.00  0.00    -0.267 OA
BRANCH   8  11
HETATM   11  C7  UNL     1      24.732   2.102  51.972  1.00  0.00     0.035 A 
HETATM   12  C6  UNL     1      25.323   0.918  52.386  1.00  0.00     0.030 A 
HETATM   13  C5  UNL     1      24.629  -0.031  53.094  1.00  0.00     0.010 A 
HETATM   14  C4  UNL     1      23.298   0.249  53.379  1.00  0.00    -0.055 A 
HETATM   15  C20 UNL     1      22.659   1.413  52.990  1.00  0.00     0.010 A 
HETATM   16  C19 UNL     1      23.393   2.333  52.284  1.00  0.00     0.030 A 
BRANCH  14  17
HETATM   17  C2  UNL     1      22.463  -0.724  54.150  1.00  0.00     0.010 C 
HETATM   18  C1  UNL     1      21.185  -0.006  54.545  1.00  0.00     0.015 C 
HETATM   19  C3  UNL     1      23.192  -1.280  55.342  1.00  0.00     0.015 C 
ENDBRANCH  14  17
ENDBRANCH   8  11
ENDBRANCH   1   7
BRANCH   4  20
HETATM   20  N2  UNL     1      28.765   7.745  47.999  1.00  0.00    -0.379 N 
BRANCH  20  21
HETATM   21  C13 UNL     1      29.068   8.784  48.956  1.00  0.00     0.138 C 
BRANCH  21  22
HETATM   22  C14 UNL     1      30.494   9.149  49.129  1.00  0.00     0.134 C 
HETATM   23 CL1  UNL     1      31.421   7.643  49.516  1.00  0.00    -0.129 Cl
ENDBRANCH  21  22
ENDBRANCH  20  21
BRANCH  20  24
HETATM   24  C15 UNL     1      29.222   7.643  46.640  1.00  0.00     0.138 C 
BRANCH  24  25
HETATM   25  C16 UNL     1      28.786   8.695  45.685  1.00  0.00     0.134 C 
HETATM   26 CL2  UNL     1      26.970   8.623  45.664  1.00  0.00    -0.129 Cl
ENDBRANCH  24  25
ENDBRANCH  20  24
ENDBRANCH   4  20
TORSDOF 8
ENDMDL
MODEL 4
REMARK VINA RESULT:      -7.1      1.412      2.338
REMARK  8 active torsions:
REMARK  status: ('A' for Active; 'I' for Inactive)
REMARK    1  A    between atoms: C2_2  and  C4_4 
REMARK    2  A    between atoms: C7_7  and  N1_8 
REMARK       I    between atoms: N1_8  and  C8_9 
REMARK    3  A    between atoms: C8_9  and  C9_11 
REMARK    4  A    between atoms: C12_14  and  N2_15 
REMARK    5  A    between atoms: N2_15  and  C13_16 
REMARK    6  A    between atoms: N2_15  and  C15_19 
REMARK    7  A    between atoms: C13_16  and  C14_17 
REMARK    8  A    between atoms: C15_19  and  C16_20 
ROOT
HETATM    1  C9  UNL     1      26.634   5.250  49.045  1.00  0.00     0.032 A 
HETATM    2  C10 UNL     1      26.055   6.497  48.956  1.00  0.00     0.019 A 
HETATM    3  C11 UNL     1      26.784   7.530  48.424  1.00  0.00     0.030 A 
HETATM    4  C12 UNL     1      28.062   7.473  47.953  1.00  0.00     0.030 A 
HETATM    5  C17 UNL     1      28.590   6.191  48.072  1.00  0.00     0.030 A 
HETATM    6  C18 UNL     1      27.919   5.116  48.592  1.00  0.00     0.019 A 
ENDROOT
BRANCH   1   7
HETATM    7  C8  UNL     1      25.966   4.085  49.585  1.00  0.00     0.256 C 
HETATM    8  N1  UNL     1      26.407   3.497  50.792  1.00  0.00    -0.323 N 
HETATM    9  H10 UNL     1      27.196   3.817  51.371  1.00  0.00     0.169 HD
HETATM   10  O1  UNL     1      24.974   3.546  49.016  1.00  0.00    -0.267 OA
BRANCH   8  11
HETATM   11  C7  UNL     1      25.971   2.381  51.553  1.00  0.00     0.035 A 
HETATM   12  C6  UNL     1      26.649   1.176  51.645  1.00  0.00     0.030 A 
HETATM   13  C5  UNL     1      26.176   0.131  52.398  1.00  0.00     0.010 A 
HETATM   14  C4  UNL     1      24.977   0.336  53.070  1.00  0.00    -0.055 A 
HETATM   15  C20 UNL     1      24.259   1.517  53.013  1.00  0.00     0.010 A 
HETATM   16  C19 UNL     1      24.771   2.534  52.248  1.00  0.00     0.030 A 
BRANCH  14  17
HETATM   17  C2  UNL     1      24.386  -0.745  53.919  1.00  0.00     0.010 C 
HETATM   18  C1  UNL     1      22.896  -0.466  54.028  1.00  0.00     0.015 C 
HETATM   19  C3  UNL     1      25.045  -0.835  55.267  1.00  0.00     0.015 C 
ENDBRANCH  14  17
ENDBRANCH   8  11
ENDBRANCH   1   7
BRANCH   4  20
HETATM   20  N2  UNL     1      28.788   8.597  47.416  1.00  0.00    -0.379 N 
BRANCH  20  21
HETATM   21  C13 UNL     1      30.114   8.778  47.959  1.00  0.00     0.138 C 
BRANCH  21  22
HETATM   22  C14 UNL     1      30.214   9.349  49.324  1.00  0.00     0.134 C 
HETATM   23 CL1  UNL     1      30.710  11.084  49.177  1.00  0.00    -0.129 Cl
ENDBRANCH  21  22
ENDBRANCH  20  21
BRANCH  20  24
HETATM   24  C15 UNL     1      28.116   9.423  46.449  1.00  0.00     0.138 C 
BRANCH  24  25
HETATM   25  C16 UNL     1      28.083  10.887  46.697  1.00  0.00     0.134 C 
HETATM   26 CL2  UNL     1      27.171  11.106  48.254  1.00  0.00    -0.129 Cl
ENDBRANCH  24  25
ENDBRANCH  20  24
ENDBRANCH   4  20
TORSDOF 8
ENDMDL
MODEL 5
REMARK VINA RESULT:      -7.0      1.406      1.939
REMARK  8 active torsions:
REMARK  status: ('A' for Active; 'I' for Inactive)
REMARK    1  A    between atoms: C2_2  and  C4_4 
REMARK    2  A    between atoms: C7_7  and  N1_8 
REMARK       I    between atoms: N1_8  and  C8_9 
REMARK    3  A    between atoms: C8_9  and  C9_11 
REMARK    4  A    between atoms: C12_14  and  N2_15 
REMARK    5  A    between atoms: N2_15  and  C13_16 
REMARK    6  A    between atoms: N2_15  and  C15_19 
REMARK    7  A    between atoms: C13_16  and  C14_17 
REMARK    8  A    between atoms: C15_19  and  C16_20 
ROOT
HETATM    1  C9  UNL     1      25.952   4.635  49.406  1.00  0.00     0.032 A 
HETATM    2  C10 UNL     1      25.703   5.990  49.371  1.00  0.00     0.019 A 
HETATM    3  C11 UNL     1      26.678   6.832  48.902  1.00  0.00     0.030 A 
HETATM    4  C12 UNL     1      27.914   6.481  48.446  1.00  0.00     0.030 A 
HETATM    5  C17 UNL     1      28.104   5.104  48.507  1.00  0.00     0.030 A 
HETATM    6  C18 UNL     1      27.176   4.206  48.963  1.00  0.00     0.019 A 
ENDROOT
BRANCH   1   7
HETATM    7  C8  UNL     1      25.003   3.649  49.877  1.00  0.00     0.256 C 
HETATM    8  N1  UNL     1      25.116   3.106  51.176  1.00  0.00    -0.323 N 
HETATM    9  H10 UNL     1      25.836   3.341  51.873  1.00  0.00     0.169 HD
HETATM   10  O1  UNL     1      24.045   3.233  49.164  1.00  0.00    -0.267 OA
BRANCH   8  11
HETATM   11  C7  UNL     1      24.361   2.150  51.906  1.00  0.00     0.035 A 
HETATM   12  C6  UNL     1      23.020   2.284  52.227  1.00  0.00     0.030 A 
HETATM   13  C5  UNL     1      22.343   1.325  52.937  1.00  0.00     0.010 A 
HETATM   14  C4  UNL     1      23.067   0.202  53.322  1.00  0.00    -0.055 A 
HETATM   15  C20 UNL     1      24.406   0.017  53.028  1.00  0.00     0.010 A 
HETATM   16  C19 UNL     1      25.042   1.004  52.316  1.00  0.00     0.030 A 
BRANCH  14  17
HETATM   17  C2  UNL     1      22.412  -0.899  54.094  1.00  0.00     0.010 C 
HETATM   18  C1  UNL     1      21.011  -0.430  54.446  1.00  0.00     0.015 C 
HETATM   19  C3  UNL     1      23.202  -1.288  55.313  1.00  0.00     0.015 C 
ENDBRANCH  14  17
ENDBRANCH   8  11
ENDBRANCH   1   7
BRANCH   4  20
HETATM   20  N2  UNL     1      28.908   7.413  47.976  1.00  0.00    -0.379 N 
BRANCH  20  21
HETATM   21  C13 UNL     1      30.090   6.804  47.411  1.00  0.00     0.138 C 
BRANCH  21  22
HETATM   22  C14 UNL     1      31.286   6.711  48.283  1.00  0.00     0.134 C 
HETATM   23 CL1  UNL     1      31.950   5.032  48.157  1.00  0.00    -0.129 Cl
ENDBRANCH  21  22
ENDBRANCH  20  21
BRANCH  20  24
HETATM   24  C15 UNL     1      28.643   8.816  48.150  1.00  0.00     0.138 C 
BRANCH  24  25
HETATM   25  C16 UNL     1      29.080   9.446  49.422  1.00  0.00     0.134 C 
HETATM   26 CL2  UNL     1      30.608  10.348  49.031  1.00  0.00    -0.129 Cl
ENDBRANCH  24  25
ENDBRANCH  20  24
ENDBRANCH   4  20
TORSDOF 8
ENDMDL
MODEL 6
REMARK VINA RESULT:      -7.0      1.717      2.349
REMARK  8 active torsions:
REMARK  status: ('A' for Active; 'I' for Inactive)
REMARK    1  A    between atoms: C2_2  and  C4_4 
REMARK    2  A    between atoms: C7_7  and  N1_8 
REMARK       I    between atoms: N1_8  and  C8_9 
REMARK    3  A    between atoms: C8_9  and  C9_11 
REMARK    4  A    between atoms: C12_14  and  N2_15 
REMARK    5  A    between atoms: N2_15  and  C13_16 
REMARK    6  A    between atoms: N2_15  and  C15_19 
REMARK    7  A    between atoms: C13_16  and  C14_17 
REMARK    8  A    between atoms: C15_19  and  C16_20 
ROOT
HETATM    1  C9  UNL     1      26.031   4.738  49.497  1.00  0.00     0.032 A 
HETATM    2  C10 UNL     1      25.664   6.065  49.569  1.00  0.00     0.019 A 
HETATM    3  C11 UNL     1      26.513   7.016  49.064  1.00  0.00     0.030 A 
HETATM    4  C12 UNL     1      27.724   6.804  48.475  1.00  0.00     0.030 A 
HETATM    5  C17 UNL     1      28.037   5.449  48.433  1.00  0.00     0.030 A 
HETATM    6  C18 UNL     1      27.238   4.447  48.917  1.00  0.00     0.019 A 
ENDROOT
BRANCH   1   7
HETATM    7  C8  UNL     1      25.221   3.646  49.992  1.00  0.00     0.256 C 
HETATM    8  N1  UNL     1      25.480   3.075  51.258  1.00  0.00    -0.323 N 
HETATM    9  H10 UNL     1      26.222   3.359  51.913  1.00  0.00     0.169 HD
HETATM   10  O1  UNL     1      24.260   3.159  49.331  1.00  0.00    -0.267 OA
BRANCH   8  11
HETATM   11  C7  UNL     1      24.879   2.024  51.999  1.00  0.00     0.035 A 
HETATM   12  C6  UNL     1      25.511   0.838  52.340  1.00  0.00     0.030 A 
HETATM   13  C5  UNL     1      24.876  -0.143  53.058  1.00  0.00     0.010 A 
HETATM   14  C4  UNL     1      23.561   0.105  53.432  1.00  0.00    -0.055 A 
HETATM   15  C20 UNL     1      22.882   1.270  53.119  1.00  0.00     0.010 A 
HETATM   16  C19 UNL     1      23.558   2.223  52.399  1.00  0.00     0.030 A 
BRANCH  14  17
HETATM   17  C2  UNL     1      22.789  -0.904  54.221  1.00  0.00     0.010 C 
HETATM   18  C1  UNL     1      21.425  -0.301  54.512  1.00  0.00     0.015 C 
HETATM   19  C3  UNL     1      23.506  -1.315  55.478  1.00  0.00     0.015 C 
ENDBRANCH  14  17
ENDBRANCH   8  11
ENDBRANCH   1   7
BRANCH   4  20
HETATM   20  N2  UNL     1      28.584   7.846  47.972  1.00  0.00    -0.379 N 
BRANCH  20  21
HETATM   21  C13 UNL     1      28.419   8.143  46.568  1.00  0.00     0.138 C 
BRANCH  21  22
HETATM   22  C14 UNL     1      27.439   9.196  46.209  1.00  0.00     0.134 C 
HETATM   23 CL1  UNL     1      25.906   8.388  45.683  1.00  0.00    -0.129 Cl
ENDBRANCH  21  22
ENDBRANCH  20  21
BRANCH  20  24
HETATM   24  C15 UNL     1      29.520   8.438  48.890  1.00  0.00     0.138 C 
BRANCH  24  25
HETATM   25  C16 UNL     1      30.888   7.861  48.946  1.00  0.00     0.134 C 
HETATM   26 CL2  UNL     1      31.966   9.057  48.103  1.00  0.00    -0.129 Cl
ENDBRANCH  24  25
ENDBRANCH  20  24
ENDBRANCH   4  20
TORSDOF 8
ENDMDL
MODEL 7
REMARK VINA RESULT:      -7.0      7.756     11.174
REMARK  8 active torsions:
REMARK  status: ('A' for Active; 'I' for Inactive)
REMARK    1  A    between atoms: C2_2  and  C4_4 
REMARK    2  A    between atoms: C7_7  and  N1_8 
REMARK       I    between atoms: N1_8  and  C8_9 
REMARK    3  A    between atoms: C8_9  and  C9_11 
REMARK    4  A    between atoms: C12_14  and  N2_15 
REMARK    5  A    between atoms: N2_15  and  C13_16 
REMARK    6  A    between atoms: N2_15  and  C15_19 
REMARK    7  A    between atoms: C13_16  and  C14_17 
REMARK    8  A    between atoms: C15_19  and  C16_20 
ROOT
HETATM    1  C9  UNL     1      21.073  -0.397  53.051  1.00  0.00     0.032 A 
HETATM    2  C10 UNL     1      20.790   0.258  51.871  1.00  0.00     0.019 A 
HETATM    3  C11 UNL     1      19.499   0.265  51.409  1.00  0.00     0.030 A 
HETATM    4  C12 UNL     1      18.416  -0.319  51.997  1.00  0.00     0.030 A 
HETATM    5  C17 UNL     1      18.766  -0.963  53.179  1.00  0.00     0.030 A 
HETATM    6  C18 UNL     1      20.033  -1.009  53.698  1.00  0.00     0.019 A 
ENDROOT
BRANCH   1   7
HETATM    7  C8  UNL     1      22.394  -0.471  53.638  1.00  0.00     0.256 C 
HETATM    8  N1  UNL     1      23.524  -0.005  52.929  1.00  0.00    -0.323 N 
HETATM    9  H10 UNL     1      23.522   0.408  51.986  1.00  0.00     0.169 HD
HETATM   10  O1  UNL     1      22.598  -0.948  54.791  1.00  0.00    -0.267 OA
BRANCH   8  11
HETATM   11  C7  UNL     1      24.910   0.056  53.229  1.00  0.00     0.035 A 
HETATM   12  C6  UNL     1      25.814  -0.967  52.988  1.00  0.00     0.030 A 
HETATM   13  C5  UNL     1      27.144  -0.851  53.301  1.00  0.00     0.010 A 
HETATM   14  C4  UNL     1      27.550   0.348  53.876  1.00  0.00    -0.055 A 
HETATM   15  C20 UNL     1      26.691   1.400  54.139  1.00  0.00     0.010 A 
HETATM   16  C19 UNL     1      25.369   1.238  53.808  1.00  0.00     0.030 A 
BRANCH  14  17
HETATM   17  C2  UNL     1      28.982   0.569  54.247  1.00  0.00     0.010 C 
HETATM   18  C1  UNL     1      29.282   2.042  54.025  1.00  0.00     0.015 C 
HETATM   19  C3  UNL     1      29.915  -0.322  53.474  1.00  0.00     0.015 C 
ENDBRANCH  14  17
ENDBRANCH   8  11
ENDBRANCH   1   7
BRANCH   4  20
HETATM   20  N2  UNL     1      17.079  -0.292  51.458  1.00  0.00    -0.379 N 
BRANCH  20  21
HETATM   21  C13 UNL     1      17.008  -0.194  50.018  1.00  0.00     0.138 C 
BRANCH  21  22
HETATM   22  C14 UNL     1      16.202   0.916  49.455  1.00  0.00     0.134 C 
HETATM   23 CL1  UNL     1      16.937   2.480  49.993  1.00  0.00    -0.129 Cl
ENDBRANCH  21  22
ENDBRANCH  20  21
BRANCH  20  24
HETATM   24  C15 UNL     1      15.984  -0.324  52.390  1.00  0.00     0.138 C 
BRANCH  24  25
HETATM   25  C16 UNL     1      14.942  -1.365  52.193  1.00  0.00     0.134 C 
HETATM   26 CL2  UNL     1      15.746  -2.950  52.570  1.00  0.00    -0.129 Cl
ENDBRANCH  24  25
ENDBRANCH  20  24
ENDBRANCH   4  20
TORSDOF 8
ENDMDL
MODEL 8
REMARK VINA RESULT:      -6.9      3.877      9.684
REMARK  8 active torsions:
REMARK  status: ('A' for Active; 'I' for Inactive)
REMARK    1  A    between atoms: C2_2  and  C4_4 
REMARK    2  A    between atoms: C7_7  and  N1_8 
REMARK       I    between atoms: N1_8  and  C8_9 
REMARK    3  A    between atoms: C8_9  and  C9_11 
REMARK    4  A    between atoms: C12_14  and  N2_15 
REMARK    5  A    between atoms: N2_15  and  C13_16 
REMARK    6  A    between atoms: N2_15  and  C15_19 
REMARK    7  A    between atoms: C13_16  and  C14_17 
REMARK    8  A    between atoms: C15_19  and  C16_20 
ROOT
HETATM    1  C9  UNL     1      25.620   3.081  50.523  1.00  0.00     0.032 A 
HETATM    2  C10 UNL     1      26.619   2.269  51.014  1.00  0.00     0.019 A 
HETATM    3  C11 UNL     1      26.285   1.245  51.864  1.00  0.00     0.030 A 
HETATM    4  C12 UNL     1      25.035   0.918  52.300  1.00  0.00     0.030 A 
HETATM    5  C17 UNL     1      24.074   1.773  51.771  1.00  0.00     0.030 A 
HETATM    6  C18 UNL     1      24.336   2.813  50.919  1.00  0.00     0.019 A 
ENDROOT
BRANCH   1   7
HETATM    7  C8  UNL     1      25.848   4.189  49.620  1.00  0.00     0.256 C 
HETATM    8  N1  UNL     1      27.159   4.653  49.369  1.00  0.00    -0.323 N 
HETATM    9  H10 UNL     1      28.026   4.276  49.774  1.00  0.00     0.169 HD
HETATM   10  O1  UNL     1      24.906   4.784  49.023  1.00  0.00    -0.267 OA
BRANCH   8  11
HETATM   11  C7  UNL     1      27.690   5.690  48.557  1.00  0.00     0.035 A 
HETATM   12  C6  UNL     1      26.962   6.770  48.081  1.00  0.00     0.030 A 
HETATM   13  C5  UNL     1      27.532   7.741  47.298  1.00  0.00     0.010 A 
HETATM   14  C4  UNL     1      28.882   7.595  47.000  1.00  0.00    -0.055 A 
HETATM   15  C20 UNL     1      29.654   6.538  47.448  1.00  0.00     0.010 A 
HETATM   16  C19 UNL     1      29.042   5.590  48.228  1.00  0.00     0.030 A 
BRANCH  14  17
HETATM   17  C2  UNL     1      29.590   8.608  46.158  1.00  0.00     0.010 C 
HETATM   18  C1  UNL     1      29.792   9.845  47.016  1.00  0.00     0.015 C 
HETATM   19  C3  UNL     1      28.845   8.914  44.888  1.00  0.00     0.015 C 
ENDBRANCH  14  17
ENDBRANCH   8  11
ENDBRANCH   1   7
BRANCH   4  20
HETATM   20  N2  UNL     1      24.742  -0.163  53.207  1.00  0.00    -0.379 N 
BRANCH  20  21
HETATM   21  C13 UNL     1      23.349  -0.539  53.272  1.00  0.00     0.138 C 
BRANCH  21  22
HETATM   22  C14 UNL     1      22.820  -0.955  54.593  1.00  0.00     0.134 C 
HETATM   23 CL1  UNL     1      21.185  -0.210  54.810  1.00  0.00    -0.129 Cl
ENDBRANCH  21  22
ENDBRANCH  20  21
BRANCH  20  24
HETATM   24  C15 UNL     1      25.835  -0.714  53.964  1.00  0.00     0.138 C 
BRANCH  24  25
HETATM   25  C16 UNL     1      26.393   0.110  55.066  1.00  0.00     0.134 C 
HETATM   26 CL2  UNL     1      28.197   0.079  54.846  1.00  0.00    -0.129 Cl
ENDBRANCH  24  25
ENDBRANCH  20  24
ENDBRANCH   4  20
TORSDOF 8
ENDMDL
MODEL 9
REMARK VINA RESULT:      -6.9      8.048     11.069
REMARK  8 active torsions:
REMARK  status: ('A' for Active; 'I' for Inactive)
REMARK    1  A    between atoms: C2_2  and  C4_4 
REMARK    2  A    between atoms: C7_7  and  N1_8 
REMARK       I    between atoms: N1_8  and  C8_9 
REMARK    3  A    between atoms: C8_9  and  C9_11 
REMARK    4  A    between atoms: C12_14  and  N2_15 
REMARK    5  A    between atoms: N2_15  and  C13_16 
REMARK    6  A    between atoms: N2_15  and  C15_19 
REMARK    7  A    between atoms: C13_16  and  C14_17 
REMARK    8  A    between atoms: C15_19  and  C16_20 
ROOT
HETATM    1  C9  UNL     1      21.244   0.515  52.276  1.00  0.00     0.032 A 
HETATM    2  C10 UNL     1      20.634   0.862  51.089  1.00  0.00     0.019 A 
HETATM    3  C11 UNL     1      19.326   0.502  50.886  1.00  0.00     0.030 A 
HETATM    4  C12 UNL     1      18.522  -0.184  51.747  1.00  0.00     0.030 A 
HETATM    5  C17 UNL     1      19.194  -0.505  52.921  1.00  0.00     0.030 A 
HETATM    6  C18 UNL     1      20.496  -0.178  53.191  1.00  0.00     0.019 A 
ENDROOT
BRANCH   1   7
HETATM    7  C8  UNL     1      22.615   0.840  52.606  1.00  0.00     0.256 C 
HETATM    8  N1  UNL     1      23.501  -0.161  53.064  1.00  0.00    -0.323 N 
HETATM    9  H10 UNL     1      23.276  -1.157  53.200  1.00  0.00     0.169 HD
HETATM   10  O1  UNL     1      23.080   2.011  52.503  1.00  0.00    -0.267 OA
BRANCH   8  11
HETATM   11  C7  UNL     1      24.865  -0.155  53.456  1.00  0.00     0.035 A 
HETATM   12  C6  UNL     1      25.309  -0.253  54.766  1.00  0.00     0.030 A 
HETATM   13  C5  UNL     1      26.643  -0.240  55.084  1.00  0.00     0.010 A 
HETATM   14  C4  UNL     1      27.538  -0.125  54.027  1.00  0.00    -0.055 A 
HETATM   15  C20 UNL     1      27.151  -0.023  52.703  1.00  0.00     0.010 A 
HETATM   16  C19 UNL     1      25.805  -0.041  52.432  1.00  0.00     0.030 A 
BRANCH  14  17
HETATM   17  C2  UNL     1      29.013  -0.107  54.276  1.00  0.00     0.010 C 
HETATM   18  C1  UNL     1      29.471   1.337  54.163  1.00  0.00     0.015 C 
HETATM   19  C3  UNL     1      29.761  -1.013  53.336  1.00  0.00     0.015 C 
ENDBRANCH  14  17
ENDBRANCH   8  11
ENDBRANCH   1   7
BRANCH   4  20
HETATM   20  N2  UNL     1      17.154  -0.549  51.474  1.00  0.00    -0.379 N 
BRANCH  20  21
HETATM   21  C13 UNL     1      16.431  -1.076  52.608  1.00  0.00     0.138 C 
BRANCH  21  22
HETATM   22  C14 UNL     1      15.981  -2.486  52.527  1.00  0.00     0.134 C 
HETATM   23 CL1  UNL     1      17.131  -3.503  53.487  1.00  0.00    -0.129 Cl
ENDBRANCH  21  22
ENDBRANCH  20  21
BRANCH  20  24
HETATM   24  C15 UNL     1      16.678  -0.392  50.126  1.00  0.00     0.138 C 
BRANCH  24  25
HETATM   25  C16 UNL     1      15.510   0.499  49.907  1.00  0.00     0.134 C 
HETATM   26 CL2  UNL     1      15.953   2.093  50.660  1.00  0.00    -0.129 Cl
ENDBRANCH  24  25
ENDBRANCH  20  24
ENDBRANCH   4  20
TORSDOF 8
ENDMDL
