MODEL 1
REMARK VINA RESULT:      -8.7      0.000      0.000
REMARK  4 active torsions:
REMARK  status: ('A' for Active; 'I' for Inactive)
REMARK    1  A    between atoms: S1_2  and  N1_5 
REMARK    2  A    between atoms: N1_5  and  C2_6 
REMARK    3  A    between atoms: N2_13  and  N3_14 
REMARK    4  A    between atoms: C10_16  and  C11_17 
ROOT
HETATM    1  C2  UNL     1      24.295   1.157  52.417  1.00  0.00     0.043 A 
HETATM    2  C3  UNL     1      23.054   1.207  51.817  1.00  0.00     0.033 A 
HETATM    3  C4  UNL     1      22.777   2.002  50.702  1.00  0.00     0.040 A 
HETATM    4  C5  UNL     1      23.811   2.768  50.189  1.00  0.00     0.086 A 
HETATM    5  C6  UNL     1      25.092   2.758  50.756  1.00  0.00    -0.003 A 
HETATM    6  C7  UNL     1      25.286   1.943  51.860  1.00  0.00     0.041 A 
HETATM    7  C8  UNL     1      26.388   3.390  50.526  1.00  0.00     0.184 C 
HETATM    8  N2  UNL     1      26.421   4.473  49.611  1.00  0.00    -0.306 N 
HETATM    9  C9  UNL     1      25.381   5.231  49.005  1.00  0.00     0.107 A 
HETATM   10  C10 UNL     1      25.605   6.471  48.605  1.00  0.00     0.004 A 
HETATM   11  C17 UNL     1      24.299   6.946  48.028  1.00  0.00     0.193 A 
HETATM   12  N4  UNL     1      23.425   5.809  48.194  1.00  0.00    -0.260 NA
HETATM   13  C18 UNL     1      24.004   4.820  48.744  1.00  0.00     0.194 A 
HETATM   14  O3  UNL     1      23.474   3.551  49.063  1.00  0.00    -0.290 OA
ENDROOT
BRANCH  10  15
HETATM   15  C11 UNL     1      26.761   7.354  48.631  1.00  0.00    -0.025 A 
HETATM   16  C12 UNL     1      26.822   8.243  49.712  1.00  0.00     0.012 A 
HETATM   17  C13 UNL     1      27.820   9.147  49.946  1.00  0.00     0.002 A 
HETATM   18  C14 UNL     1      28.860   9.194  49.047  1.00  0.00     0.019 A 
HETATM   19  C15 UNL     1      28.841   8.323  47.953  1.00  0.00     0.011 A 
HETATM   20 BR1  UNL     1      30.266   8.349  46.671  1.00  0.00    -0.051 Br
HETATM   21  C16 UNL     1      27.821   7.425  47.746  1.00  0.00     0.031 A 
ENDBRANCH  10  15
BRANCH   8  22
HETATM   22  N3  UNL     1      27.712   4.898  49.191  1.00  0.00    -0.247 NA
HETATM   23  H10 UNL     1      28.326   5.077  50.020  1.00  0.00     0.143 HD
HETATM   24  H11 UNL     1      28.144   4.265  48.505  1.00  0.00     0.143 HD
ENDBRANCH   8  22
BRANCH   1  25
HETATM   25  N1  UNL     1      24.425   0.319  53.528  1.00  0.00    -0.285 N 
HETATM   26  H4  UNL     1      23.444   0.077  53.850  1.00  0.00     0.178 HD
BRANCH  25  27
HETATM   27  S1  UNL     1      25.786  -0.296  54.346  1.00  0.00     0.227 S 
HETATM   28  C1  UNL     1      26.909  -1.113  53.210  1.00  0.00     0.186 C 
HETATM   29  O1  UNL     1      25.413  -1.229  55.473  1.00  0.00    -0.206 OA
HETATM   30  O2  UNL     1      26.554   0.827  54.981  1.00  0.00    -0.206 OA
ENDBRANCH  25  27
ENDBRANCH   1  25
TORSDOF 4
ENDMDL
MODEL 2
REMARK VINA RESULT:      -8.3      2.029      2.180
REMARK  4 active torsions:
REMARK  status: ('A' for Active; 'I' for Inactive)
REMARK    1  A    between atoms: S1_2  and  N1_5 
REMARK    2  A    between atoms: N1_5  and  C2_6 
REMARK    3  A    between atoms: N2_13  and  N3_14 
REMARK    4  A    between atoms: C10_16  and  C11_17 
ROOT
HETATM    1  C2  UNL     1      26.218   0.945  52.012  1.00  0.00     0.043 A 
HETATM    2  C3  UNL     1      24.929   0.968  52.502  1.00  0.00     0.033 A 
HETATM    3  C4  UNL     1      24.007   1.967  52.181  1.00  0.00     0.040 A 
HETATM    4  C5  UNL     1      24.427   2.974  51.326  1.00  0.00     0.086 A 
HETATM    5  C6  UNL     1      25.724   3.004  50.797  1.00  0.00    -0.003 A 
HETATM    6  C7  UNL     1      26.578   1.976  51.165  1.00  0.00     0.041 A 
HETATM    7  C8  UNL     1      26.517   3.848  49.909  1.00  0.00     0.184 C 
HETATM    8  N2  UNL     1      25.978   5.118  49.579  1.00  0.00    -0.306 N 
HETATM    9  C9  UNL     1      24.884   5.849  50.118  1.00  0.00     0.107 A 
HETATM   10  C10 UNL     1      24.856   7.168  50.037  1.00  0.00     0.004 A 
HETATM   11  C17 UNL     1      23.573   7.584  50.704  1.00  0.00     0.193 A 
HETATM   12  N4  UNL     1      22.987   6.329  51.115  1.00  0.00    -0.260 NA
HETATM   13  C18 UNL     1      23.702   5.327  50.800  1.00  0.00     0.194 A 
HETATM   14  O3  UNL     1      23.455   3.956  51.036  1.00  0.00    -0.290 OA
ENDROOT
BRANCH  10  15
HETATM   15  C11 UNL     1      25.754   8.171  49.484  1.00  0.00    -0.025 A 
HETATM   16  C12 UNL     1      26.809   8.567  50.317  1.00  0.00     0.012 A 
HETATM   17  C13 UNL     1      27.776   9.478  49.999  1.00  0.00     0.002 A 
HETATM   18  C14 UNL     1      27.718  10.062  48.755  1.00  0.00     0.019 A 
HETATM   19  C15 UNL     1      26.683   9.695  47.889  1.00  0.00     0.011 A 
HETATM   20 BR1  UNL     1      26.557  10.478  46.144  1.00  0.00    -0.051 Br
HETATM   21  C16 UNL     1      25.724   8.774  48.239  1.00  0.00     0.031 A 
ENDBRANCH  10  15
BRANCH   8  22
HETATM   22  N3  UNL     1      26.616   5.812  48.513  1.00  0.00    -0.247 NA
HETATM   23  H10 UNL     1      25.904   6.215  47.862  1.00  0.00     0.143 HD
HETATM   24  H11 UNL     1      27.301   6.508  48.836  1.00  0.00     0.143 HD
ENDBRANCH   8  22
BRANCH   1  25
HETATM   25  N1  UNL     1      27.031  -0.116  52.423  1.00  0.00    -0.285 N 
HETATM   26  H4  UNL     1      26.907  -0.894  51.713  1.00  0.00     0.178 HD
BRANCH  25  27
HETATM   27  S1  UNL     1      28.072  -0.310  53.755  1.00  0.00     0.227 S 
HETATM   28  C1  UNL     1      29.200   1.077  53.903  1.00  0.00     0.186 C 
HETATM   29  O1  UNL     1      28.843  -1.608  53.706  1.00  0.00    -0.206 OA
HETATM   30  O2  UNL     1      27.276  -0.356  55.028  1.00  0.00    -0.206 OA
ENDBRANCH  25  27
ENDBRANCH   1  25
TORSDOF 4
ENDMDL
MODEL 3
REMARK VINA RESULT:      -8.3      6.542      8.732
REMARK  4 active torsions:
REMARK  status: ('A' for Active; 'I' for Inactive)
REMARK    1  A    between atoms: S1_2  and  N1_5 
REMARK    2  A    between atoms: N1_5  and  C2_6 
REMARK    3  A    between atoms: N2_13  and  N3_14 
REMARK    4  A    between atoms: C10_16  and  C11_17 
ROOT
HETATM    1  C2  UNL     1      18.928   0.706  50.513  1.00  0.00     0.043 A 
HETATM    2  C3  UNL     1      18.221   0.124  51.544  1.00  0.00     0.033 A 
HETATM    3  C4  UNL     1      18.785  -0.167  52.788  1.00  0.00     0.040 A 
HETATM    4  C5  UNL     1      20.122   0.151  52.975  1.00  0.00     0.086 A 
HETATM    5  C6  UNL     1      20.890   0.743  51.964  1.00  0.00    -0.003 A 
HETATM    6  C7  UNL     1      20.255   1.001  50.759  1.00  0.00     0.041 A 
HETATM    7  C8  UNL     1      22.260   1.209  51.772  1.00  0.00     0.184 C 
HETATM    8  N2  UNL     1      23.209   0.839  52.758  1.00  0.00    -0.306 N 
HETATM    9  C9  UNL     1      23.145  -0.098  53.827  1.00  0.00     0.107 A 
HETATM   10  C10 UNL     1      24.250  -0.652  54.296  1.00  0.00     0.004 A 
HETATM   11  C17 UNL     1      23.799  -1.573  55.397  1.00  0.00     0.193 A 
HETATM   12  N4  UNL     1      22.364  -1.406  55.408  1.00  0.00    -0.260 NA
HETATM   13  C18 UNL     1      21.960  -0.578  54.532  1.00  0.00     0.194 A 
HETATM   14  O3  UNL     1      20.639  -0.165  54.250  1.00  0.00    -0.290 OA
ENDROOT
BRANCH  10  15
HETATM   15  C11 UNL     1      25.663  -0.542  53.963  1.00  0.00    -0.025 A 
HETATM   16  C12 UNL     1      26.148  -1.493  53.056  1.00  0.00     0.012 A 
HETATM   17  C13 UNL     1      27.431  -1.569  52.591  1.00  0.00     0.002 A 
HETATM   18  C14 UNL     1      28.330  -0.634  53.048  1.00  0.00     0.019 A 
HETATM   19  C15 UNL     1      27.888   0.336  53.955  1.00  0.00     0.011 A 
HETATM   20 BR1  UNL     1      29.102   1.661  54.622  1.00  0.00    -0.051 Br
HETATM   21  C16 UNL     1      26.590   0.385  54.403  1.00  0.00     0.031 A 
ENDBRANCH  10  15
BRANCH   8  22
HETATM   22  N3  UNL     1      24.460   1.515  52.708  1.00  0.00    -0.247 NA
HETATM   23  H10 UNL     1      24.505   2.138  51.870  1.00  0.00     0.143 HD
HETATM   24  H11 UNL     1      24.690   2.005  53.583  1.00  0.00     0.143 HD
ENDBRANCH   8  22
BRANCH   1  25
HETATM   25  N1  UNL     1      18.232   0.937  49.322  1.00  0.00    -0.285 N 
HETATM   26  H4  UNL     1      18.334   0.063  48.730  1.00  0.00     0.178 HD
BRANCH  25  27
HETATM   27  S1  UNL     1      17.345   2.274  48.755  1.00  0.00     0.227 S 
HETATM   28  C1  UNL     1      15.682   1.796  48.284  1.00  0.00     0.186 C 
HETATM   29  O1  UNL     1      18.030   2.981  47.609  1.00  0.00    -0.206 OA
HETATM   30  O2  UNL     1      17.209   3.300  49.843  1.00  0.00    -0.206 OA
ENDBRANCH  25  27
ENDBRANCH   1  25
TORSDOF 4
ENDMDL
MODEL 4
REMARK VINA RESULT:      -8.2      5.356      6.574
REMARK  4 active torsions:
REMARK  status: ('A' for Active; 'I' for Inactive)
REMARK    1  A    between atoms: S1_2  and  N1_5 
REMARK    2  A    between atoms: N1_5  and  C2_6 
REMARK    3  A    between atoms: N2_13  and  N3_14 
REMARK    4  A    between atoms: C10_16  and  C11_17 
ROOT
HETATM    1  C2  UNL     1      26.194   0.551  54.224  1.00  0.00     0.043 A 
HETATM    2  C3  UNL     1      25.462  -0.434  54.853  1.00  0.00     0.033 A 
HETATM    3  C4  UNL     1      24.207  -0.854  54.407  1.00  0.00     0.040 A 
HETATM    4  C5  UNL     1      23.690  -0.240  53.277  1.00  0.00     0.086 A 
HETATM    5  C6  UNL     1      24.388   0.767  52.598  1.00  0.00    -0.003 A 
HETATM    6  C7  UNL     1      25.627   1.126  53.104  1.00  0.00     0.041 A 
HETATM    7  C8  UNL     1      24.199   1.622  51.429  1.00  0.00     0.184 C 
HETATM    8  N2  UNL     1      22.901   1.652  50.858  1.00  0.00    -0.306 N 
HETATM    9  C9  UNL     1      21.650   1.164  51.327  1.00  0.00     0.107 A 
HETATM   10  C10 UNL     1      20.522   1.715  50.916  1.00  0.00     0.004 A 
HETATM   11  C17 UNL     1      19.428   0.953  51.612  1.00  0.00     0.193 A 
HETATM   12  N4  UNL     1      20.146  -0.020  52.402  1.00  0.00    -0.260 NA
HETATM   13  C18 UNL     1      21.406   0.071  52.265  1.00  0.00     0.194 A 
HETATM   14  O3  UNL     1      22.419  -0.703  52.873  1.00  0.00    -0.290 OA
ENDROOT
BRANCH  10  15
HETATM   15  C11 UNL     1      20.195   2.810  50.014  1.00  0.00    -0.025 A 
HETATM   16  C12 UNL     1      19.634   2.438  48.786  1.00  0.00     0.012 A 
HETATM   17  C13 UNL     1      19.238   3.296  47.798  1.00  0.00     0.002 A 
HETATM   18  C14 UNL     1      19.398   4.643  48.023  1.00  0.00     0.019 A 
HETATM   19  C15 UNL     1      19.953   5.060  49.237  1.00  0.00     0.011 A 
HETATM   20 BR1  UNL     1      20.198   6.927  49.599  1.00  0.00    -0.051 Br
HETATM   21  C16 UNL     1      20.342   4.171  50.211  1.00  0.00     0.031 A 
ENDBRANCH  10  15
BRANCH   8  22
HETATM   22  N3  UNL     1      22.795   2.263  49.578  1.00  0.00    -0.247 NA
HETATM   23  H10 UNL     1      22.754   1.535  48.827  1.00  0.00     0.143 HD
HETATM   24  H11 UNL     1      22.025   2.942  49.516  1.00  0.00     0.143 HD
ENDBRANCH   8  22
BRANCH   1  25
HETATM   25  N1  UNL     1      27.434   0.870  54.786  1.00  0.00    -0.285 N 
HETATM   26  H4  UNL     1      27.346   0.729  55.833  1.00  0.00     0.178 HD
BRANCH  25  27
HETATM   27  S1  UNL     1      28.900   1.397  54.099  1.00  0.00     0.227 S 
HETATM   28  C1  UNL     1      29.920   0.006  53.606  1.00  0.00     0.186 C 
HETATM   29  O1  UNL     1      29.675   2.314  55.016  1.00  0.00    -0.206 OA
HETATM   30  O2  UNL     1      28.629   2.196  52.857  1.00  0.00    -0.206 OA
ENDBRANCH  25  27
ENDBRANCH   1  25
TORSDOF 4
ENDMDL
MODEL 5
REMARK VINA RESULT:      -8.1      4.381      5.292
REMARK  4 active torsions:
REMARK  status: ('A' for Active; 'I' for Inactive)
REMARK    1  A    between atoms: S1_2  and  N1_5 
REMARK    2  A    between atoms: N1_5  and  C2_6 
REMARK    3  A    between atoms: N2_13  and  N3_14 
REMARK    4  A    between atoms: C10_16  and  C11_17 
ROOT
HETATM    1  C2  UNL     1      25.855  -0.140  53.735  1.00  0.00     0.043 A 
HETATM    2  C3  UNL     1      24.812  -0.802  54.347  1.00  0.00     0.033 A 
HETATM    3  C4  UNL     1      23.472  -0.588  54.017  1.00  0.00     0.040 A 
HETATM    4  C5  UNL     1      23.198   0.339  53.023  1.00  0.00     0.086 A 
HETATM    5  C6  UNL     1      24.216   1.042  52.366  1.00  0.00    -0.003 A 
HETATM    6  C7  UNL     1      25.520   0.771  52.752  1.00  0.00     0.041 A 
HETATM    7  C8  UNL     1      24.339   2.051  51.318  1.00  0.00     0.184 C 
HETATM    8  N2  UNL     1      23.147   2.705  50.912  1.00  0.00    -0.306 N 
HETATM    9  C9  UNL     1      21.843   2.729  51.479  1.00  0.00     0.107 A 
HETATM   10  C10 UNL     1      21.039   3.755  51.262  1.00  0.00     0.004 A 
HETATM   11  C17 UNL     1      19.772   3.436  52.007  1.00  0.00     0.193 A 
HETATM   12  N4  UNL     1      20.049   2.151  52.606  1.00  0.00    -0.260 NA
HETATM   13  C18 UNL     1      21.213   1.721  52.328  1.00  0.00     0.194 A 
HETATM   14  O3  UNL     1      21.829   0.515  52.730  1.00  0.00    -0.290 OA
ENDROOT
BRANCH  10  15
HETATM   15  C11 UNL     1      21.160   5.000  50.518  1.00  0.00    -0.025 A 
HETATM   16  C12 UNL     1      21.800   6.050  51.190  1.00  0.00     0.012 A 
HETATM   17  C13 UNL     1      22.037   7.295  50.682  1.00  0.00     0.002 A 
HETATM   18  C14 UNL     1      21.613   7.550  49.398  1.00  0.00     0.019 A 
HETATM   19  C15 UNL     1      20.970   6.531  48.689  1.00  0.00     0.011 A 
HETATM   20 BR1  UNL     1      20.361   6.835  46.897  1.00  0.00    -0.051 Br
HETATM   21  C16 UNL     1      20.747   5.287  49.230  1.00  0.00     0.031 A 
ENDBRANCH  10  15
BRANCH   8  22
HETATM   22  N3  UNL     1      23.231   3.476  49.720  1.00  0.00    -0.247 NA
HETATM   23  H10 UNL     1      23.317   4.494  49.949  1.00  0.00     0.143 HD
HETATM   24  H11 UNL     1      23.965   3.150  49.077  1.00  0.00     0.143 HD
ENDBRANCH   8  22
BRANCH   1  25
HETATM   25  N1  UNL     1      27.146  -0.455  54.172  1.00  0.00    -0.285 N 
HETATM   26  H4  UNL     1      27.087  -1.394  54.660  1.00  0.00     0.178 HD
BRANCH  25  27
HETATM   27  S1  UNL     1      28.630   0.369  54.044  1.00  0.00     0.227 S 
HETATM   28  C1  UNL     1      29.980  -0.772  53.741  1.00  0.00     0.186 C 
HETATM   29  O1  UNL     1      28.927   1.221  55.255  1.00  0.00    -0.206 OA
HETATM   30  O2  UNL     1      28.594   1.316  52.878  1.00  0.00    -0.206 OA
ENDBRANCH  25  27
ENDBRANCH   1  25
TORSDOF 4
ENDMDL
MODEL 6
REMARK VINA RESULT:      -8.1      5.248      8.207
REMARK  4 active torsions:
REMARK  status: ('A' for Active; 'I' for Inactive)
REMARK    1  A    between atoms: S1_2  and  N1_5 
REMARK    2  A    between atoms: N1_5  and  C2_6 
REMARK    3  A    between atoms: N2_13  and  N3_14 
REMARK    4  A    between atoms: C10_16  and  C11_17 
ROOT
HETATM    1  C2  UNL     1      26.379   1.500  52.283  1.00  0.00     0.043 A 
HETATM    2  C3  UNL     1      26.516   2.160  51.080  1.00  0.00     0.033 A 
HETATM    3  C4  UNL     1      25.431   2.667  50.360  1.00  0.00     0.040 A 
HETATM    4  C5  UNL     1      24.166   2.488  50.897  1.00  0.00     0.086 A 
HETATM    5  C6  UNL     1      23.966   1.825  52.115  1.00  0.00    -0.003 A 
HETATM    6  C7  UNL     1      25.094   1.353  52.768  1.00  0.00     0.041 A 
HETATM    7  C8  UNL     1      22.850   1.449  52.978  1.00  0.00     0.184 C 
HETATM    8  N2  UNL     1      21.546   1.581  52.435  1.00  0.00    -0.306 N 
HETATM    9  C9  UNL     1      21.094   1.817  51.107  1.00  0.00     0.107 A 
HETATM   10  C10 UNL     1      19.894   1.412  50.728  1.00  0.00     0.004 A 
HETATM   11  C17 UNL     1      19.769   1.827  49.288  1.00  0.00     0.193 A 
HETATM   12  N4  UNL     1      21.032   2.470  49.012  1.00  0.00    -0.260 NA
HETATM   13  C18 UNL     1      21.807   2.483  50.020  1.00  0.00     0.194 A 
HETATM   14  O3  UNL     1      23.109   3.019  50.127  1.00  0.00    -0.290 OA
ENDROOT
BRANCH  10  15
HETATM   15  C11 UNL     1      18.803   0.710  51.388  1.00  0.00    -0.025 A 
HETATM   16  C12 UNL     1      17.541   1.306  51.275  1.00  0.00     0.012 A 
HETATM   17  C13 UNL     1      16.378   0.815  51.798  1.00  0.00     0.002 A 
HETATM   18  C14 UNL     1      16.443  -0.367  52.497  1.00  0.00     0.019 A 
HETATM   19  C15 UNL     1      17.683  -0.999  52.634  1.00  0.00     0.011 A 
HETATM   20 BR1  UNL     1      17.828  -2.648  53.599  1.00  0.00    -0.051 Br
HETATM   21  C16 UNL     1      18.836  -0.478  52.095  1.00  0.00     0.031 A 
ENDBRANCH  10  15
BRANCH   8  22
HETATM   22  N3  UNL     1      20.470   1.475  53.360  1.00  0.00    -0.247 NA
HETATM   23  H10 UNL     1      19.582   1.821  52.928  1.00  0.00     0.143 HD
HETATM   24  H11 UNL     1      20.376   0.534  53.764  1.00  0.00     0.143 HD
ENDBRANCH   8  22
BRANCH   1  25
HETATM   25  N1  UNL     1      27.554   1.044  52.889  1.00  0.00    -0.285 N 
HETATM   26  H4  UNL     1      28.275   1.815  52.786  1.00  0.00     0.178 HD
BRANCH  25  27
HETATM   27  S1  UNL     1      27.943  -0.412  53.680  1.00  0.00     0.227 S 
HETATM   28  C1  UNL     1      29.692  -0.783  53.530  1.00  0.00     0.186 C 
HETATM   29  O1  UNL     1      27.118  -1.577  53.190  1.00  0.00    -0.206 OA
HETATM   30  O2  UNL     1      27.650  -0.294  55.149  1.00  0.00    -0.206 OA
ENDBRANCH  25  27
ENDBRANCH   1  25
TORSDOF 4
ENDMDL
MODEL 7
REMARK VINA RESULT:      -7.9      4.885      7.617
REMARK  4 active torsions:
REMARK  status: ('A' for Active; 'I' for Inactive)
REMARK    1  A    between atoms: S1_2  and  N1_5 
REMARK    2  A    between atoms: N1_5  and  C2_6 
REMARK    3  A    between atoms: N2_13  and  N3_14 
REMARK    4  A    between atoms: C10_16  and  C11_17 
ROOT
HETATM    1  C2  UNL     1      29.446   6.234  47.704  1.00  0.00     0.043 A 
HETATM    2  C3  UNL     1      28.978   7.436  47.217  1.00  0.00     0.033 A 
HETATM    3  C4  UNL     1      27.656   7.860  47.369  1.00  0.00     0.040 A 
HETATM    4  C5  UNL     1      26.788   7.017  48.045  1.00  0.00     0.086 A 
HETATM    5  C6  UNL     1      27.205   5.784  48.561  1.00  0.00    -0.003 A 
HETATM    6  C7  UNL     1      28.533   5.437  48.368  1.00  0.00     0.041 A 
HETATM    7  C8  UNL     1      26.630   4.662  49.298  1.00  0.00     0.184 C 
HETATM    8  N2  UNL     1      25.216   4.627  49.413  1.00  0.00    -0.306 N 
HETATM    9  C9  UNL     1      24.196   5.373  48.761  1.00  0.00     0.107 A 
HETATM   10  C10 UNL     1      22.983   4.867  48.623  1.00  0.00     0.004 A 
HETATM   11  C17 UNL     1      22.190   5.920  47.897  1.00  0.00     0.193 A 
HETATM   12  N4  UNL     1      23.147   6.983  47.698  1.00  0.00    -0.260 NA
HETATM   13  C18 UNL     1      24.293   6.708  48.175  1.00  0.00     0.194 A 
HETATM   14  O3  UNL     1      25.465   7.495  48.169  1.00  0.00    -0.290 OA
ENDROOT
BRANCH  10  15
HETATM   15  C11 UNL     1      22.357   3.609  49.003  1.00  0.00    -0.025 A 
HETATM   16  C12 UNL     1      22.445   2.578  48.058  1.00  0.00     0.012 A 
HETATM   17  C13 UNL     1      21.947   1.315  48.208  1.00  0.00     0.002 A 
HETATM   18  C14 UNL     1      21.302   1.020  49.387  1.00  0.00     0.019 A 
HETATM   19  C15 UNL     1      21.192   2.019  50.359  1.00  0.00     0.011 A 
HETATM   20 BR1  UNL     1      20.301   1.661  52.019  1.00  0.00    -0.051 Br
HETATM   21  C16 UNL     1      21.704   3.282  50.177  1.00  0.00     0.031 A 
ENDBRANCH  10  15
BRANCH   8  22
HETATM   22  N3  UNL     1      24.688   3.695  50.349  1.00  0.00    -0.247 NA
HETATM   23  H10 UNL     1      25.456   3.282  50.927  1.00  0.00     0.143 HD
HETATM   24  H11 UNL     1      23.925   4.084  50.919  1.00  0.00     0.143 HD
ENDBRANCH   8  22
BRANCH   1  25
HETATM   25  N1  UNL     1      30.793   5.941  47.473  1.00  0.00    -0.285 N 
HETATM   26  H4  UNL     1      30.985   6.149  46.451  1.00  0.00     0.178 HD
BRANCH  25  27
HETATM   27  S1  UNL     1      32.029   5.361  48.490  1.00  0.00     0.227 S 
HETATM   28  C1  UNL     1      33.525   6.333  48.310  1.00  0.00     0.186 C 
HETATM   29  O1  UNL     1      32.326   3.897  48.266  1.00  0.00    -0.206 OA
HETATM   30  O2  UNL     1      31.608   5.476  49.928  1.00  0.00    -0.206 OA
ENDBRANCH  25  27
ENDBRANCH   1  25
TORSDOF 4
ENDMDL
MODEL 8
REMARK VINA RESULT:      -7.8      2.881      4.013
REMARK  4 active torsions:
REMARK  status: ('A' for Active; 'I' for Inactive)
REMARK    1  A    between atoms: S1_2  and  N1_5 
REMARK    2  A    between atoms: N1_5  and  C2_6 
REMARK    3  A    between atoms: N2_13  and  N3_14 
REMARK    4  A    between atoms: C10_16  and  C11_17 
ROOT
HETATM    1  C2  UNL     1      23.761  -0.019  52.745  1.00  0.00     0.043 A 
HETATM    2  C3  UNL     1      25.085  -0.377  52.601  1.00  0.00     0.033 A 
HETATM    3  C4  UNL     1      26.066   0.499  52.133  1.00  0.00     0.040 A 
HETATM    4  C5  UNL     1      25.671   1.786  51.802  1.00  0.00     0.086 A 
HETATM    5  C6  UNL     1      24.341   2.206  51.927  1.00  0.00    -0.003 A 
HETATM    6  C7  UNL     1      23.428   1.277  52.399  1.00  0.00     0.041 A 
HETATM    7  C8  UNL     1      23.557   3.416  51.696  1.00  0.00     0.184 C 
HETATM    8  N2  UNL     1      24.185   4.460  50.968  1.00  0.00    -0.306 N 
HETATM    9  C9  UNL     1      25.390   4.493  50.213  1.00  0.00     0.107 A 
HETATM   10  C10 UNL     1      25.538   5.364  49.230  1.00  0.00     0.004 A 
HETATM   11  C17 UNL     1      26.911   5.106  48.671  1.00  0.00     0.193 A 
HETATM   12  N4  UNL     1      27.407   4.020  49.485  1.00  0.00    -0.260 NA
HETATM   13  C18 UNL     1      26.572   3.648  50.368  1.00  0.00     0.194 A 
HETATM   14  O3  UNL     1      26.704   2.627  51.335  1.00  0.00    -0.290 OA
ENDROOT
BRANCH  10  15
HETATM   15  C11 UNL     1      24.696   6.404  48.658  1.00  0.00    -0.025 A 
HETATM   16  C12 UNL     1      25.073   7.720  48.951  1.00  0.00     0.012 A 
HETATM   17  C13 UNL     1      24.441   8.848  48.510  1.00  0.00     0.002 A 
HETATM   18  C14 UNL     1      23.337   8.685  47.705  1.00  0.00     0.019 A 
HETATM   19  C15 UNL     1      22.925   7.388  47.385  1.00  0.00     0.011 A 
HETATM   20 BR1  UNL     1      21.393   7.107  46.268  1.00  0.00    -0.051 Br
HETATM   21  C16 UNL     1      23.584   6.273  47.847  1.00  0.00     0.031 A 
ENDBRANCH  10  15
BRANCH   8  22
HETATM   22  N3  UNL     1      23.524   5.719  50.984  1.00  0.00    -0.247 NA
HETATM   23  H10 UNL     1      23.083   5.912  50.054  1.00  0.00     0.143 HD
HETATM   24  H11 UNL     1      22.864   5.820  51.766  1.00  0.00     0.143 HD
ENDBRANCH   8  22
BRANCH   1  25
HETATM   25  N1  UNL     1      22.889  -1.002  53.221  1.00  0.00    -0.285 N 
HETATM   26  H4  UNL     1      22.835  -1.756  52.477  1.00  0.00     0.178 HD
BRANCH  25  27
HETATM   27  S1  UNL     1      22.002  -1.142  54.668  1.00  0.00     0.227 S 
HETATM   28  C1  UNL     1      20.944   0.284  54.919  1.00  0.00     0.186 C 
HETATM   29  O1  UNL     1      22.886  -1.356  55.873  1.00  0.00    -0.206 OA
HETATM   30  O2  UNL     1      21.101  -2.343  54.604  1.00  0.00    -0.206 OA
ENDBRANCH  25  27
ENDBRANCH   1  25
TORSDOF 4
ENDMDL
MODEL 9
REMARK VINA RESULT:      -7.7      4.476      7.981
REMARK  4 active torsions:
REMARK  status: ('A' for Active; 'I' for Inactive)
REMARK    1  A    between atoms: S1_2  and  N1_5 
REMARK    2  A    between atoms: N1_5  and  C2_6 
REMARK    3  A    between atoms: N2_13  and  N3_14 
REMARK    4  A    between atoms: C10_16  and  C11_17 
ROOT
HETATM    1  C2  UNL     1      25.690   7.933  48.290  1.00  0.00     0.043 A 
HETATM    2  C3  UNL     1      24.725   7.798  47.314  1.00  0.00     0.033 A 
HETATM    3  C4  UNL     1      23.680   6.875  47.396  1.00  0.00     0.040 A 
HETATM    4  C5  UNL     1      23.627   6.066  48.520  1.00  0.00     0.086 A 
HETATM    5  C6  UNL     1      24.579   6.157  49.543  1.00  0.00    -0.003 A 
HETATM    6  C7  UNL     1      25.584   7.098  49.386  1.00  0.00     0.041 A 
HETATM    7  C8  UNL     1      24.862   5.518  50.826  1.00  0.00     0.184 C 
HETATM    8  N2  UNL     1      24.140   4.336  51.127  1.00  0.00    -0.306 N 
HETATM    9  C9  UNL     1      23.316   3.500  50.323  1.00  0.00     0.107 A 
HETATM   10  C10 UNL     1      23.156   2.224  50.631  1.00  0.00     0.004 A 
HETATM   11  C17 UNL     1      22.240   1.670  49.575  1.00  0.00     0.193 A 
HETATM   12  N4  UNL     1      21.977   2.809  48.726  1.00  0.00    -0.260 NA
HETATM   13  C18 UNL     1      22.570   3.862  49.121  1.00  0.00     0.194 A 
HETATM   14  O3  UNL     1      22.550   5.153  48.550  1.00  0.00    -0.290 OA
ENDROOT
BRANCH  10  15
HETATM   15  C11 UNL     1      23.663   1.364  51.690  1.00  0.00    -0.025 A 
HETATM   16  C12 UNL     1      22.696   0.826  52.550  1.00  0.00     0.012 A 
HETATM   17  C13 UNL     1      22.940  -0.016  53.597  1.00  0.00     0.002 A 
HETATM   18  C14 UNL     1      24.247  -0.373  53.836  1.00  0.00     0.019 A 
HETATM   19  C15 UNL     1      25.246   0.139  53.001  1.00  0.00     0.011 A 
HETATM   20 BR1  UNL     1      27.082  -0.328  53.290  1.00  0.00    -0.051 Br
HETATM   21  C16 UNL     1      24.966   0.985  51.954  1.00  0.00     0.031 A 
ENDBRANCH  10  15
BRANCH   8  22
HETATM   22  N3  UNL     1      24.220   3.879  52.472  1.00  0.00    -0.247 NA
HETATM   23  H10 UNL     1      23.586   3.060  52.619  1.00  0.00     0.143 HD
HETATM   24  H11 UNL     1      25.184   3.697  52.780  1.00  0.00     0.143 HD
ENDBRANCH   8  22
BRANCH   1  25
HETATM   25  N1  UNL     1      26.679   8.896  48.071  1.00  0.00    -0.285 N 
HETATM   26  H4  UNL     1      26.667   9.122  47.035  1.00  0.00     0.178 HD
BRANCH  25  27
HETATM   27  S1  UNL     1      27.777   9.669  49.118  1.00  0.00     0.227 S 
HETATM   28  C1  UNL     1      28.216  11.298  48.508  1.00  0.00     0.186 C 
HETATM   29  O1  UNL     1      29.021   8.849  49.363  1.00  0.00    -0.206 OA
HETATM   30  O2  UNL     1      27.147   9.868  50.467  1.00  0.00    -0.206 OA
ENDBRANCH  25  27
ENDBRANCH   1  25
TORSDOF 4
ENDMDL
