MODEL 1
REMARK VINA RESULT:      -8.5      0.000      0.000
REMARK  4 active torsions:
REMARK  status: ('A' for Active; 'I' for Inactive)
REMARK    1  A    between atoms: C2_2  and  C3_3 
REMARK    2  A    between atoms: C3_3  and  O1_5 
REMARK    3  A    between atoms: O1_5  and  C5_6 
REMARK    4  A    between atoms: C7_8  and  N1_9 
ROOT
HETATM    1  C5  UNL     1      20.753   0.740  50.674  1.00  0.00     0.104 C 
HETATM    2  C6  UNL     1      21.986   0.936  51.109  1.00  0.00     0.064 C 
HETATM    3  C7  UNL     1      22.229   0.634  52.516  1.00  0.00     0.236 A 
HETATM    4  C8  UNL     1      21.141  -0.139  53.110  1.00  0.00     0.040 A 
HETATM    5  C9  UNL     1      21.437  -0.989  54.120  1.00  0.00     0.101 A 
HETATM    6  N2  UNL     1      22.742  -1.220  54.638  1.00  0.00    -0.365 N 
HETATM    7  C10 UNL     1      23.797  -0.495  53.994  1.00  0.00     0.043 A 
HETATM    8  C11 UNL     1      25.090  -0.706  54.424  1.00  0.00     0.053 A 
HETATM    9  C12 UNL     1      26.140  -0.045  53.778  1.00  0.00     0.052 A 
HETATM   10  C13 UNL     1      27.498  -0.256  54.216  1.00  0.00     0.100 C 
HETATM   11  N3  UNL     1      28.610  -0.417  54.561  1.00  0.00    -0.191 NA
HETATM   12  C14 UNL     1      25.905   0.824  52.706  1.00  0.00    -0.041 A 
HETATM   13  C15 UNL     1      27.085   1.479  52.083  1.00  0.00     0.050 C 
HETATM   14  C16 UNL     1      24.586   1.028  52.282  1.00  0.00     0.021 A 
HETATM   15  C17 UNL     1      23.578   0.366  52.937  1.00  0.00     0.016 A 
HETATM   16  C18 UNL     1      19.769  -0.256  52.646  1.00  0.00     0.115 C 
HETATM   17  C19 UNL     1      19.602   0.185  51.378  1.00  0.00     0.136 C 
HETATM   18  O2  UNL     1      18.324   0.066  50.847  1.00  0.00    -0.344 OA
HETATM   19  C20 UNL     1      17.192  -0.140  51.687  1.00  0.00     0.202 C 
HETATM   20  C21 UNL     1      17.559  -1.200  52.693  1.00  0.00     0.202 C 
HETATM   21  O3  UNL     1      18.729  -0.760  53.404  1.00  0.00    -0.345 OA
HETATM   22  H14 UNL     1      22.936  -1.854  55.415  1.00  0.00     0.165 HD
ENDROOT
BRANCH   3  23
HETATM   23  N1  UNL     1      21.910   2.043  53.136  1.00  0.00     0.101 N 
HETATM   24  H11 UNL     1      22.840   2.432  53.389  1.00  0.00     0.315 HD
HETATM   25  H12 UNL     1      21.430   2.564  52.389  1.00  0.00     0.315 HD
ENDBRANCH   3  23
BRANCH   1  26
HETATM   26  O1  UNL     1      20.425   1.045  49.337  1.00  0.00    -0.344 OA
BRANCH  26  27
HETATM   27  C3  UNL     1      20.650   2.293  48.746  1.00  0.00     0.124 C 
HETATM   28  C4  UNL     1      19.508   2.775  47.908  1.00  0.00     0.040 C 
BRANCH  27  29
HETATM   29  C2  UNL     1      21.857   2.115  47.816  1.00  0.00     0.027 C 
HETATM   30  C1  UNL     1      22.926   3.093  48.295  1.00  0.00     0.007 C 
ENDBRANCH  27  29
ENDBRANCH  26  27
ENDBRANCH   1  26
TORSDOF 4
ENDMDL
MODEL 2
REMARK VINA RESULT:      -8.4      3.450      7.532
REMARK  4 active torsions:
REMARK  status: ('A' for Active; 'I' for Inactive)
REMARK    1  A    between atoms: C2_2  and  C3_3 
REMARK    2  A    between atoms: C3_3  and  O1_5 
REMARK    3  A    between atoms: O1_5  and  C5_6 
REMARK    4  A    between atoms: C7_8  and  N1_9 
ROOT
HETATM    1  C5  UNL     1      24.753   0.394  53.018  1.00  0.00     0.104 C 
HETATM    2  C6  UNL     1      23.979   1.216  52.331  1.00  0.00     0.064 C 
HETATM    3  C7  UNL     1      24.621   2.416  51.803  1.00  0.00     0.236 A 
HETATM    4  C8  UNL     1      26.078   2.330  51.854  1.00  0.00     0.040 A 
HETATM    5  C9  UNL     1      26.792   2.994  50.916  1.00  0.00     0.101 A 
HETATM    6  N2  UNL     1      26.234   3.754  49.851  1.00  0.00    -0.365 N 
HETATM    7  C10 UNL     1      24.802   3.769  49.790  1.00  0.00     0.043 A 
HETATM    8  C11 UNL     1      24.200   4.455  48.756  1.00  0.00     0.053 A 
HETATM    9  C12 UNL     1      22.806   4.443  48.650  1.00  0.00     0.052 A 
HETATM   10  C13 UNL     1      22.162   5.156  47.573  1.00  0.00     0.100 C 
HETATM   11  N3  UNL     1      21.622   5.732  46.703  1.00  0.00    -0.191 NA
HETATM   12  C14 UNL     1      22.010   3.749  49.570  1.00  0.00    -0.041 A 
HETATM   13  C15 UNL     1      20.538   3.794  49.373  1.00  0.00     0.050 C 
HETATM   14  C16 UNL     1      22.636   3.058  50.614  1.00  0.00     0.021 A 
HETATM   15  C17 UNL     1      24.006   3.090  50.692  1.00  0.00     0.016 A 
HETATM   16  C18 UNL     1      26.895   1.469  52.693  1.00  0.00     0.115 C 
HETATM   17  C19 UNL     1      26.189   0.465  53.263  1.00  0.00     0.136 C 
HETATM   18  O2  UNL     1      26.910  -0.427  54.047  1.00  0.00    -0.344 OA
HETATM   19  C20 UNL     1      28.209  -0.101  54.532  1.00  0.00     0.202 C 
HETATM   20  C21 UNL     1      28.983   0.503  53.389  1.00  0.00     0.202 C 
HETATM   21  O3  UNL     1      28.250   1.640  52.901  1.00  0.00    -0.345 OA
HETATM   22  H14 UNL     1      26.796   4.262  49.165  1.00  0.00     0.165 HD
ENDROOT
BRANCH   3  23
HETATM   23  N1  UNL     1      24.379   3.387  53.016  1.00  0.00     0.101 N 
HETATM   24  H11 UNL     1      23.350   3.533  53.031  1.00  0.00     0.315 HD
HETATM   25  H12 UNL     1      24.741   2.885  53.839  1.00  0.00     0.315 HD
ENDBRANCH   3  23
BRANCH   1  26
HETATM   26  O1  UNL     1      24.203  -0.769  53.594  1.00  0.00    -0.344 OA
BRANCH  26  27
HETATM   27  C3  UNL     1      23.168  -0.754  54.536  1.00  0.00     0.124 C 
HETATM   28  C4  UNL     1      23.477  -1.527  55.780  1.00  0.00     0.040 C 
BRANCH  27  29
HETATM   29  C2  UNL     1      21.967  -1.433  53.863  1.00  0.00     0.027 C 
HETATM   30  C1  UNL     1      20.817  -0.432  53.910  1.00  0.00     0.007 C 
ENDBRANCH  27  29
ENDBRANCH  26  27
ENDBRANCH   1  26
TORSDOF 4
ENDMDL
MODEL 3
REMARK VINA RESULT:      -8.3      3.447      6.105
REMARK  4 active torsions:
REMARK  status: ('A' for Active; 'I' for Inactive)
REMARK    1  A    between atoms: C2_2  and  C3_3 
REMARK    2  A    between atoms: C3_3  and  O1_5 
REMARK    3  A    between atoms: O1_5  and  C5_6 
REMARK    4  A    between atoms: C7_8  and  N1_9 
ROOT
HETATM    1  C5  UNL     1      24.437   0.490  52.599  1.00  0.00     0.104 C 
HETATM    2  C6  UNL     1      24.883   1.398  51.748  1.00  0.00     0.064 C 
HETATM    3  C7  UNL     1      23.916   2.401  51.310  1.00  0.00     0.236 A 
HETATM    4  C8  UNL     1      22.717   2.412  52.144  1.00  0.00     0.040 A 
HETATM    5  C9  UNL     1      22.052   3.579  52.293  1.00  0.00     0.101 A 
HETATM    6  N2  UNL     1      22.444   4.822  51.723  1.00  0.00    -0.365 N 
HETATM    7  C10 UNL     1      23.658   4.794  50.962  1.00  0.00     0.043 A 
HETATM    8  C11 UNL     1      24.114   5.976  50.417  1.00  0.00     0.053 A 
HETATM    9  C12 UNL     1      25.321   5.981  49.711  1.00  0.00     0.052 A 
HETATM   10  C13 UNL     1      25.812   7.209  49.135  1.00  0.00     0.100 C 
HETATM   11  N3  UNL     1      26.225   8.202  48.661  1.00  0.00    -0.191 NA
HETATM   12  C14 UNL     1      26.075   4.812  49.547  1.00  0.00    -0.041 A 
HETATM   13  C15 UNL     1      27.345   4.917  48.783  1.00  0.00     0.050 C 
HETATM   14  C16 UNL     1      25.598   3.620  50.106  1.00  0.00     0.021 A 
HETATM   15  C17 UNL     1      24.410   3.648  50.792  1.00  0.00     0.016 A 
HETATM   16  C18 UNL     1      22.214   1.352  53.002  1.00  0.00     0.115 C 
HETATM   17  C19 UNL     1      23.130   0.385  53.237  1.00  0.00     0.136 C 
HETATM   18  O2  UNL     1      22.737  -0.644  54.085  1.00  0.00    -0.344 OA
HETATM   19  C20 UNL     1      21.362  -0.875  54.377  1.00  0.00     0.202 C 
HETATM   20  C21 UNL     1      20.728   0.460  54.667  1.00  0.00     0.202 C 
HETATM   21  O3  UNL     1      20.938   1.315  53.530  1.00  0.00    -0.345 OA
HETATM   22  H14 UNL     1      21.913   5.688  51.835  1.00  0.00     0.165 HD
ENDROOT
BRANCH   3  23
HETATM   23  N1  UNL     1      23.343   1.664  50.046  1.00  0.00     0.101 N 
HETATM   24  H11 UNL     1      23.488   0.654  50.244  1.00  0.00     0.315 HD
HETATM   25  H12 UNL     1      22.353   1.942  49.997  1.00  0.00     0.315 HD
ENDBRANCH   3  23
BRANCH   1  26
HETATM   26  O1  UNL     1      25.296  -0.537  53.041  1.00  0.00    -0.344 OA
BRANCH  26  27
HETATM   27  C3  UNL     1      26.582  -0.748  52.531  1.00  0.00     0.124 C 
HETATM   28  C4  UNL     1      26.896  -2.187  52.268  1.00  0.00     0.040 C 
BRANCH  27  29
HETATM   29  C2  UNL     1      27.556  -0.258  53.610  1.00  0.00     0.027 C 
HETATM   30  C1  UNL     1      28.877  -0.983  53.369  1.00  0.00     0.007 C 
ENDBRANCH  27  29
ENDBRANCH  26  27
ENDBRANCH   1  26
TORSDOF 4
ENDMDL
MODEL 4
REMARK VINA RESULT:      -8.3      8.649     12.635
REMARK  4 active torsions:
REMARK  status: ('A' for Active; 'I' for Inactive)
REMARK    1  A    between atoms: C2_2  and  C3_3 
REMARK    2  A    between atoms: C3_3  and  O1_5 
REMARK    3  A    between atoms: O1_5  and  C5_6 
REMARK    4  A    between atoms: C7_8  and  N1_9 
ROOT
HETATM    1  C5  UNL     1      31.831   5.324  46.891  1.00  0.00     0.104 C 
HETATM    2  C6  UNL     1      30.704   5.060  47.529  1.00  0.00     0.064 C 
HETATM    3  C7  UNL     1      29.907   6.214  47.933  1.00  0.00     0.236 A 
HETATM    4  C8  UNL     1      30.339   7.443  47.272  1.00  0.00     0.040 A 
HETATM    5  C9  UNL     1      29.417   8.403  47.038  1.00  0.00     0.101 A 
HETATM    6  N2  UNL     1      28.034   8.302  47.357  1.00  0.00    -0.365 N 
HETATM    7  C10 UNL     1      27.627   7.062  47.948  1.00  0.00     0.043 A 
HETATM    8  C11 UNL     1      26.291   6.887  48.244  1.00  0.00     0.053 A 
HETATM    9  C12 UNL     1      25.865   5.666  48.776  1.00  0.00     0.052 A 
HETATM   10  C13 UNL     1      24.471   5.468  49.091  1.00  0.00     0.100 C 
HETATM   11  N3  UNL     1      23.339   5.291  49.352  1.00  0.00    -0.191 NA
HETATM   12  C14 UNL     1      26.765   4.620  49.014  1.00  0.00    -0.041 A 
HETATM   13  C15 UNL     1      26.216   3.360  49.581  1.00  0.00     0.050 C 
HETATM   14  C16 UNL     1      28.117   4.813  48.709  1.00  0.00     0.021 A 
HETATM   15  C17 UNL     1      28.505   6.023  48.189  1.00  0.00     0.016 A 
HETATM   16  C18 UNL     1      31.626   7.722  46.657  1.00  0.00     0.115 C 
HETATM   17  C19 UNL     1      32.366   6.608  46.452  1.00  0.00     0.136 C 
HETATM   18  O2  UNL     1      33.594   6.790  45.828  1.00  0.00    -0.344 OA
HETATM   19  C20 UNL     1      34.203   8.075  45.758  1.00  0.00     0.202 C 
HETATM   20  C21 UNL     1      33.138   9.062  45.355  1.00  0.00     0.202 C 
HETATM   21  O3  UNL     1      32.068   8.985  46.313  1.00  0.00    -0.345 OA
HETATM   22  H14 UNL     1      27.359   9.051  47.187  1.00  0.00     0.165 HD
ENDROOT
BRANCH   3  23
HETATM   23  N1  UNL     1      30.522   6.460  49.359  1.00  0.00     0.101 N 
HETATM   24  H11 UNL     1      31.148   7.280  49.235  1.00  0.00     0.315 HD
HETATM   25  H12 UNL     1      29.716   6.639  49.974  1.00  0.00     0.315 HD
ENDBRANCH   3  23
BRANCH   1  26
HETATM   26  O1  UNL     1      32.679   4.267  46.500  1.00  0.00    -0.344 OA
BRANCH  26  27
HETATM   27  C3  UNL     1      33.732   3.785  47.284  1.00  0.00     0.124 C 
HETATM   28  C4  UNL     1      34.972   3.482  46.503  1.00  0.00     0.040 C 
BRANCH  27  29
HETATM   29  C2  UNL     1      33.242   2.465  47.894  1.00  0.00     0.027 C 
HETATM   30  C1  UNL     1      32.500   1.721  46.788  1.00  0.00     0.007 C 
ENDBRANCH  27  29
ENDBRANCH  26  27
ENDBRANCH   1  26
TORSDOF 4
ENDMDL
MODEL 5
REMARK VINA RESULT:      -8.3      3.623      5.963
REMARK  4 active torsions:
REMARK  status: ('A' for Active; 'I' for Inactive)
REMARK    1  A    between atoms: C2_2  and  C3_3 
REMARK    2  A    between atoms: C3_3  and  O1_5 
REMARK    3  A    between atoms: O1_5  and  C5_6 
REMARK    4  A    between atoms: C7_8  and  N1_9 
ROOT
HETATM    1  C5  UNL     1      24.086   4.810  49.788  1.00  0.00     0.104 C 
HETATM    2  C6  UNL     1      24.143   3.837  50.680  1.00  0.00     0.064 C 
HETATM    3  C7  UNL     1      23.046   3.778  51.642  1.00  0.00     0.236 A 
HETATM    4  C8  UNL     1      21.915   4.611  51.240  1.00  0.00     0.040 A 
HETATM    5  C9  UNL     1      20.675   4.232  51.620  1.00  0.00     0.101 A 
HETATM    6  N2  UNL     1      20.370   3.057  52.362  1.00  0.00    -0.365 N 
HETATM    7  C10 UNL     1      21.492   2.227  52.689  1.00  0.00     0.043 A 
HETATM    8  C11 UNL     1      21.257   1.053  53.372  1.00  0.00     0.053 A 
HETATM    9  C12 UNL     1      22.332   0.205  53.659  1.00  0.00     0.052 A 
HETATM   10  C13 UNL     1      22.103  -1.028  54.373  1.00  0.00     0.100 C 
HETATM   11  N3  UNL     1      21.933  -2.035  54.954  1.00  0.00    -0.191 NA
HETATM   12  C14 UNL     1      23.638   0.523  53.266  1.00  0.00    -0.041 A 
HETATM   13  C15 UNL     1      24.713  -0.442  53.615  1.00  0.00     0.050 C 
HETATM   14  C16 UNL     1      23.859   1.719  52.573  1.00  0.00     0.021 A 
HETATM   15  C17 UNL     1      22.784   2.531  52.308  1.00  0.00     0.016 A 
HETATM   16  C18 UNL     1      21.915   5.734  50.317  1.00  0.00     0.115 C 
HETATM   17  C19 UNL     1      23.038   5.799  49.565  1.00  0.00     0.136 C 
HETATM   18  O2  UNL     1      23.093   6.823  48.628  1.00  0.00    -0.344 OA
HETATM   19  C20 UNL     1      22.220   7.946  48.708  1.00  0.00     0.202 C 
HETATM   20  C21 UNL     1      20.835   7.426  48.995  1.00  0.00     0.202 C 
HETATM   21  O3  UNL     1      20.887   6.651  50.205  1.00  0.00    -0.345 OA
HETATM   22  H14 UNL     1      19.424   2.803  52.654  1.00  0.00     0.165 HD
ENDROOT
BRANCH   3  23
HETATM   23  N1  UNL     1      23.650   4.692  52.770  1.00  0.00     0.101 N 
HETATM   24  H11 UNL     1      24.671   4.706  52.575  1.00  0.00     0.315 HD
HETATM   25  H12 UNL     1      23.190   5.605  52.653  1.00  0.00     0.315 HD
ENDBRANCH   3  23
BRANCH   1  26
HETATM   26  O1  UNL     1      25.126   4.960  48.848  1.00  0.00    -0.344 OA
BRANCH  26  27
HETATM   27  C3  UNL     1      26.335   5.609  49.123  1.00  0.00     0.124 C 
HETATM   28  C4  UNL     1      26.578   6.813  48.269  1.00  0.00     0.040 C 
BRANCH  27  29
HETATM   29  C2  UNL     1      27.445   4.596  48.812  1.00  0.00     0.027 C 
HETATM   30  C1  UNL     1      28.635   5.398  48.295  1.00  0.00     0.007 C 
ENDBRANCH  27  29
ENDBRANCH  26  27
ENDBRANCH   1  26
TORSDOF 4
ENDMDL
MODEL 6
REMARK VINA RESULT:      -8.2      3.568      6.824
REMARK  4 active torsions:
REMARK  status: ('A' for Active; 'I' for Inactive)
REMARK    1  A    between atoms: C2_2  and  C3_3 
REMARK    2  A    between atoms: C3_3  and  O1_5 
REMARK    3  A    between atoms: O1_5  and  C5_6 
REMARK    4  A    between atoms: C7_8  and  N1_9 
ROOT
HETATM    1  C5  UNL     1      23.250   1.224  52.184  1.00  0.00     0.104 C 
HETATM    2  C6  UNL     1      23.103   2.382  51.565  1.00  0.00     0.064 C 
HETATM    3  C7  UNL     1      24.297   3.219  51.470  1.00  0.00     0.236 A 
HETATM    4  C8  UNL     1      25.515   2.480  51.793  1.00  0.00     0.040 A 
HETATM    5  C9  UNL     1      26.669   2.858  51.198  1.00  0.00     0.101 A 
HETATM    6  N2  UNL     1      26.793   3.909  50.248  1.00  0.00    -0.365 N 
HETATM    7  C10 UNL     1      25.571   4.575  49.904  1.00  0.00     0.043 A 
HETATM    8  C11 UNL     1      25.618   5.577  48.958  1.00  0.00     0.053 A 
HETATM    9  C12 UNL     1      24.431   6.207  48.572  1.00  0.00     0.052 A 
HETATM   10  C13 UNL     1      24.463   7.257  47.583  1.00  0.00     0.100 C 
HETATM   11  N3  UNL     1      24.473   8.114  46.779  1.00  0.00    -0.191 NA
HETATM   12  C14 UNL     1      23.197   5.842  49.126  1.00  0.00    -0.041 A 
HETATM   13  C15 UNL     1      21.991   6.568  48.652  1.00  0.00     0.050 C 
HETATM   14  C16 UNL     1      23.167   4.823  50.086  1.00  0.00     0.021 A 
HETATM   15  C17 UNL     1      24.349   4.225  50.445  1.00  0.00     0.016 A 
HETATM   16  C18 UNL     1      25.639   1.249  52.556  1.00  0.00     0.115 C 
HETATM   17  C19 UNL     1      24.458   0.611  52.724  1.00  0.00     0.136 C 
HETATM   18  O2  UNL     1      24.502  -0.597  53.409  1.00  0.00    -0.344 OA
HETATM   19  C20 UNL     1      25.626  -0.952  54.208  1.00  0.00     0.202 C 
HETATM   20  C21 UNL     1      26.867  -0.629  53.417  1.00  0.00     0.202 C 
HETATM   21  O3  UNL     1      26.828   0.765  53.068  1.00  0.00    -0.345 OA
HETATM   22  H14 UNL     1      27.681   4.188  49.827  1.00  0.00     0.165 HD
ENDROOT
BRANCH   3  23
HETATM   23  N1  UNL     1      24.135   4.040  52.801  1.00  0.00     0.101 N 
HETATM   24  H11 UNL     1      24.083   5.031  52.490  1.00  0.00     0.315 HD
HETATM   25  H12 UNL     1      23.267   3.691  53.230  1.00  0.00     0.315 HD
ENDBRANCH   3  23
BRANCH   1  26
HETATM   26  O1  UNL     1      22.137   0.374  52.352  1.00  0.00    -0.344 OA
BRANCH  26  27
HETATM   27  C3  UNL     1      21.081   0.641  53.231  1.00  0.00     0.124 C 
HETATM   28  C4  UNL     1      21.236  -0.010  54.570  1.00  0.00     0.040 C 
BRANCH  27  29
HETATM   29  C2  UNL     1      19.823   0.052  52.579  1.00  0.00     0.027 C 
HETATM   30  C1  UNL     1      19.767   0.607  51.159  1.00  0.00     0.007 C 
ENDBRANCH  27  29
ENDBRANCH  26  27
ENDBRANCH   1  26
TORSDOF 4
ENDMDL
MODEL 7
REMARK VINA RESULT:      -7.8      2.904      4.525
REMARK  4 active torsions:
REMARK  status: ('A' for Active; 'I' for Inactive)
REMARK    1  A    between atoms: C2_2  and  C3_3 
REMARK    2  A    between atoms: C3_3  and  O1_5 
REMARK    3  A    between atoms: O1_5  and  C5_6 
REMARK    4  A    between atoms: C7_8  and  N1_9 
ROOT
HETATM    1  C5  UNL     1      21.226   1.654  51.766  1.00  0.00     0.104 C 
HETATM    2  C6  UNL     1      22.065   2.548  51.272  1.00  0.00     0.064 C 
HETATM    3  C7  UNL     1      23.438   2.486  51.766  1.00  0.00     0.236 A 
HETATM    4  C8  UNL     1      23.713   1.238  52.474  1.00  0.00     0.040 A 
HETATM    5  C9  UNL     1      24.975   0.753  52.448  1.00  0.00     0.101 A 
HETATM    6  N2  UNL     1      26.065   1.346  51.753  1.00  0.00    -0.365 N 
HETATM    7  C10 UNL     1      25.752   2.535  51.016  1.00  0.00     0.043 A 
HETATM    8  C11 UNL     1      26.757   3.136  50.288  1.00  0.00     0.053 A 
HETATM    9  C12 UNL     1      26.461   4.268  49.523  1.00  0.00     0.052 A 
HETATM   10  C13 UNL     1      27.502   4.908  48.756  1.00  0.00     0.100 C 
HETATM   11  N3  UNL     1      28.339   5.441  48.126  1.00  0.00    -0.191 NA
HETATM   12  C14 UNL     1      25.168   4.804  49.482  1.00  0.00    -0.041 A 
HETATM   13  C15 UNL     1      24.952   6.009  48.639  1.00  0.00     0.050 C 
HETATM   14  C16 UNL     1      24.159   4.183  50.227  1.00  0.00     0.021 A 
HETATM   15  C17 UNL     1      24.480   3.073  50.968  1.00  0.00     0.016 A 
HETATM   16  C18 UNL     1      22.760   0.325  53.081  1.00  0.00     0.115 C 
HETATM   17  C19 UNL     1      21.487   0.549  52.680  1.00  0.00     0.136 C 
HETATM   18  O2  UNL     1      20.521  -0.313  53.186  1.00  0.00    -0.344 OA
HETATM   19  C20 UNL     1      20.779  -1.121  54.330  1.00  0.00     0.202 C 
HETATM   20  C21 UNL     1      22.144  -1.735  54.156  1.00  0.00     0.202 C 
HETATM   21  O3  UNL     1      23.096  -0.672  53.977  1.00  0.00    -0.345 OA
HETATM   22  H14 UNL     1      27.015   0.969  51.765  1.00  0.00     0.165 HD
ENDROOT
BRANCH   3  23
HETATM   23  N1  UNL     1      23.308   3.456  52.996  1.00  0.00     0.101 N 
HETATM   24  H11 UNL     1      24.140   3.245  53.583  1.00  0.00     0.315 HD
HETATM   25  H12 UNL     1      23.311   4.404  52.594  1.00  0.00     0.315 HD
ENDBRANCH   3  23
BRANCH   1  26
HETATM   26  O1  UNL     1      19.873   1.671  51.370  1.00  0.00    -0.344 OA
BRANCH  26  27
HETATM   27  C3  UNL     1      19.418   1.196  50.135  1.00  0.00     0.124 C 
HETATM   28  C4  UNL     1      18.891   2.269  49.236  1.00  0.00     0.040 C 
BRANCH  27  29
HETATM   29  C2  UNL     1      18.254   0.245  50.444  1.00  0.00     0.027 C 
HETATM   30  C1  UNL     1      17.368   0.957  51.461  1.00  0.00     0.007 C 
ENDBRANCH  27  29
ENDBRANCH  26  27
ENDBRANCH   1  26
TORSDOF 4
ENDMDL
MODEL 8
REMARK VINA RESULT:      -7.6      8.743     12.469
REMARK  4 active torsions:
REMARK  status: ('A' for Active; 'I' for Inactive)
REMARK    1  A    between atoms: C2_2  and  C3_3 
REMARK    2  A    between atoms: C3_3  and  O1_5 
REMARK    3  A    between atoms: O1_5  and  C5_6 
REMARK    4  A    between atoms: C7_8  and  N1_9 
ROOT
HETATM    1  C5  UNL     1      31.150   7.035  46.674  1.00  0.00     0.104 C 
HETATM    2  C6  UNL     1      30.204   6.413  47.355  1.00  0.00     0.064 C 
HETATM    3  C7  UNL     1      29.098   7.241  47.827  1.00  0.00     0.236 A 
HETATM    4  C8  UNL     1      29.075   8.550  47.179  1.00  0.00     0.040 A 
HETATM    5  C9  UNL     1      27.880   9.161  47.013  1.00  0.00     0.101 A 
HETATM    6  N2  UNL     1      26.623   8.614  47.392  1.00  0.00    -0.365 N 
HETATM    7  C10 UNL     1      26.671   7.303  47.968  1.00  0.00     0.043 A 
HETATM    8  C11 UNL     1      25.481   6.701  48.320  1.00  0.00     0.053 A 
HETATM    9  C12 UNL     1      25.501   5.402  48.839  1.00  0.00     0.052 A 
HETATM   10  C13 UNL     1      24.265   4.759  49.211  1.00  0.00     0.100 C 
HETATM   11  N3  UNL     1      23.266   4.221  49.520  1.00  0.00    -0.191 NA
HETATM   12  C14 UNL     1      26.702   4.702  49.007  1.00  0.00    -0.041 A 
HETATM   13  C15 UNL     1      26.621   3.327  49.565  1.00  0.00     0.050 C 
HETATM   14  C16 UNL     1      27.901   5.327  48.645  1.00  0.00     0.021 A 
HETATM   15  C17 UNL     1      27.849   6.603  48.141  1.00  0.00     0.016 A 
HETATM   16  C18 UNL     1      30.168   9.239  46.514  1.00  0.00     0.115 C 
HETATM   17  C19 UNL     1      31.217   8.427  46.245  1.00  0.00     0.136 C 
HETATM   18  O2  UNL     1      32.286   9.004  45.571  1.00  0.00    -0.344 OA
HETATM   19  C20 UNL     1      32.442  10.419  45.507  1.00  0.00     0.202 C 
HETATM   20  C21 UNL     1      31.095  11.011  45.180  1.00  0.00     0.202 C 
HETATM   21  O3  UNL     1      30.159  10.581  46.183  1.00  0.00    -0.345 OA
HETATM   22  H14 UNL     1      25.735   9.105  47.273  1.00  0.00     0.165 HD
ENDROOT
BRANCH   3  23
HETATM   23  N1  UNL     1      29.674   7.658  49.229  1.00  0.00     0.101 N 
HETATM   24  H11 UNL     1      29.099   8.476  49.514  1.00  0.00     0.315 HD
HETATM   25  H12 UNL     1      29.550   6.831  49.829  1.00  0.00     0.315 HD
ENDBRANCH   3  23
BRANCH   1  26
HETATM   26  O1  UNL     1      32.273   6.314  46.216  1.00  0.00    -0.344 OA
BRANCH  26  27
HETATM   27  C3  UNL     1      32.780   5.177  46.855  1.00  0.00     0.124 C 
HETATM   28  C4  UNL     1      34.227   5.287  47.217  1.00  0.00     0.040 C 
BRANCH  27  29
HETATM   29  C2  UNL     1      32.646   4.026  45.850  1.00  0.00     0.027 C 
HETATM   30  C1  UNL     1      31.974   2.874  46.591  1.00  0.00     0.007 C 
ENDBRANCH  27  29
ENDBRANCH  26  27
ENDBRANCH   1  26
TORSDOF 4
ENDMDL
MODEL 9
REMARK VINA RESULT:      -7.6      3.037      6.502
REMARK  4 active torsions:
REMARK  status: ('A' for Active; 'I' for Inactive)
REMARK    1  A    between atoms: C2_2  and  C3_3 
REMARK    2  A    between atoms: C3_3  and  O1_5 
REMARK    3  A    between atoms: O1_5  and  C5_6 
REMARK    4  A    between atoms: C7_8  and  N1_9 
ROOT
HETATM    1  C5  UNL     1      23.124   2.066  52.473  1.00  0.00     0.104 C 
HETATM    2  C6  UNL     1      21.889   1.768  52.109  1.00  0.00     0.064 C 
HETATM    3  C7  UNL     1      21.446   0.404  52.387  1.00  0.00     0.236 A 
HETATM    4  C8  UNL     1      22.340  -0.289  53.311  1.00  0.00     0.040 A 
HETATM    5  C9  UNL     1      21.815  -1.236  54.119  1.00  0.00     0.101 A 
HETATM    6  N2  UNL     1      20.440  -1.599  54.169  1.00  0.00    -0.365 N 
HETATM    7  C10 UNL     1      19.577  -0.859  53.296  1.00  0.00     0.043 A 
HETATM    8  C11 UNL     1      18.226  -1.136  53.326  1.00  0.00     0.053 A 
HETATM    9  C12 UNL     1      17.360  -0.393  52.519  1.00  0.00     0.052 A 
HETATM   10  C13 UNL     1      15.944  -0.670  52.539  1.00  0.00     0.100 C 
HETATM   11  N3  UNL     1      14.789  -0.883  52.545  1.00  0.00    -0.191 NA
HETATM   12  C14 UNL     1      17.835   0.624  51.681  1.00  0.00    -0.041 A 
HETATM   13  C15 UNL     1      16.837   1.359  50.861  1.00  0.00     0.050 C 
HETATM   14  C16 UNL     1      19.209   0.892  51.661  1.00  0.00     0.021 A 
HETATM   15  C17 UNL     1      20.034   0.145  52.465  1.00  0.00     0.016 A 
HETATM   16  C18 UNL     1      23.727   0.022  53.616  1.00  0.00     0.115 C 
HETATM   17  C19 UNL     1      24.097   1.252  53.191  1.00  0.00     0.136 C 
HETATM   18  O2  UNL     1      25.399   1.638  53.484  1.00  0.00    -0.344 OA
HETATM   19  C20 UNL     1      26.388   0.682  53.856  1.00  0.00     0.202 C 
HETATM   20  C21 UNL     1      25.764  -0.250  54.863  1.00  0.00     0.202 C 
HETATM   21  O3  UNL     1      24.593  -0.835  54.268  1.00  0.00    -0.345 OA
HETATM   22  H14 UNL     1      20.072  -2.333  54.777  1.00  0.00     0.165 HD
ENDROOT
BRANCH   3  23
HETATM   23  N1  UNL     1      21.884  -0.282  51.042  1.00  0.00     0.101 N 
HETATM   24  H11 UNL     1      21.660  -1.288  51.178  1.00  0.00     0.315 HD
HETATM   25  H12 UNL     1      21.323   0.175  50.310  1.00  0.00     0.315 HD
ENDBRANCH   3  23
BRANCH   1  26
HETATM   26  O1  UNL     1      23.642   3.350  52.205  1.00  0.00    -0.344 OA
BRANCH  26  27
HETATM   27  C3  UNL     1      23.761   3.888  50.919  1.00  0.00     0.124 C 
HETATM   28  C4  UNL     1      25.124   3.724  50.324  1.00  0.00     0.040 C 
BRANCH  27  29
HETATM   29  C2  UNL     1      23.501   5.393  51.059  1.00  0.00     0.027 C 
HETATM   30  C1  UNL     1      22.055   5.545  51.521  1.00  0.00     0.007 C 
ENDBRANCH  27  29
ENDBRANCH  26  27
ENDBRANCH   1  26
TORSDOF 4
ENDMDL
