MODEL 1
REMARK VINA RESULT:      -7.2      0.000      0.000
REMARK  7 active torsions:
REMARK  status: ('A' for Active; 'I' for Inactive)
REMARK    1  A    between atoms: O1_1  and  C1_2 
REMARK    2  A    between atoms: C1_2  and  C2_3 
REMARK    3  A    between atoms: C2_3  and  N1_4 
REMARK    4  A    between atoms: N2_7  and  C5_8 
REMARK    5  A    between atoms: C7_10  and  N3_11 
REMARK    6  A    between atoms: N3_11  and  C8_12 
REMARK    7  A    between atoms: C10_15  and  C11_16 
ROOT
HETATM    1  N3  UNL     1      20.932  -1.173  54.432  1.00  0.00    -0.337 N 
HETATM    2  H12 UNL     1      20.422  -1.886  54.957  1.00  0.00     0.168 HD
ENDROOT
BRANCH   1   3
HETATM    3  C7  UNL     1      20.356  -0.286  53.451  1.00  0.00     0.047 A 
HETATM    4  C5  UNL     1      20.039   1.057  52.898  1.00  0.00     0.297 A 
HETATM    5  C6  UNL     1      19.653  -0.200  52.258  1.00  0.00     0.042 A 
BRANCH   4   6
HETATM    6  N2  UNL     1      21.064   1.860  52.293  1.00  0.00     0.105 N 
HETATM    7  C4  UNL     1      21.344   1.557  50.919  1.00  0.00     0.304 C 
HETATM    8  C3  UNL     1      21.438   2.779  50.050  1.00  0.00     0.302 C 
HETATM    9  N1  UNL     1      22.270   3.826  50.613  1.00  0.00     0.093 N 
HETATM   10  C17 UNL     1      22.124   3.965  52.031  1.00  0.00     0.302 C 
HETATM   11  C16 UNL     1      20.808   3.279  52.420  1.00  0.00     0.304 C 
BRANCH   9  12
HETATM   12  C2  UNL     1      23.610   3.627  50.154  1.00  0.00     0.298 C 
BRANCH  12  13
HETATM   13  C1  UNL     1      24.677   3.970  51.145  1.00  0.00     0.194 C 
BRANCH  13  14
HETATM   14  O1  UNL     1      25.727   4.702  50.652  1.00  0.00    -0.399 OA
HETATM   15  H1  UNL     1      25.823   5.616  51.017  1.00  0.00     0.209 HD
ENDBRANCH  13  14
ENDBRANCH  12  13
ENDBRANCH   9  12
ENDBRANCH   4   6
ENDBRANCH   1   3
BRANCH   1  16
HETATM   16  C8  UNL     1      22.316  -1.140  54.779  1.00  0.00     0.171 A 
HETATM   17  N4  UNL     1      23.048  -1.507  55.679  1.00  0.00    -0.235 NA
HETATM   18  C9  UNL     1      24.349  -1.304  55.687  1.00  0.00     0.136 A 
HETATM   19  C10 UNL     1      24.951  -0.660  54.661  1.00  0.00     0.032 A 
HETATM   20  S1  UNL     1      23.521  -0.331  53.626  1.00  0.00    -0.053 SA
BRANCH  19  21
HETATM   21  C11 UNL     1      26.277  -0.235  54.256  1.00  0.00     0.167 A 
HETATM   22  N5  UNL     1      26.441   1.202  54.475  1.00  0.00    -0.385 N 
HETATM   23  C12 UNL     1      26.857   2.166  53.510  1.00  0.00     0.084 A 
HETATM   24  H15 UNL     1      26.229   1.549  55.447  1.00  0.00     0.160 HD
HETATM   25  C13 UNL     1      27.119   1.723  52.298  1.00  0.00     0.018 A 
HETATM   26  C14 UNL     1      26.996   0.308  51.940  1.00  0.00     0.023 A 
HETATM   27  C15 UNL     1      26.605  -0.565  52.871  1.00  0.00     0.039 A 
HETATM   28 CL1  UNL     1      26.490  -2.224  52.340  1.00  0.00    -0.086 Cl
ENDBRANCH  19  21
ENDBRANCH   1  16
TORSDOF 7
ENDMDL
MODEL 2
REMARK VINA RESULT:      -6.9      4.076      5.818
REMARK  7 active torsions:
REMARK  status: ('A' for Active; 'I' for Inactive)
REMARK    1  A    between atoms: O1_1  and  C1_2 
REMARK    2  A    between atoms: C1_2  and  C2_3 
REMARK    3  A    between atoms: C2_3  and  N1_4 
REMARK    4  A    between atoms: N2_7  and  C5_8 
REMARK    5  A    between atoms: C7_10  and  N3_11 
REMARK    6  A    between atoms: N3_11  and  C8_12 
REMARK    7  A    between atoms: C10_15  and  C11_16 
ROOT
HETATM    1  N3  UNL     1      24.399   4.104  51.700  1.00  0.00    -0.337 N 
HETATM    2  H12 UNL     1      23.888   4.767  52.285  1.00  0.00     0.168 HD
ENDROOT
BRANCH   1   3
HETATM    3  C7  UNL     1      24.934   4.385  50.390  1.00  0.00     0.047 A 
HETATM    4  C5  UNL     1      25.231   5.280  49.241  1.00  0.00     0.297 A 
HETATM    5  C6  UNL     1      25.591   3.863  49.285  1.00  0.00     0.042 A 
BRANCH   4   6
HETATM    6  N2  UNL     1      26.271   6.265  49.330  1.00  0.00     0.105 N 
HETATM    7  C4  UNL     1      27.359   6.089  48.413  1.00  0.00     0.304 C 
HETATM    8  C3  UNL     1      27.758   7.358  47.716  1.00  0.00     0.302 C 
HETATM    9  N1  UNL     1      27.911   8.487  48.614  1.00  0.00     0.093 N 
HETATM   10  C17 UNL     1      26.928   8.521  49.655  1.00  0.00     0.302 C 
HETATM   11  C16 UNL     1      25.769   7.617  49.212  1.00  0.00     0.304 C 
BRANCH   9  12
HETATM   12  C2  UNL     1      29.271   8.525  49.057  1.00  0.00     0.298 C 
BRANCH  12  13
HETATM   13  C1  UNL     1      29.808   9.893  49.338  1.00  0.00     0.194 C 
BRANCH  13  14
HETATM   14  O1  UNL     1      30.678   9.979  50.395  1.00  0.00    -0.399 OA
HETATM   15  H1  UNL     1      30.505   9.360  51.146  1.00  0.00     0.209 HD
ENDBRANCH  13  14
ENDBRANCH  12  13
ENDBRANCH   9  12
ENDBRANCH   4   6
ENDBRANCH   1   3
BRANCH   1  16
HETATM   16  C8  UNL     1      24.536   2.829  52.328  1.00  0.00     0.171 A 
HETATM   17  N4  UNL     1      23.842   1.883  52.648  1.00  0.00    -0.235 NA
HETATM   18  C9  UNL     1      24.311   0.806  53.244  1.00  0.00     0.136 A 
HETATM   19  C10 UNL     1      25.628   0.700  53.536  1.00  0.00     0.032 A 
HETATM   20  S1  UNL     1      26.210   2.275  52.898  1.00  0.00    -0.053 SA
BRANCH  19  21
HETATM   21  C11 UNL     1      26.545  -0.241  54.148  1.00  0.00     0.167 A 
HETATM   22  N5  UNL     1      27.482   0.458  55.027  1.00  0.00    -0.385 N 
HETATM   23  C12 UNL     1      28.906   0.382  54.983  1.00  0.00     0.084 A 
HETATM   24  H15 UNL     1      27.053   1.077  55.763  1.00  0.00     0.160 HD
HETATM   25  C13 UNL     1      29.434  -0.394  54.059  1.00  0.00     0.018 A 
HETATM   26  C14 UNL     1      28.613  -1.152  53.112  1.00  0.00     0.023 A 
HETATM   27  C15 UNL     1      27.284  -1.056  53.185  1.00  0.00     0.039 A 
HETATM   28 CL1  UNL     1      26.400  -1.999  52.012  1.00  0.00    -0.086 Cl
ENDBRANCH  19  21
ENDBRANCH   1  16
TORSDOF 7
ENDMDL
MODEL 3
REMARK VINA RESULT:      -6.9      1.745      1.990
REMARK  7 active torsions:
REMARK  status: ('A' for Active; 'I' for Inactive)
REMARK    1  A    between atoms: O1_1  and  C1_2 
REMARK    2  A    between atoms: C1_2  and  C2_3 
REMARK    3  A    between atoms: C2_3  and  N1_4 
REMARK    4  A    between atoms: N2_7  and  C5_8 
REMARK    5  A    between atoms: C7_10  and  N3_11 
REMARK    6  A    between atoms: N3_11  and  C8_12 
REMARK    7  A    between atoms: C10_15  and  C11_16 
ROOT
HETATM    1  N3  UNL     1      21.768  -0.467  54.478  1.00  0.00    -0.337 N 
HETATM    2  H12 UNL     1      21.321  -0.907  55.285  1.00  0.00     0.168 HD
ENDROOT
BRANCH   1   3
HETATM    3  C7  UNL     1      21.081   0.247  53.428  1.00  0.00     0.047 A 
HETATM    4  C5  UNL     1      20.606   1.483  52.755  1.00  0.00     0.297 A 
HETATM    5  C6  UNL     1      20.355   0.133  52.252  1.00  0.00     0.042 A 
BRANCH   4   6
HETATM    6  N2  UNL     1      21.524   2.330  52.046  1.00  0.00     0.105 N 
HETATM    7  C4  UNL     1      21.599   2.101  50.633  1.00  0.00     0.304 C 
HETATM    8  C3  UNL     1      21.555   3.366  49.824  1.00  0.00     0.302 C 
HETATM    9  N1  UNL     1      22.455   4.394  50.311  1.00  0.00     0.093 N 
HETATM   10  C17 UNL     1      22.521   4.460  51.741  1.00  0.00     0.302 C 
HETATM   11  C16 UNL     1      21.282   3.737  52.285  1.00  0.00     0.304 C 
BRANCH   9  12
HETATM   12  C2  UNL     1      23.713   4.237  49.648  1.00  0.00     0.298 C 
BRANCH  12  13
HETATM   13  C1  UNL     1      24.897   4.118  50.556  1.00  0.00     0.194 C 
BRANCH  13  14
HETATM   14  O1  UNL     1      25.783   5.164  50.510  1.00  0.00    -0.399 OA
HETATM   15  H1  UNL     1      25.437   6.004  50.120  1.00  0.00     0.209 HD
ENDBRANCH  13  14
ENDBRANCH  12  13
ENDBRANCH   9  12
ENDBRANCH   4   6
ENDBRANCH   1   3
BRANCH   1  16
HETATM   16  C8  UNL     1      23.185  -0.635  54.492  1.00  0.00     0.171 A 
HETATM   17  N4  UNL     1      24.057  -1.033  55.242  1.00  0.00    -0.235 NA
HETATM   18  C9  UNL     1      25.335  -1.052  54.926  1.00  0.00     0.136 A 
HETATM   19  C10 UNL     1      25.751  -0.617  53.714  1.00  0.00     0.032 A 
HETATM   20  S1  UNL     1      24.170  -0.152  52.998  1.00  0.00    -0.053 SA
BRANCH  19  21
HETATM   21  C11 UNL     1      26.983  -0.461  52.965  1.00  0.00     0.167 A 
HETATM   22  N5  UNL     1      27.727  -1.720  52.939  1.00  0.00    -0.385 N 
HETATM   23  C12 UNL     1      29.085  -1.912  53.330  1.00  0.00     0.084 A 
HETATM   24  H15 UNL     1      27.198  -2.563  52.596  1.00  0.00     0.160 HD
HETATM   25  C13 UNL     1      29.738  -0.852  53.758  1.00  0.00     0.018 A 
HETATM   26  C14 UNL     1      29.115   0.472  53.837  1.00  0.00     0.023 A 
HETATM   27  C15 UNL     1      27.842   0.612  53.462  1.00  0.00     0.039 A 
HETATM   28 CL1  UNL     1      27.197   2.228  53.594  1.00  0.00    -0.086 Cl
ENDBRANCH  19  21
ENDBRANCH   1  16
TORSDOF 7
ENDMDL
MODEL 4
REMARK VINA RESULT:      -6.9      2.500      4.777
REMARK  7 active torsions:
REMARK  status: ('A' for Active; 'I' for Inactive)
REMARK    1  A    between atoms: O1_1  and  C1_2 
REMARK    2  A    between atoms: C1_2  and  C2_3 
REMARK    3  A    between atoms: C2_3  and  N1_4 
REMARK    4  A    between atoms: N2_7  and  C5_8 
REMARK    5  A    between atoms: C7_10  and  N3_11 
REMARK    6  A    between atoms: N3_11  and  C8_12 
REMARK    7  A    between atoms: C10_15  and  C11_16 
ROOT
HETATM    1  N3  UNL     1      23.691   4.427  50.260  1.00  0.00    -0.337 N 
HETATM    2  H12 UNL     1      23.990   5.171  49.626  1.00  0.00     0.168 HD
ENDROOT
BRANCH   1   3
HETATM    3  C7  UNL     1      22.324   4.127  50.610  1.00  0.00     0.047 A 
HETATM    4  C5  UNL     1      21.133   3.240  50.671  1.00  0.00     0.297 A 
HETATM    5  C6  UNL     1      21.160   4.605  51.194  1.00  0.00     0.042 A 
BRANCH   4   6
HETATM    6  N2  UNL     1      21.086   2.142  51.595  1.00  0.00     0.105 N 
HETATM    7  C4  UNL     1      19.825   1.948  52.249  1.00  0.00     0.304 C 
HETATM    8  C3  UNL     1      19.376   0.514  52.258  1.00  0.00     0.302 C 
HETATM    9  N1  UNL     1      20.412  -0.413  52.672  1.00  0.00     0.093 N 
HETATM   10  C17 UNL     1      21.711  -0.073  52.172  1.00  0.00     0.302 C 
HETATM   11  C16 UNL     1      21.505   0.892  50.996  1.00  0.00     0.304 C 
BRANCH   9  12
HETATM   12  C2  UNL     1      20.327  -0.574  54.091  1.00  0.00     0.298 C 
BRANCH  12  13
HETATM   13  C1  UNL     1      21.641  -0.709  54.793  1.00  0.00     0.194 C 
BRANCH  13  14
HETATM   14  O1  UNL     1      21.952  -1.974  55.225  1.00  0.00    -0.399 OA
HETATM   15  H1  UNL     1      22.818  -2.067  55.693  1.00  0.00     0.209 HD
ENDBRANCH  13  14
ENDBRANCH  12  13
ENDBRANCH   9  12
ENDBRANCH   4   6
ENDBRANCH   1   3
BRANCH   1  16
HETATM   16  C8  UNL     1      24.797   3.691  50.783  1.00  0.00     0.171 A 
HETATM   17  N4  UNL     1      25.907   3.332  50.439  1.00  0.00    -0.235 NA
HETATM   18  C9  UNL     1      26.712   2.625  51.205  1.00  0.00     0.136 A 
HETATM   19  C10 UNL     1      26.329   2.255  52.449  1.00  0.00     0.032 A 
HETATM   20  S1  UNL     1      24.690   2.988  52.494  1.00  0.00    -0.053 SA
BRANCH  19  21
HETATM   21  C11 UNL     1      26.848   1.519  53.586  1.00  0.00     0.167 A 
HETATM   22  N5  UNL     1      28.092   2.124  54.060  1.00  0.00    -0.385 N 
HETATM   23  C12 UNL     1      29.341   1.461  54.249  1.00  0.00     0.084 A 
HETATM   24  H15 UNL     1      28.052   3.153  54.281  1.00  0.00     0.160 HD
HETATM   25  C13 UNL     1      29.382   0.175  53.969  1.00  0.00     0.018 A 
HETATM   26  C14 UNL     1      28.210  -0.557  53.485  1.00  0.00     0.023 A 
HETATM   27  C15 UNL     1      27.059   0.097  53.321  1.00  0.00     0.039 A 
HETATM   28 CL1  UNL     1      25.725  -0.868  52.740  1.00  0.00    -0.086 Cl
ENDBRANCH  19  21
ENDBRANCH   1  16
TORSDOF 7
ENDMDL
MODEL 5
REMARK VINA RESULT:      -6.7      2.969      4.379
REMARK  7 active torsions:
REMARK  status: ('A' for Active; 'I' for Inactive)
REMARK    1  A    between atoms: O1_1  and  C1_2 
REMARK    2  A    between atoms: C1_2  and  C2_3 
REMARK    3  A    between atoms: C2_3  and  N1_4 
REMARK    4  A    between atoms: N2_7  and  C5_8 
REMARK    5  A    between atoms: C7_10  and  N3_11 
REMARK    6  A    between atoms: N3_11  and  C8_12 
REMARK    7  A    between atoms: C10_15  and  C11_16 
ROOT
HETATM    1  N3  UNL     1      23.119   3.080  52.062  1.00  0.00    -0.337 N 
HETATM    2  H12 UNL     1      22.586   3.614  52.752  1.00  0.00     0.168 HD
ENDROOT
BRANCH   1   3
HETATM    3  C7  UNL     1      23.267   3.428  50.669  1.00  0.00     0.047 A 
HETATM    4  C5  UNL     1      23.164   4.359  49.515  1.00  0.00     0.297 A 
HETATM    5  C6  UNL     1      23.667   2.989  49.415  1.00  0.00     0.042 A 
BRANCH   4   6
HETATM    6  N2  UNL     1      24.086   5.451  49.371  1.00  0.00     0.105 N 
HETATM    7  C4  UNL     1      23.695   6.669  50.017  1.00  0.00     0.304 C 
HETATM    8  C3  UNL     1      24.803   7.305  50.806  1.00  0.00     0.302 C 
HETATM    9  N1  UNL     1      26.055   7.391  50.078  1.00  0.00     0.093 N 
HETATM   10  C17 UNL     1      26.321   6.238  49.270  1.00  0.00     0.302 C 
HETATM   11  C16 UNL     1      25.428   5.104  49.791  1.00  0.00     0.304 C 
BRANCH   9  12
HETATM   12  C2  UNL     1      26.085   8.642  49.385  1.00  0.00     0.298 C 
BRANCH  12  13
HETATM   13  C1  UNL     1      27.107   9.616  49.881  1.00  0.00     0.194 C 
BRANCH  13  14
HETATM   14  O1  UNL     1      27.563   9.396  51.156  1.00  0.00    -0.399 OA
HETATM   15  H1  UNL     1      27.426  10.137  51.795  1.00  0.00     0.209 HD
ENDBRANCH  13  14
ENDBRANCH  12  13
ENDBRANCH   9  12
ENDBRANCH   4   6
ENDBRANCH   1   3
BRANCH   1  16
HETATM   16  C8  UNL     1      23.722   1.918  52.631  1.00  0.00     0.171 A 
HETATM   17  N4  UNL     1      23.422   0.776  52.922  1.00  0.00    -0.235 NA
HETATM   18  C9  UNL     1      24.263  -0.082  53.462  1.00  0.00     0.136 A 
HETATM   19  C10 UNL     1      25.540   0.280  53.725  1.00  0.00     0.032 A 
HETATM   20  S1  UNL     1      25.501   1.980  53.146  1.00  0.00    -0.053 SA
BRANCH  19  21
HETATM   21  C11 UNL     1      26.753  -0.290  54.279  1.00  0.00     0.167 A 
HETATM   22  N5  UNL     1      27.559   0.748  54.920  1.00  0.00    -0.385 N 
HETATM   23  C12 UNL     1      28.930   1.041  54.660  1.00  0.00     0.084 A 
HETATM   24  H15 UNL     1      27.068   1.333  55.646  1.00  0.00     0.160 HD
HETATM   25  C13 UNL     1      29.535   0.306  53.750  1.00  0.00     0.018 A 
HETATM   26  C14 UNL     1      28.847  -0.768  53.029  1.00  0.00     0.023 A 
HETATM   27  C15 UNL     1      27.564  -1.013  53.301  1.00  0.00     0.039 A 
HETATM   28 CL1  UNL     1      26.840  -2.313  52.388  1.00  0.00    -0.086 Cl
ENDBRANCH  19  21
ENDBRANCH   1  16
TORSDOF 7
ENDMDL
MODEL 6
REMARK VINA RESULT:      -6.6      3.281      6.339
REMARK  7 active torsions:
REMARK  status: ('A' for Active; 'I' for Inactive)
REMARK    1  A    between atoms: O1_1  and  C1_2 
REMARK    2  A    between atoms: C1_2  and  C2_3 
REMARK    3  A    between atoms: C2_3  and  N1_4 
REMARK    4  A    between atoms: N2_7  and  C5_8 
REMARK    5  A    between atoms: C7_10  and  N3_11 
REMARK    6  A    between atoms: N3_11  and  C8_12 
REMARK    7  A    between atoms: C10_15  and  C11_16 
ROOT
HETATM    1  N3  UNL     1      21.520   2.657  51.971  1.00  0.00    -0.337 N 
HETATM    2  H12 UNL     1      20.558   2.989  52.070  1.00  0.00     0.168 HD
ENDROOT
BRANCH   1   3
HETATM    3  C7  UNL     1      22.063   1.472  52.591  1.00  0.00     0.047 A 
HETATM    4  C5  UNL     1      23.026   0.344  52.682  1.00  0.00     0.297 A 
HETATM    5  C6  UNL     1      21.952   0.578  53.646  1.00  0.00     0.042 A 
BRANCH   4   6
HETATM    6  N2  UNL     1      24.385   0.573  53.085  1.00  0.00     0.105 N 
HETATM    7  C4  UNL     1      24.990  -0.495  53.826  1.00  0.00     0.304 C 
HETATM    8  C3  UNL     1      26.371  -0.841  53.347  1.00  0.00     0.302 C 
HETATM    9  N1  UNL     1      27.225   0.316  53.162  1.00  0.00     0.093 N 
HETATM   10  C17 UNL     1      26.539   1.446  52.611  1.00  0.00     0.302 C 
HETATM   11  C16 UNL     1      25.244   0.923  51.974  1.00  0.00     0.304 C 
BRANCH   9  12
HETATM   12  C2  UNL     1      27.917   0.561  54.390  1.00  0.00     0.298 C 
BRANCH  12  13
HETATM   13  C1  UNL     1      29.311   1.084  54.238  1.00  0.00     0.194 C 
BRANCH  13  14
HETATM   14  O1  UNL     1      29.498   2.387  54.624  1.00  0.00    -0.399 OA
HETATM   15  H1  UNL     1      30.195   2.886  54.130  1.00  0.00     0.209 HD
ENDBRANCH  13  14
ENDBRANCH  12  13
ENDBRANCH   9  12
ENDBRANCH   4   6
ENDBRANCH   1   3
BRANCH   1  16
HETATM   16  C8  UNL     1      22.297   3.509  51.131  1.00  0.00     0.171 A 
HETATM   17  N4  UNL     1      22.346   3.856  49.966  1.00  0.00    -0.235 NA
HETATM   18  C9  UNL     1      23.238   4.703  49.496  1.00  0.00     0.136 A 
HETATM   19  C10 UNL     1      24.171   5.244  50.314  1.00  0.00     0.032 A 
HETATM   20  S1  UNL     1      23.709   4.461  51.863  1.00  0.00    -0.053 SA
BRANCH  19  21
HETATM   21  C11 UNL     1      25.286   6.168  50.250  1.00  0.00     0.167 A 
HETATM   22  N5  UNL     1      24.804   7.542  50.114  1.00  0.00    -0.385 N 
HETATM   23  C12 UNL     1      25.180   8.479  49.107  1.00  0.00     0.084 A 
HETATM   24  H15 UNL     1      24.109   7.862  50.838  1.00  0.00     0.160 HD
HETATM   25  C13 UNL     1      26.049   8.070  48.206  1.00  0.00     0.018 A 
HETATM   26  C14 UNL     1      26.614   6.718  48.222  1.00  0.00     0.023 A 
HETATM   27  C15 UNL     1      26.237   5.870  49.180  1.00  0.00     0.039 A 
HETATM   28 CL1  UNL     1      26.969   4.287  49.108  1.00  0.00    -0.086 Cl
ENDBRANCH  19  21
ENDBRANCH   1  16
TORSDOF 7
ENDMDL
MODEL 7
REMARK VINA RESULT:      -6.6      7.091     10.228
REMARK  7 active torsions:
REMARK  status: ('A' for Active; 'I' for Inactive)
REMARK    1  A    between atoms: O1_1  and  C1_2 
REMARK    2  A    between atoms: C1_2  and  C2_3 
REMARK    3  A    between atoms: C2_3  and  N1_4 
REMARK    4  A    between atoms: N2_7  and  C5_8 
REMARK    5  A    between atoms: C7_10  and  N3_11 
REMARK    6  A    between atoms: N3_11  and  C8_12 
REMARK    7  A    between atoms: C10_15  and  C11_16 
ROOT
HETATM    1  N3  UNL     1      28.546   6.296  47.905  1.00  0.00    -0.337 N 
HETATM    2  H12 UNL     1      28.068   6.805  47.158  1.00  0.00     0.168 HD
ENDROOT
BRANCH   1   3
HETATM    3  C7  UNL     1      29.929   6.466  48.280  1.00  0.00     0.047 A 
HETATM    4  C5  UNL     1      31.277   5.959  48.646  1.00  0.00     0.297 A 
HETATM    5  C6  UNL     1      30.939   7.379  48.549  1.00  0.00     0.042 A 
BRANCH   4   6
HETATM    6  N2  UNL     1      32.136   5.379  47.652  1.00  0.00     0.105 N 
HETATM    7  C4  UNL     1      33.537   5.439  47.946  1.00  0.00     0.304 C 
HETATM    8  C3  UNL     1      34.250   4.139  47.707  1.00  0.00     0.302 C 
HETATM    9  N1  UNL     1      33.934   3.533  46.428  1.00  0.00     0.093 N 
HETATM   10  C17 UNL     1      32.557   3.673  46.059  1.00  0.00     0.302 C 
HETATM   11  C16 UNL     1      31.778   4.012  47.337  1.00  0.00     0.304 C 
BRANCH   9  12
HETATM   12  C2  UNL     1      34.876   4.010  45.463  1.00  0.00     0.298 C 
BRANCH  12  13
HETATM   13  C1  UNL     1      34.288   4.811  44.345  1.00  0.00     0.194 C 
BRANCH  13  14
HETATM   14  O1  UNL     1      34.763   6.093  44.224  1.00  0.00    -0.399 OA
HETATM   15  H1  UNL     1      34.727   6.644  45.044  1.00  0.00     0.209 HD
ENDBRANCH  13  14
ENDBRANCH  12  13
ENDBRANCH   9  12
ENDBRANCH   4   6
ENDBRANCH   1   3
BRANCH   1  16
HETATM   16  C8  UNL     1      27.680   5.372  48.563  1.00  0.00     0.171 A 
HETATM   17  N4  UNL     1      27.643   4.190  48.850  1.00  0.00    -0.235 NA
HETATM   18  C9  UNL     1      26.641   3.629  49.495  1.00  0.00     0.136 A 
HETATM   19  C10 UNL     1      25.574   4.366  49.883  1.00  0.00     0.032 A 
HETATM   20  S1  UNL     1      26.072   5.975  49.261  1.00  0.00    -0.053 SA
BRANCH  19  21
HETATM   21  C11 UNL     1      24.314   4.192  50.578  1.00  0.00     0.167 A 
HETATM   22  N5  UNL     1      24.528   4.160  52.024  1.00  0.00    -0.385 N 
HETATM   23  C12 UNL     1      24.093   3.143  52.925  1.00  0.00     0.084 A 
HETATM   24  H15 UNL     1      25.059   4.973  52.432  1.00  0.00     0.160 HD
HETATM   25  C13 UNL     1      23.431   2.130  52.406  1.00  0.00     0.018 A 
HETATM   26  C14 UNL     1      23.146   2.034  50.973  1.00  0.00     0.023 A 
HETATM   27  C15 UNL     1      23.569   3.005  50.162  1.00  0.00     0.039 A 
HETATM   28 CL1  UNL     1      23.177   2.795  48.473  1.00  0.00    -0.086 Cl
ENDBRANCH  19  21
ENDBRANCH   1  16
TORSDOF 7
ENDMDL
MODEL 8
REMARK VINA RESULT:      -6.5      5.074      7.658
REMARK  7 active torsions:
REMARK  status: ('A' for Active; 'I' for Inactive)
REMARK    1  A    between atoms: O1_1  and  C1_2 
REMARK    2  A    between atoms: C1_2  and  C2_3 
REMARK    3  A    between atoms: C2_3  and  N1_4 
REMARK    4  A    between atoms: N2_7  and  C5_8 
REMARK    5  A    between atoms: C7_10  and  N3_11 
REMARK    6  A    between atoms: N3_11  and  C8_12 
REMARK    7  A    between atoms: C10_15  and  C11_16 
ROOT
HETATM    1  N3  UNL     1      23.659   6.897  51.373  1.00  0.00    -0.337 N 
HETATM    2  H12 UNL     1      23.171   7.742  51.677  1.00  0.00     0.168 HD
ENDROOT
BRANCH   1   3
HETATM    3  C7  UNL     1      23.235   5.545  51.645  1.00  0.00     0.047 A 
HETATM    4  C5  UNL     1      23.247   4.077  51.411  1.00  0.00     0.297 A 
HETATM    5  C6  UNL     1      22.427   4.733  52.429  1.00  0.00     0.042 A 
BRANCH   4   6
HETATM    6  N2  UNL     1      24.366   3.280  51.828  1.00  0.00     0.105 N 
HETATM    7  C4  UNL     1      24.112   2.400  52.931  1.00  0.00     0.304 C 
HETATM    8  C3  UNL     1      24.634   1.009  52.713  1.00  0.00     0.302 C 
HETATM    9  N1  UNL     1      26.000   0.975  52.225  1.00  0.00     0.093 N 
HETATM   10  C17 UNL     1      26.288   2.005  51.272  1.00  0.00     0.302 C 
HETATM   11  C16 UNL     1      24.942   2.518  50.740  1.00  0.00     0.304 C 
BRANCH   9  12
HETATM   12  C2  UNL     1      26.877   0.925  53.354  1.00  0.00     0.298 C 
BRANCH  12  13
HETATM   13  C1  UNL     1      28.065   1.830  53.273  1.00  0.00     0.194 C 
BRANCH  13  14
HETATM   14  O1  UNL     1      28.102   2.840  54.201  1.00  0.00    -0.399 OA
HETATM   15  H1  UNL     1      28.995   3.225  54.382  1.00  0.00     0.209 HD
ENDBRANCH  13  14
ENDBRANCH  12  13
ENDBRANCH   9  12
ENDBRANCH   4   6
ENDBRANCH   1   3
BRANCH   1  16
HETATM   16  C8  UNL     1      24.840   7.197  50.630  1.00  0.00     0.171 A 
HETATM   17  N4  UNL     1      25.606   8.126  50.456  1.00  0.00    -0.235 NA
HETATM   18  C9  UNL     1      26.653   8.066  49.660  1.00  0.00     0.136 A 
HETATM   19  C10 UNL     1      26.934   6.931  48.978  1.00  0.00     0.032 A 
HETATM   20  S1  UNL     1      25.580   5.894  49.540  1.00  0.00    -0.053 SA
BRANCH  19  21
HETATM   21  C11 UNL     1      27.921   6.427  48.043  1.00  0.00     0.167 A 
HETATM   22  N5  UNL     1      29.026   5.793  48.760  1.00  0.00    -0.385 N 
HETATM   23  C12 UNL     1      30.414   6.092  48.618  1.00  0.00     0.084 A 
HETATM   24  H15 UNL     1      28.761   5.041  49.448  1.00  0.00     0.160 HD
HETATM   25  C13 UNL     1      30.736   7.033  47.756  1.00  0.00     0.018 A 
HETATM   26  C14 UNL     1      29.730   7.751  46.970  1.00  0.00     0.023 A 
HETATM   27  C15 UNL     1      28.441   7.443  47.130  1.00  0.00     0.039 A 
HETATM   28 CL1  UNL     1      27.325   8.357  46.146  1.00  0.00    -0.086 Cl
ENDBRANCH  19  21
ENDBRANCH   1  16
TORSDOF 7
ENDMDL
MODEL 9
REMARK VINA RESULT:      -6.4      3.428      5.250
REMARK  7 active torsions:
REMARK  status: ('A' for Active; 'I' for Inactive)
REMARK    1  A    between atoms: O1_1  and  C1_2 
REMARK    2  A    between atoms: C1_2  and  C2_3 
REMARK    3  A    between atoms: C2_3  and  N1_4 
REMARK    4  A    between atoms: N2_7  and  C5_8 
REMARK    5  A    between atoms: C7_10  and  N3_11 
REMARK    6  A    between atoms: N3_11  and  C8_12 
REMARK    7  A    between atoms: C10_15  and  C11_16 
ROOT
HETATM    1  N3  UNL     1      21.086   3.363  48.970  1.00  0.00    -0.337 N 
HETATM    2  H12 UNL     1      20.372   2.720  48.622  1.00  0.00     0.168 HD
ENDROOT
BRANCH   1   3
HETATM    3  C7  UNL     1      21.553   4.544  48.286  1.00  0.00     0.047 A 
HETATM    4  C5  UNL     1      21.851   5.997  48.197  1.00  0.00     0.297 A 
HETATM    5  C6  UNL     1      22.081   5.051  47.106  1.00  0.00     0.042 A 
BRANCH   4   6
HETATM    6  N2  UNL     1      22.983   6.555  48.884  1.00  0.00     0.105 N 
HETATM    7  C4  UNL     1      24.148   6.759  48.074  1.00  0.00     0.304 C 
HETATM    8  C3  UNL     1      24.780   8.107  48.274  1.00  0.00     0.302 C 
HETATM    9  N1  UNL     1      24.952   8.464  49.669  1.00  0.00     0.093 N 
HETATM   10  C17 UNL     1      23.857   8.057  50.498  1.00  0.00     0.302 C 
HETATM   11  C16 UNL     1      22.663   7.788  49.571  1.00  0.00     0.304 C 
BRANCH   9  12
HETATM   12  C2  UNL     1      26.240   8.007  50.091  1.00  0.00     0.298 C 
BRANCH  12  13
HETATM   13  C1  UNL     1      27.325   9.036  50.044  1.00  0.00     0.194 C 
BRANCH  13  14
HETATM   14  O1  UNL     1      27.615   9.643  51.239  1.00  0.00    -0.399 OA
HETATM   15  H1  UNL     1      27.502   9.081  52.045  1.00  0.00     0.209 HD
ENDBRANCH  13  14
ENDBRANCH  12  13
ENDBRANCH   9  12
ENDBRANCH   4   6
ENDBRANCH   1   3
BRANCH   1  16
HETATM   16  C8  UNL     1      21.591   2.964  50.245  1.00  0.00     0.171 A 
HETATM   17  N4  UNL     1      21.173   2.677  51.350  1.00  0.00    -0.235 NA
HETATM   18  C9  UNL     1      21.952   2.336  52.356  1.00  0.00     0.136 A 
HETATM   19  C10 UNL     1      23.295   2.287  52.200  1.00  0.00     0.032 A 
HETATM   20  S1  UNL     1      23.420   2.770  50.475  1.00  0.00    -0.053 SA
BRANCH  19  21
HETATM   21  C11 UNL     1      24.481   1.981  52.976  1.00  0.00     0.167 A 
HETATM   22  N5  UNL     1      25.620   2.764  52.497  1.00  0.00    -0.385 N 
HETATM   23  C12 UNL     1      26.891   2.257  52.096  1.00  0.00     0.084 A 
HETATM   24  H15 UNL     1      25.477   3.807  52.448  1.00  0.00     0.160 HD
HETATM   25  C13 UNL     1      27.060   0.953  52.160  1.00  0.00     0.018 A 
HETATM   26  C14 UNL     1      26.004   0.049  52.620  1.00  0.00     0.023 A 
HETATM   27  C15 UNL     1      24.828   0.561  52.988  1.00  0.00     0.039 A 
HETATM   28 CL1  UNL     1      23.639  -0.601  53.520  1.00  0.00    -0.086 Cl
ENDBRANCH  19  21
ENDBRANCH   1  16
TORSDOF 7
ENDMDL
