MODEL 1
REMARK VINA RESULT:      -9.7      0.000      0.000
REMARK  5 active torsions:
REMARK  status: ('A' for Active; 'I' for Inactive)
REMARK    1  A    between atoms: C2_2  and  N1_3 
REMARK    2  A    between atoms: C11_13  and  O1_14 
REMARK    3  A    between atoms: O1_14  and  C12_15 
REMARK    4  A    between atoms: C12_15  and  C13_16 
REMARK    5  A    between atoms: C21_26  and  O2_29 
ROOT
HETATM    1  N1  UNL     1      16.722   2.794  50.450  1.00  0.00    -0.408 N 
HETATM    2  C3  UNL     1      17.479   3.121  51.605  1.00  0.00     0.145 C 
HETATM    3  C4  UNL     1      18.643   2.219  51.753  1.00  0.00    -0.001 C 
HETATM    4  C5  UNL     1      19.575   1.320  51.639  1.00  0.00    -0.056 C 
HETATM    5  C6  UNL     1      19.547   0.481  50.489  1.00  0.00     0.048 C 
HETATM    6  C7  UNL     1      20.729   0.794  52.298  1.00  0.00    -0.032 C 
HETATM    7  C8  UNL     1      20.563  -0.280  53.041  1.00  0.00    -0.005 C 
HETATM    8  C9  UNL     1      21.399  -1.164  53.901  1.00  0.00     0.078 C 
HETATM    9  C10 UNL     1      22.608  -0.390  54.428  1.00  0.00     0.144 C 
HETATM   10 CL1  UNL     1      23.421  -1.380  55.646  1.00  0.00    -0.117 Cl
HETATM   11  C11 UNL     1      23.508  -0.010  53.357  1.00  0.00     0.062 C 
HETATM   12  C19 UNL     1      23.188   0.778  52.317  1.00  0.00     0.012 C 
HETATM   13  C20 UNL     1      21.925   1.472  51.940  1.00  0.00     0.070 C 
HETATM   14  N2  UNL     1      19.606  -1.294  53.310  1.00  0.00    -0.279 NA
HETATM   15  C21 UNL     1      18.269  -1.005  53.077  1.00  0.00     0.069 A 
HETATM   16  C22 UNL     1      17.046  -0.764  52.854  1.00  0.00    -0.016 A 
HETATM   17  C23 UNL     1      15.610  -0.483  52.567  1.00  0.00     0.116 A 
HETATM   18  O2  UNL     1      16.754  -0.528  52.747  1.00  0.00     0.000 OA
HETATM   19  N3  UNL     1      15.150   0.755  52.157  1.00  0.00    -0.403 N 
HETATM   20  C24 UNL     1      14.713   2.073  51.730  1.00  0.00     0.134 C 
HETATM   21  C25 UNL     1      15.364   2.637  50.493  1.00  0.00     0.136 C 
HETATM   22  H24 UNL     1      18.700  -1.690  53.438  1.00  0.00     0.162 HD
HETATM   23  H25 UNL     1      16.002   1.328  52.171  1.00  0.00     0.154 HD
ENDROOT
BRANCH  11  24
HETATM   24  O1  UNL     1      24.833  -0.510  53.433  1.00  0.00    -0.350 OA
BRANCH  24  25
HETATM   25  C12 UNL     1      25.734   0.074  52.500  1.00  0.00     0.214 C 
BRANCH  25  26
HETATM   26  C13 UNL     1      27.124  -0.168  52.881  1.00  0.00    -0.031 A 
HETATM   27  C14 UNL     1      28.034   0.853  53.242  1.00  0.00     0.009 A 
HETATM   28  C15 UNL     1      29.309   0.660  53.647  1.00  0.00     0.004 A 
HETATM   29  C16 UNL     1      29.793  -0.654  53.729  1.00  0.00     0.042 A 
HETATM   30  C17 UNL     1      28.902  -1.632  53.377  1.00  0.00     0.117 A 
HETATM   31  F1  UNL     1      29.382  -2.906  53.465  1.00  0.00    -0.206 F 
HETATM   32  C18 UNL     1      27.579  -1.486  52.948  1.00  0.00     0.051 A 
ENDBRANCH  25  26
ENDBRANCH  24  25
ENDBRANCH  11  24
BRANCH   1  33
HETATM   33  C2  UNL     1      17.355   3.181  49.249  1.00  0.00     0.112 C 
HETATM   34  C1  UNL     1      17.952   4.582  49.281  1.00  0.00     0.026 C 
ENDBRANCH   1  33
TORSDOF 5
ENDMDL
MODEL 2
REMARK VINA RESULT:      -9.7      1.082      1.352
REMARK  5 active torsions:
REMARK  status: ('A' for Active; 'I' for Inactive)
REMARK    1  A    between atoms: C2_2  and  N1_3 
REMARK    2  A    between atoms: C11_13  and  O1_14 
REMARK    3  A    between atoms: O1_14  and  C12_15 
REMARK    4  A    between atoms: C12_15  and  C13_16 
REMARK    5  A    between atoms: C21_26  and  O2_29 
ROOT
HETATM    1  N1  UNL     1      17.133   2.743  50.480  1.00  0.00    -0.408 N 
HETATM    2  C3  UNL     1      17.871   3.078  51.645  1.00  0.00     0.145 C 
HETATM    3  C4  UNL     1      18.978   2.122  51.868  1.00  0.00    -0.001 C 
HETATM    4  C5  UNL     1      19.862   1.171  51.823  1.00  0.00    -0.056 C 
HETATM    5  C6  UNL     1      19.823   0.286  50.708  1.00  0.00     0.048 C 
HETATM    6  C7  UNL     1      20.964   0.612  52.541  1.00  0.00    -0.032 C 
HETATM    7  C8  UNL     1      20.717  -0.418  53.321  1.00  0.00    -0.005 C 
HETATM    8  C9  UNL     1      21.476  -1.309  54.244  1.00  0.00     0.078 C 
HETATM    9  C10 UNL     1      22.709  -0.579  54.778  1.00  0.00     0.144 C 
HETATM   10 CL1  UNL     1      23.428  -1.558  56.062  1.00  0.00    -0.117 Cl
HETATM   11  C11 UNL     1      23.662  -0.293  53.723  1.00  0.00     0.062 C 
HETATM   12  C19 UNL     1      23.418   0.465  52.641  1.00  0.00     0.012 C 
HETATM   13  C20 UNL     1      22.207   1.209  52.194  1.00  0.00     0.070 C 
HETATM   14  N2  UNL     1      19.698  -1.367  53.599  1.00  0.00    -0.279 NA
HETATM   15  C21 UNL     1      18.387  -1.018  53.311  1.00  0.00     0.069 A 
HETATM   16  C22 UNL     1      17.187  -0.721  53.037  1.00  0.00    -0.016 A 
HETATM   17  C23 UNL     1      15.777  -0.376  52.691  1.00  0.00     0.116 A 
HETATM   18  O2  UNL     1      16.911  -0.475  52.911  1.00  0.00     0.000 OA
HETATM   19  N3  UNL     1      15.399   0.866  52.215  1.00  0.00    -0.403 N 
HETATM   20  C24 UNL     1      15.049   2.186  51.720  1.00  0.00     0.134 C 
HETATM   21  C25 UNL     1      15.768   2.661  50.484  1.00  0.00     0.136 C 
HETATM   22  H24 UNL     1      18.768  -1.708  53.713  1.00  0.00     0.162 HD
HETATM   23  H25 UNL     1      16.281   1.393  52.235  1.00  0.00     0.154 HD
ENDROOT
BRANCH  11  24
HETATM   24  O1  UNL     1      24.954  -0.861  53.863  1.00  0.00    -0.350 OA
BRANCH  24  25
HETATM   25  C12 UNL     1      25.777  -0.735  52.710  1.00  0.00     0.214 C 
BRANCH  25  26
HETATM   26  C13 UNL     1      27.137  -0.337  53.069  1.00  0.00    -0.031 A 
HETATM   27  C14 UNL     1      28.229  -1.231  53.141  1.00  0.00     0.009 A 
HETATM   28  C15 UNL     1      29.507  -0.889  53.419  1.00  0.00     0.004 A 
HETATM   29  C16 UNL     1      29.800   0.462  53.657  1.00  0.00     0.042 A 
HETATM   30  C17 UNL     1      28.733   1.317  53.586  1.00  0.00     0.117 A 
HETATM   31  F1  UNL     1      29.032   2.628  53.815  1.00  0.00    -0.206 F 
HETATM   32  C18 UNL     1      27.397   1.014  53.307  1.00  0.00     0.051 A 
ENDBRANCH  25  26
ENDBRANCH  24  25
ENDBRANCH  11  24
BRANCH   1  33
HETATM   33  C2  UNL     1      17.823   3.044  49.285  1.00  0.00     0.112 C 
HETATM   34  C1  UNL     1      18.133   4.524  49.100  1.00  0.00     0.026 C 
ENDBRANCH   1  33
TORSDOF 5
ENDMDL
MODEL 3
REMARK VINA RESULT:      -9.3      4.457      9.770
REMARK  5 active torsions:
REMARK  status: ('A' for Active; 'I' for Inactive)
REMARK    1  A    between atoms: C2_2  and  N1_3 
REMARK    2  A    between atoms: C11_13  and  O1_14 
REMARK    3  A    between atoms: O1_14  and  C12_15 
REMARK    4  A    between atoms: C12_15  and  C13_16 
REMARK    5  A    between atoms: C21_26  and  O2_29 
ROOT
HETATM    1  N1  UNL     1      23.731   2.272  51.604  1.00  0.00    -0.408 N 
HETATM    2  C3  UNL     1      22.979   1.357  50.824  1.00  0.00     0.145 C 
HETATM    3  C4  UNL     1      21.639   1.131  51.412  1.00  0.00    -0.001 C 
HETATM    4  C5  UNL     1      20.547   1.124  52.114  1.00  0.00    -0.056 C 
HETATM    5  C6  UNL     1      20.479   1.995  53.239  1.00  0.00     0.048 C 
HETATM    6  C7  UNL     1      19.260   0.508  52.204  1.00  0.00    -0.032 C 
HETATM    7  C8  UNL     1      19.133  -0.509  53.030  1.00  0.00    -0.005 C 
HETATM    8  C9  UNL     1      18.064  -1.454  53.458  1.00  0.00     0.078 C 
HETATM    9  C10 UNL     1      17.014  -1.591  52.354  1.00  0.00     0.144 C 
HETATM   10 CL1  UNL     1      15.918  -2.909  52.782  1.00  0.00    -0.117 Cl
HETATM   11  C11 UNL     1      16.301  -0.347  52.136  1.00  0.00     0.062 C 
HETATM   12  C19 UNL     1      16.861   0.813  51.756  1.00  0.00     0.012 C 
HETATM   13  C20 UNL     1      18.269   1.190  51.447  1.00  0.00     0.070 C 
HETATM   14  N2  UNL     1      19.825  -1.162  54.084  1.00  0.00    -0.279 NA
HETATM   15  C21 UNL     1      21.206  -1.041  54.129  1.00  0.00     0.069 A 
HETATM   16  C22 UNL     1      22.466  -0.926  54.194  1.00  0.00    -0.016 A 
HETATM   17  C23 UNL     1      23.947  -0.768  54.282  1.00  0.00     0.116 A 
HETATM   18  O2  UNL     1      22.810  -0.800  54.059  1.00  0.00     0.000 OA
HETATM   19  N3  UNL     1      24.693  -0.108  53.322  1.00  0.00    -0.403 N 
HETATM   20  C24 UNL     1      25.435   0.592  52.288  1.00  0.00     0.134 C 
HETATM   21  C25 UNL     1      25.016   2.009  51.993  1.00  0.00     0.136 C 
HETATM   22  H24 UNL     1      20.612  -1.510  54.588  1.00  0.00     0.162 HD
HETATM   23  H25 UNL     1      23.986   0.144  52.620  1.00  0.00     0.154 HD
ENDROOT
BRANCH  11  24
HETATM   24  O1  UNL     1      14.897  -0.377  52.338  1.00  0.00    -0.350 OA
BRANCH  24  25
HETATM   25  C12 UNL     1      14.252   0.875  52.143  1.00  0.00     0.214 C 
BRANCH  25  26
HETATM   26  C13 UNL     1      13.356   1.189  53.255  1.00  0.00    -0.031 A 
HETATM   27  C14 UNL     1      12.881   0.233  54.182  1.00  0.00     0.009 A 
HETATM   28  C15 UNL     1      12.095   0.497  55.249  1.00  0.00     0.004 A 
HETATM   29  C16 UNL     1      11.706   1.825  55.480  1.00  0.00     0.042 A 
HETATM   30  C17 UNL     1      12.172   2.740  54.575  1.00  0.00     0.117 A 
HETATM   31  F1  UNL     1      11.792   4.029  54.813  1.00  0.00    -0.206 F 
HETATM   32  C18 UNL     1      12.981   2.519  53.457  1.00  0.00     0.051 A 
ENDBRANCH  25  26
ENDBRANCH  24  25
ENDBRANCH  11  24
BRANCH   1  33
HETATM   33  C2  UNL     1      23.290   3.607  51.468  1.00  0.00     0.112 C 
HETATM   34  C1  UNL     1      23.417   4.439  52.736  1.00  0.00     0.026 C 
ENDBRANCH   1  33
TORSDOF 5
ENDMDL
MODEL 4
REMARK VINA RESULT:      -8.7      6.104      7.547
REMARK  5 active torsions:
REMARK  status: ('A' for Active; 'I' for Inactive)
REMARK    1  A    between atoms: C2_2  and  N1_3 
REMARK    2  A    between atoms: C11_13  and  O1_14 
REMARK    3  A    between atoms: O1_14  and  C12_15 
REMARK    4  A    between atoms: C12_15  and  C13_16 
REMARK    5  A    between atoms: C21_26  and  O2_29 
ROOT
HETATM    1  N1  UNL     1      21.070   0.191  51.939  1.00  0.00    -0.408 N 
HETATM    2  C3  UNL     1      21.489   0.497  50.618  1.00  0.00     0.145 C 
HETATM    3  C4  UNL     1      22.435   1.634  50.609  1.00  0.00    -0.001 C 
HETATM    4  C5  UNL     1      23.239   2.618  50.879  1.00  0.00    -0.056 C 
HETATM    5  C6  UNL     1      23.446   2.946  52.249  1.00  0.00     0.048 C 
HETATM    6  C7  UNL     1      24.074   3.603  50.264  1.00  0.00    -0.032 C 
HETATM    7  C8  UNL     1      23.564   4.804  50.091  1.00  0.00    -0.005 C 
HETATM    8  C9  UNL     1      23.993   6.110  49.517  1.00  0.00     0.078 C 
HETATM    9  C10 UNL     1      25.081   5.888  48.466  1.00  0.00     0.144 C 
HETATM   10 CL1  UNL     1      25.370   7.415  47.626  1.00  0.00    -0.117 Cl
HETATM   11  C11 UNL     1      26.297   5.361  49.056  1.00  0.00     0.062 C 
HETATM   12  C19 UNL     1      26.397   4.196  49.717  1.00  0.00     0.012 C 
HETATM   13  C20 UNL     1      25.398   3.138  50.037  1.00  0.00     0.070 C 
HETATM   14  N2  UNL     1      22.452   5.593  50.485  1.00  0.00    -0.279 NA
HETATM   15  C21 UNL     1      21.289   4.937  50.863  1.00  0.00     0.069 A 
HETATM   16  C22 UNL     1      20.226   4.353  51.227  1.00  0.00    -0.016 A 
HETATM   17  C23 UNL     1      18.984   3.661  51.678  1.00  0.00     0.116 A 
HETATM   18  O2  UNL     1      20.009   4.034  51.287  1.00  0.00     0.000 OA
HETATM   19  N3  UNL     1      18.823   2.288  51.625  1.00  0.00    -0.403 N 
HETATM   20  C24 UNL     1      18.700   0.843  51.549  1.00  0.00     0.134 C 
HETATM   21  C25 UNL     1      19.750   0.033  52.263  1.00  0.00     0.136 C 
HETATM   22  H24 UNL     1      21.506   5.786  50.735  1.00  0.00     0.162 HD
HETATM   23  H25 UNL     1      19.699   1.975  51.187  1.00  0.00     0.154 HD
ENDROOT
BRANCH  11  24
HETATM   24  O1  UNL     1      27.467   6.148  48.908  1.00  0.00    -0.350 OA
BRANCH  24  25
HETATM   25  C12 UNL     1      28.516   5.507  48.193  1.00  0.00     0.214 C 
BRANCH  25  26
HETATM   26  C13 UNL     1      29.759   6.272  48.275  1.00  0.00    -0.031 A 
HETATM   27  C14 UNL     1      31.044   5.715  48.080  1.00  0.00     0.009 A 
HETATM   28  C15 UNL     1      32.208   6.401  48.098  1.00  0.00     0.004 A 
HETATM   29  C16 UNL     1      32.164   7.785  48.325  1.00  0.00     0.042 A 
HETATM   30  C17 UNL     1      30.915   8.311  48.514  1.00  0.00     0.117 A 
HETATM   31  F1  UNL     1      30.884   9.658  48.728  1.00  0.00    -0.206 F 
HETATM   32  C18 UNL     1      29.685   7.646  48.508  1.00  0.00     0.051 A 
ENDBRANCH  25  26
ENDBRANCH  24  25
ENDBRANCH  11  24
BRANCH   1  33
HETATM   33  C2  UNL     1      22.071  -0.452  52.700  1.00  0.00     0.112 C 
HETATM   34  C1  UNL     1      21.867  -0.357  54.206  1.00  0.00     0.026 C 
ENDBRANCH   1  33
TORSDOF 5
ENDMDL
MODEL 5
REMARK VINA RESULT:      -8.6      3.127      4.183
REMARK  5 active torsions:
REMARK  status: ('A' for Active; 'I' for Inactive)
REMARK    1  A    between atoms: C2_2  and  N1_3 
REMARK    2  A    between atoms: C11_13  and  O1_14 
REMARK    3  A    between atoms: O1_14  and  C12_15 
REMARK    4  A    between atoms: C12_15  and  C13_16 
REMARK    5  A    between atoms: C21_26  and  O2_29 
ROOT
HETATM    1  N1  UNL     1      20.632   6.474  47.781  1.00  0.00    -0.408 N 
HETATM    2  C3  UNL     1      20.568   6.327  49.191  1.00  0.00     0.145 C 
HETATM    3  C4  UNL     1      21.367   5.167  49.643  1.00  0.00    -0.001 C 
HETATM    4  C5  UNL     1      22.136   4.127  49.769  1.00  0.00    -0.056 C 
HETATM    5  C6  UNL     1      22.756   3.617  48.593  1.00  0.00     0.048 C 
HETATM    6  C7  UNL     1      22.642   3.200  50.733  1.00  0.00    -0.032 C 
HETATM    7  C8  UNL     1      22.012   2.051  50.856  1.00  0.00    -0.005 C 
HETATM    8  C9  UNL     1      22.125   0.815  51.680  1.00  0.00     0.078 C 
HETATM    9  C10 UNL     1      22.820   1.132  53.005  1.00  0.00     0.144 C 
HETATM   10 CL1  UNL     1      22.696  -0.283  54.056  1.00  0.00    -0.117 Cl
HETATM   11  C11 UNL     1      24.199   1.533  52.804  1.00  0.00     0.062 C 
HETATM   12  C19 UNL     1      24.602   2.598  52.092  1.00  0.00     0.012 C 
HETATM   13  C20 UNL     1      23.849   3.642  51.340  1.00  0.00     0.070 C 
HETATM   14  N2  UNL     1      21.034   1.259  50.199  1.00  0.00    -0.279 NA
HETATM   15  C21 UNL     1      20.115   1.903  49.383  1.00  0.00     0.069 A 
HETATM   16  C22 UNL     1      19.280   2.473  48.621  1.00  0.00    -0.016 A 
HETATM   17  C23 UNL     1      18.314   3.146  47.705  1.00  0.00     0.116 A 
HETATM   18  O2  UNL     1      19.121   2.789  48.456  1.00  0.00     0.000 OA
HETATM   19  N3  UNL     1      18.252   4.519  47.550  1.00  0.00    -0.403 N 
HETATM   20  C24 UNL     1      18.223   5.965  47.420  1.00  0.00     0.134 C 
HETATM   21  C25 UNL     1      19.510   6.637  47.017  1.00  0.00     0.136 C 
HETATM   22  H24 UNL     1      20.211   1.070  49.669  1.00  0.00     0.162 HD
HETATM   23  H25 UNL     1      18.956   4.853  48.219  1.00  0.00     0.154 HD
ENDROOT
BRANCH  11  24
HETATM   24  O1  UNL     1      25.191   0.730  53.423  1.00  0.00    -0.350 OA
BRANCH  24  25
HETATM   25  C12 UNL     1      26.460   1.357  53.544  1.00  0.00     0.214 C 
BRANCH  25  26
HETATM   26  C13 UNL     1      27.546   0.384  53.441  1.00  0.00    -0.031 A 
HETATM   27  C14 UNL     1      28.895   0.667  53.757  1.00  0.00     0.009 A 
HETATM   28  C15 UNL     1      29.913  -0.221  53.722  1.00  0.00     0.004 A 
HETATM   29  C16 UNL     1      29.633  -1.543  53.345  1.00  0.00     0.042 A 
HETATM   30  C17 UNL     1      28.324  -1.803  53.041  1.00  0.00     0.117 A 
HETATM   31  F1  UNL     1      28.063  -3.093  52.681  1.00  0.00    -0.206 F 
HETATM   32  C18 UNL     1      27.238  -0.923  53.058  1.00  0.00     0.051 A 
ENDBRANCH  25  26
ENDBRANCH  24  25
ENDBRANCH  11  24
BRANCH   1  33
HETATM   33  C2  UNL     1      21.875   6.976  47.336  1.00  0.00     0.112 C 
HETATM   34  C1  UNL     1      22.314   6.441  45.979  1.00  0.00     0.026 C 
ENDBRANCH   1  33
TORSDOF 5
ENDMDL
MODEL 6
REMARK VINA RESULT:      -8.3      7.816      9.627
REMARK  5 active torsions:
REMARK  status: ('A' for Active; 'I' for Inactive)
REMARK    1  A    between atoms: C2_2  and  N1_3 
REMARK    2  A    between atoms: C11_13  and  O1_14 
REMARK    3  A    between atoms: O1_14  and  C12_15 
REMARK    4  A    between atoms: C12_15  and  C13_16 
REMARK    5  A    between atoms: C21_26  and  O2_29 
ROOT
HETATM    1  N1  UNL     1      21.935   4.822  49.642  1.00  0.00    -0.408 N 
HETATM    2  C3  UNL     1      22.647   4.794  48.415  1.00  0.00     0.145 C 
HETATM    3  C4  UNL     1      24.028   5.295  48.589  1.00  0.00    -0.001 C 
HETATM    4  C5  UNL     1      25.168   5.754  49.011  1.00  0.00    -0.056 C 
HETATM    5  C6  UNL     1      25.300   6.014  50.405  1.00  0.00     0.048 C 
HETATM    6  C7  UNL     1      26.469   6.144  48.566  1.00  0.00    -0.032 C 
HETATM    7  C8  UNL     1      26.673   7.425  48.345  1.00  0.00    -0.005 C 
HETATM    8  C9  UNL     1      27.787   8.300  47.882  1.00  0.00     0.078 C 
HETATM    9  C10 UNL     1      28.758   7.496  47.016  1.00  0.00     0.144 C 
HETATM   10 CL1  UNL     1      29.906   8.616  46.274  1.00  0.00    -0.117 Cl
HETATM   11  C11 UNL     1      29.431   6.465  47.781  1.00  0.00     0.062 C 
HETATM   12  C19 UNL     1      28.824   5.450  48.418  1.00  0.00     0.012 C 
HETATM   13  C20 UNL     1      27.391   5.062  48.544  1.00  0.00     0.070 C 
HETATM   14  N2  UNL     1      26.070   8.690  48.574  1.00  0.00    -0.279 NA
HETATM   15  C21 UNL     1      24.693   8.734  48.741  1.00  0.00     0.069 A 
HETATM   16  C22 UNL     1      23.440   8.789  48.912  1.00  0.00    -0.016 A 
HETATM   17  C23 UNL     1      21.966   8.847  49.137  1.00  0.00     0.116 A 
HETATM   18  O2  UNL     1      23.085   8.627  48.928  1.00  0.00     0.000 OA
HETATM   19  N3  UNL     1      21.141   7.742  49.023  1.00  0.00    -0.403 N 
HETATM   20  C24 UNL     1      20.315   6.556  48.890  1.00  0.00     0.134 C 
HETATM   21  C25 UNL     1      20.686   5.370  49.744  1.00  0.00     0.136 C 
HETATM   22  H24 UNL     1      25.328   9.348  48.672  1.00  0.00     0.162 HD
HETATM   23  H25 UNL     1      21.792   7.005  48.725  1.00  0.00     0.154 HD
ENDROOT
BRANCH  11  24
HETATM   24  O1  UNL     1      30.846   6.543  47.845  1.00  0.00    -0.350 OA
BRANCH  24  25
HETATM   25  C12 UNL     1      31.513   6.016  46.706  1.00  0.00     0.214 C 
BRANCH  25  26
HETATM   26  C13 UNL     1      32.493   5.000  47.086  1.00  0.00    -0.031 A 
HETATM   27  C14 UNL     1      33.772   5.293  47.613  1.00  0.00     0.009 A 
HETATM   28  C15 UNL     1      34.680   4.380  48.021  1.00  0.00     0.004 A 
HETATM   29  C16 UNL     1      34.349   3.020  47.929  1.00  0.00     0.042 A 
HETATM   30  C17 UNL     1      33.108   2.750  47.416  1.00  0.00     0.117 A 
HETATM   31  F1  UNL     1      32.795   1.425  47.336  1.00  0.00    -0.206 F 
HETATM   32  C18 UNL     1      32.137   3.654  46.977  1.00  0.00     0.051 A 
ENDBRANCH  25  26
ENDBRANCH  24  25
ENDBRANCH  11  24
BRANCH   1  33
HETATM   33  C2  UNL     1      22.341   3.808  50.537  1.00  0.00     0.112 C 
HETATM   34  C1  UNL     1      22.383   4.245  51.996  1.00  0.00     0.026 C 
ENDBRANCH   1  33
TORSDOF 5
ENDMDL
MODEL 7
REMARK VINA RESULT:      -8.3      6.884      9.385
REMARK  5 active torsions:
REMARK  status: ('A' for Active; 'I' for Inactive)
REMARK    1  A    between atoms: C2_2  and  N1_3 
REMARK    2  A    between atoms: C11_13  and  O1_14 
REMARK    3  A    between atoms: O1_14  and  C12_15 
REMARK    4  A    between atoms: C12_15  and  C13_16 
REMARK    5  A    between atoms: C21_26  and  O2_29 
ROOT
HETATM    1  N1  UNL     1      22.344   0.463  52.276  1.00  0.00    -0.408 N 
HETATM    2  C3  UNL     1      22.485   1.759  52.835  1.00  0.00     0.145 C 
HETATM    3  C4  UNL     1      22.989   2.721  51.829  1.00  0.00    -0.001 C 
HETATM    4  C5  UNL     1      23.414   3.347  50.772  1.00  0.00    -0.056 C 
HETATM    5  C6  UNL     1      23.500   2.608  49.558  1.00  0.00     0.048 C 
HETATM    6  C7  UNL     1      23.883   4.619  50.319  1.00  0.00    -0.032 C 
HETATM    7  C8  UNL     1      25.186   4.796  50.261  1.00  0.00    -0.005 C 
HETATM    8  C9  UNL     1      26.134   5.884  49.889  1.00  0.00     0.078 C 
HETATM    9  C10 UNL     1      25.466   7.247  50.075  1.00  0.00     0.144 C 
HETATM   10 CL1  UNL     1      26.693   8.504  49.885  1.00  0.00    -0.117 Cl
HETATM   11  C11 UNL     1      24.361   7.431  49.155  1.00  0.00     0.062 C 
HETATM   12  C19 UNL     1      23.262   6.661  49.097  1.00  0.00     0.012 C 
HETATM   13  C20 UNL     1      22.832   5.470  49.884  1.00  0.00     0.070 C 
HETATM   14  N2  UNL     1      26.399   4.061  50.325  1.00  0.00    -0.279 NA
HETATM   15  C21 UNL     1      26.394   2.853  51.007  1.00  0.00     0.069 A 
HETATM   16  C22 UNL     1      26.402   1.741  51.611  1.00  0.00    -0.016 A 
HETATM   17  C23 UNL     1      26.401   0.419  52.303  1.00  0.00     0.116 A 
HETATM   18  O2  UNL     1      26.232   1.461  51.824  1.00  0.00     0.000 OA
HETATM   19  N3  UNL     1      25.302  -0.076  52.983  1.00  0.00    -0.403 N 
HETATM   20  C24 UNL     1      24.125  -0.554  53.686  1.00  0.00     0.134 C 
HETATM   21  C25 UNL     1      22.850  -0.650  52.889  1.00  0.00     0.136 C 
HETATM   22  H24 UNL     1      27.025   3.348  50.630  1.00  0.00     0.162 HD
HETATM   23  H25 UNL     1      24.622   0.689  52.899  1.00  0.00     0.154 HD
ENDROOT
BRANCH  11  24
HETATM   24  O1  UNL     1      24.459   8.523  48.255  1.00  0.00    -0.350 OA
BRANCH  24  25
HETATM   25  C12 UNL     1      23.976   8.247  46.946  1.00  0.00     0.214 C 
BRANCH  25  26
HETATM   26  C13 UNL     1      25.048   8.330  45.956  1.00  0.00    -0.031 A 
HETATM   27  C14 UNL     1      24.832   8.412  44.561  1.00  0.00     0.009 A 
HETATM   28  C15 UNL     1      25.796   8.540  43.623  1.00  0.00     0.004 A 
HETATM   29  C16 UNL     1      27.133   8.602  44.044  1.00  0.00     0.042 A 
HETATM   30  C17 UNL     1      27.328   8.520  45.396  1.00  0.00     0.117 A 
HETATM   31  F1  UNL     1      28.632   8.587  45.794  1.00  0.00    -0.206 F 
HETATM   32  C18 UNL     1      26.369   8.384  46.404  1.00  0.00     0.051 A 
ENDBRANCH  25  26
ENDBRANCH  24  25
ENDBRANCH  11  24
BRANCH   1  33
HETATM   33  C2  UNL     1      21.235   0.354  51.408  1.00  0.00     0.112 C 
HETATM   34  C1  UNL     1      19.898   0.198  52.121  1.00  0.00     0.026 C 
ENDBRANCH   1  33
TORSDOF 5
ENDMDL
MODEL 8
REMARK VINA RESULT:      -8.2     11.212     13.165
REMARK  5 active torsions:
REMARK  status: ('A' for Active; 'I' for Inactive)
REMARK    1  A    between atoms: C2_2  and  N1_3 
REMARK    2  A    between atoms: C11_13  and  O1_14 
REMARK    3  A    between atoms: O1_14  and  C12_15 
REMARK    4  A    between atoms: C12_15  and  C13_16 
REMARK    5  A    between atoms: C21_26  and  O2_29 
ROOT
HETATM    1  N1  UNL     1      25.285  10.764  47.484  1.00  0.00    -0.408 N 
HETATM    2  C3  UNL     1      26.272  10.322  46.565  1.00  0.00     0.145 C 
HETATM    3  C4  UNL     1      27.280   9.470  47.234  1.00  0.00    -0.001 C 
HETATM    4  C5  UNL     1      28.002   8.758  48.046  1.00  0.00    -0.056 C 
HETATM    5  C6  UNL     1      27.551   8.630  49.391  1.00  0.00     0.048 C 
HETATM    6  C7  UNL     1      29.201   7.983  48.116  1.00  0.00    -0.032 C 
HETATM    7  C8  UNL     1      30.281   8.580  48.573  1.00  0.00    -0.005 C 
HETATM    8  C9  UNL     1      31.710   8.236  48.818  1.00  0.00     0.078 C 
HETATM    9  C10 UNL     1      32.139   7.095  47.895  1.00  0.00     0.144 C 
HETATM   10 CL1  UNL     1      33.891   6.899  48.023  1.00  0.00    -0.117 Cl
HETATM   11  C11 UNL     1      31.437   5.865  48.202  1.00  0.00     0.062 C 
HETATM   12  C19 UNL     1      30.105   5.696  48.144  1.00  0.00     0.012 C 
HETATM   13  C20 UNL     1      28.995   6.618  47.775  1.00  0.00     0.070 C 
HETATM   14  N2  UNL     1      30.681   9.766  49.243  1.00  0.00    -0.279 NA
HETATM   15  C21 UNL     1      29.870  10.886  49.124  1.00  0.00     0.069 A 
HETATM   16  C22 UNL     1      29.132  11.912  49.040  1.00  0.00    -0.016 A 
HETATM   17  C23 UNL     1      28.248  13.110  48.959  1.00  0.00     0.116 A 
HETATM   18  O2  UNL     1      28.820  12.104  48.905  1.00  0.00     0.000 OA
HETATM   19  N3  UNL     1      27.112  13.158  48.170  1.00  0.00    -0.403 N 
HETATM   20  C24 UNL     1      25.931  13.163  47.326  1.00  0.00     0.134 C 
HETATM   21  C25 UNL     1      24.914  12.078  47.574  1.00  0.00     0.136 C 
HETATM   22  H24 UNL     1      30.664  10.733  49.486  1.00  0.00     0.162 HD
HETATM   23  H25 UNL     1      27.126  12.245  47.700  1.00  0.00     0.154 HD
ENDROOT
BRANCH  11  24
HETATM   24  O1  UNL     1      32.235   4.756  48.584  1.00  0.00    -0.350 OA
BRANCH  24  25
HETATM   25  C12 UNL     1      32.211   3.674  47.662  1.00  0.00     0.214 C 
BRANCH  25  26
HETATM   26  C13 UNL     1      33.106   3.918  46.533  1.00  0.00    -0.031 A 
HETATM   27  C14 UNL     1      34.482   3.590  46.528  1.00  0.00     0.009 A 
HETATM   28  C15 UNL     1      35.325   3.755  45.486  1.00  0.00     0.004 A 
HETATM   29  C16 UNL     1      34.816   4.292  44.293  1.00  0.00     0.042 A 
HETATM   30  C17 UNL     1      33.484   4.606  44.312  1.00  0.00     0.117 A 
HETATM   31  F1  UNL     1      32.999   5.122  43.146  1.00  0.00    -0.206 F 
HETATM   32  C18 UNL     1      32.573   4.459  45.362  1.00  0.00     0.051 A 
ENDBRANCH  25  26
ENDBRANCH  24  25
ENDBRANCH  11  24
BRANCH   1  33
HETATM   33  C2  UNL     1      24.382   9.744  47.856  1.00  0.00     0.112 C 
HETATM   34  C1  UNL     1      22.919  10.165  47.828  1.00  0.00     0.026 C 
ENDBRANCH   1  33
TORSDOF 5
ENDMDL
MODEL 9
REMARK VINA RESULT:      -8.1      3.388      4.182
REMARK  5 active torsions:
REMARK  status: ('A' for Active; 'I' for Inactive)
REMARK    1  A    between atoms: C2_2  and  N1_3 
REMARK    2  A    between atoms: C11_13  and  O1_14 
REMARK    3  A    between atoms: O1_14  and  C12_15 
REMARK    4  A    between atoms: C12_15  and  C13_16 
REMARK    5  A    between atoms: C21_26  and  O2_29 
ROOT
HETATM    1  N1  UNL     1      14.804   3.523  51.373  1.00  0.00    -0.408 N 
HETATM    2  C3  UNL     1      15.845   3.802  52.296  1.00  0.00     0.145 C 
HETATM    3  C4  UNL     1      17.143   3.286  51.806  1.00  0.00    -0.001 C 
HETATM    4  C5  UNL     1      18.134   2.761  51.151  1.00  0.00    -0.056 C 
HETATM    5  C6  UNL     1      17.863   2.228  49.858  1.00  0.00     0.048 C 
HETATM    6  C7  UNL     1      19.532   2.478  51.243  1.00  0.00    -0.032 C 
HETATM    7  C8  UNL     1      19.880   1.269  51.629  1.00  0.00    -0.005 C 
HETATM    8  C9  UNL     1      21.138   0.513  51.886  1.00  0.00     0.078 C 
HETATM    9  C10 UNL     1      22.265   1.481  52.247  1.00  0.00     0.144 C 
HETATM   10 CL1  UNL     1      23.656   0.542  52.801  1.00  0.00    -0.117 Cl
HETATM   11  C11 UNL     1      22.608   2.344  51.133  1.00  0.00     0.062 C 
HETATM   12  C19 UNL     1      21.772   3.206  50.532  1.00  0.00     0.012 C 
HETATM   13  C20 UNL     1      20.343   3.549  50.778  1.00  0.00     0.070 C 
HETATM   14  N2  UNL     1      19.323  -0.021  51.837  1.00  0.00    -0.279 NA
HETATM   15  C21 UNL     1      17.966  -0.108  52.110  1.00  0.00     0.069 A 
HETATM   16  C22 UNL     1      16.725  -0.206  52.343  1.00  0.00    -0.016 A 
HETATM   17  C23 UNL     1      15.258  -0.319  52.593  1.00  0.00     0.116 A 
HETATM   18  O2  UNL     1      16.371  -0.053  52.405  1.00  0.00     0.000 OA
HETATM   19  N3  UNL     1      14.432   0.780  52.743  1.00  0.00    -0.403 N 
HETATM   20  C24 UNL     1      13.603   1.963  52.895  1.00  0.00     0.134 C 
HETATM   21  C25 UNL     1      13.621   2.956  51.762  1.00  0.00     0.136 C 
HETATM   22  H24 UNL     1      18.632  -0.691  52.097  1.00  0.00     0.162 HD
HETATM   23  H25 UNL     1      15.090   1.567  52.684  1.00  0.00     0.154 HD
ENDROOT
BRANCH  11  24
HETATM   24  O1  UNL     1      23.942   2.265  50.656  1.00  0.00    -0.350 OA
BRANCH  24  25
HETATM   25  C12 UNL     1      24.842   3.167  51.287  1.00  0.00     0.214 C 
BRANCH  25  26
HETATM   26  C13 UNL     1      25.412   4.108  50.325  1.00  0.00    -0.031 A 
HETATM   27  C14 UNL     1      24.837   5.362  50.010  1.00  0.00     0.009 A 
HETATM   28  C15 UNL     1      25.363   6.276  49.166  1.00  0.00     0.004 A 
HETATM   29  C16 UNL     1      26.583   5.983  48.538  1.00  0.00     0.042 A 
HETATM   30  C17 UNL     1      27.128   4.767  48.851  1.00  0.00     0.117 A 
HETATM   31  F1  UNL     1      28.316   4.495  48.240  1.00  0.00    -0.206 F 
HETATM   32  C18 UNL     1      26.624   3.787  49.712  1.00  0.00     0.051 A 
ENDBRANCH  25  26
ENDBRANCH  24  25
ENDBRANCH  11  24
BRANCH   1  33
HETATM   33  C2  UNL     1      14.855   4.340  50.221  1.00  0.00     0.112 C 
HETATM   34  C1  UNL     1      14.497   3.619  48.929  1.00  0.00     0.026 C 
ENDBRANCH   1  33
TORSDOF 5
ENDMDL
