MODEL 1
REMARK VINA RESULT:      -9.8      0.000      0.000
REMARK  1 active torsions:
REMARK  status: ('A' for Active; 'I' for Inactive)
REMARK    1  A    between atoms: C3_3  and  N1_5 
ROOT
HETATM    1  N1  UNL     1      19.631   2.045  50.070  1.00  0.00    -0.361 N 
HETATM    2  C4  UNL     1      18.899   0.874  50.378  1.00  0.00     0.128 C 
HETATM    3  C5  UNL     1      18.761   0.277  51.717  1.00  0.00     0.047 C 
HETATM    4  C6  UNL     1      19.930  -0.057  52.487  1.00  0.00    -0.029 C 
HETATM    5  C7  UNL     1      21.178  -0.100  52.752  1.00  0.00    -0.029 C 
HETATM    6  C8  UNL     1      21.871  -0.693  53.895  1.00  0.00     0.003 C 
HETATM    7  C9  UNL     1      22.906  -1.000  54.615  1.00  0.00     0.053 C 
HETATM    8  C10 UNL     1      24.376  -0.709  54.419  1.00  0.00     0.004 C 
HETATM    9  C11 UNL     1      25.440  -0.213  53.785  1.00  0.00     0.139 C 
HETATM   10  O2  UNL     1      26.548   0.372  53.008  1.00  0.00    -0.323 OA
HETATM   11  C12 UNL     1      25.957   1.371  52.137  1.00  0.00     0.074 A 
HETATM   12  C13 UNL     1      25.001   2.091  52.867  1.00  0.00     0.038 A 
HETATM   13  C14 UNL     1      24.042   3.055  52.995  1.00  0.00     0.016 A 
HETATM   14  C15 UNL     1      24.157   3.468  51.655  1.00  0.00    -0.004 A 
HETATM   15  C16 UNL     1      25.037   2.895  50.778  1.00  0.00     0.016 A 
HETATM   16  C17 UNL     1      25.957   1.887  50.865  1.00  0.00     0.038 A 
HETATM   17  C18 UNL     1      23.180   4.480  51.353  1.00  0.00     0.103 A 
HETATM   18  N2  UNL     1      22.006   3.850  51.415  1.00  0.00    -0.169 NA
HETATM   19  N3  UNL     1      21.012   4.653  51.160  1.00  0.00    -0.249 N 
HETATM   20  C19 UNL     1      21.578   5.882  50.919  1.00  0.00     0.161 A 
HETATM   21  N4  UNL     1      21.155   7.144  50.596  1.00  0.00    -0.222 NA
HETATM   22  C20 UNL     1      22.058   8.145  50.430  1.00  0.00     0.235 A 
HETATM   23  N5  UNL     1      23.399   7.971  50.567  1.00  0.00    -0.253 NA
HETATM   24  C21 UNL     1      23.913   6.756  50.883  1.00  0.00     0.135 A 
HETATM   25  C22 UNL     1      22.946   5.799  51.035  1.00  0.00     0.060 A 
HETATM   26  C23 UNL     1      19.576   4.329  51.120  1.00  0.00     0.173 C 
HETATM   27  C24 UNL     1      19.225   3.421  50.010  1.00  0.00     0.146 C 
ENDROOT
BRANCH   1  28
HETATM   28  C3  UNL     1      20.971   1.789  49.642  1.00  0.00     0.147 A 
HETATM   29  C2  UNL     1      22.299   1.582  49.125  1.00  0.00     0.204 A 
HETATM   30  C1  UNL     1      22.651   2.041  47.949  1.00  0.00     0.044 C 
HETATM   31  O1  UNL     1      21.097   2.320  48.508  1.00  0.00    -0.323 OA
ENDBRANCH   1  28
TORSDOF 1
ENDMDL
MODEL 2
REMARK VINA RESULT:      -9.0      2.254      5.226
REMARK  1 active torsions:
REMARK  status: ('A' for Active; 'I' for Inactive)
REMARK    1  A    between atoms: C3_3  and  N1_5 
ROOT
HETATM    1  N1  UNL     1      24.026   5.082  49.696  1.00  0.00    -0.361 N 
HETATM    2  C4  UNL     1      25.426   5.234  49.837  1.00  0.00     0.128 C 
HETATM    3  C5  UNL     1      26.425   4.164  49.681  1.00  0.00     0.047 C 
HETATM    4  C6  UNL     1      26.316   2.952  50.449  1.00  0.00    -0.029 C 
HETATM    5  C7  UNL     1      25.766   2.128  51.254  1.00  0.00    -0.029 C 
HETATM    6  C8  UNL     1      26.244   0.832  51.736  1.00  0.00     0.003 C 
HETATM    7  C9  UNL     1      26.170  -0.273  52.412  1.00  0.00     0.053 C 
HETATM    8  C10 UNL     1      25.084  -0.820  53.308  1.00  0.00     0.004 C 
HETATM    9  C11 UNL     1      23.907  -0.803  53.937  1.00  0.00     0.139 C 
HETATM   10  O2  UNL     1      22.589  -0.687  54.587  1.00  0.00    -0.323 OA
HETATM   11  C12 UNL     1      21.841   0.295  53.826  1.00  0.00     0.074 A 
HETATM   12  C13 UNL     1      22.062   0.067  52.461  1.00  0.00     0.038 A 
HETATM   13  C14 UNL     1      21.887   0.351  51.137  1.00  0.00     0.016 A 
HETATM   14  C15 UNL     1      21.041   1.446  51.395  1.00  0.00    -0.004 A 
HETATM   15  C16 UNL     1      20.698   1.831  52.662  1.00  0.00     0.016 A 
HETATM   16  C17 UNL     1      21.002   1.379  53.916  1.00  0.00     0.038 A 
HETATM   17  C18 UNL     1      20.690   2.112  50.169  1.00  0.00     0.103 A 
HETATM   18  N2  UNL     1      21.829   2.658  49.739  1.00  0.00    -0.169 NA
HETATM   19  N3  UNL     1      21.664   3.305  48.621  1.00  0.00    -0.249 N 
HETATM   20  C19 UNL     1      20.333   3.170  48.305  1.00  0.00     0.161 A 
HETATM   21  N4  UNL     1      19.483   3.575  47.310  1.00  0.00    -0.222 NA
HETATM   22  C20 UNL     1      18.171   3.227  47.349  1.00  0.00     0.235 A 
HETATM   23  N5  UNL     1      17.627   2.479  48.345  1.00  0.00    -0.253 NA
HETATM   24  C21 UNL     1      18.389   2.033  49.374  1.00  0.00     0.135 A 
HETATM   25  C22 UNL     1      19.697   2.420  49.267  1.00  0.00     0.060 A 
HETATM   26  C23 UNL     1      22.675   4.044  47.847  1.00  0.00     0.173 C 
HETATM   27  C24 UNL     1      23.171   5.242  48.553  1.00  0.00     0.146 C 
ENDROOT
BRANCH   1  28
HETATM   28  C3  UNL     1      23.347   4.834  50.930  1.00  0.00     0.147 A 
HETATM   29  C2  UNL     1      22.745   4.625  52.220  1.00  0.00     0.204 A 
HETATM   30  C1  UNL     1      23.365   4.961  53.325  1.00  0.00     0.044 C 
HETATM   31  O1  UNL     1      24.107   5.238  51.849  1.00  0.00    -0.323 OA
ENDBRANCH   1  28
TORSDOF 1
ENDMDL
MODEL 3
REMARK VINA RESULT:      -8.1      2.445      7.204
REMARK  1 active torsions:
REMARK  status: ('A' for Active; 'I' for Inactive)
REMARK    1  A    between atoms: C3_3  and  N1_5 
ROOT
HETATM    1  N1  UNL     1      23.118   1.225  51.824  1.00  0.00    -0.361 N 
HETATM    2  C4  UNL     1      24.279   2.023  51.962  1.00  0.00     0.128 C 
HETATM    3  C5  UNL     1      24.328   3.370  52.555  1.00  0.00     0.047 C 
HETATM    4  C6  UNL     1      23.474   4.414  52.054  1.00  0.00    -0.029 C 
HETATM    5  C7  UNL     1      22.542   4.915  51.341  1.00  0.00    -0.029 C 
HETATM    6  C8  UNL     1      22.067   6.296  51.259  1.00  0.00     0.003 C 
HETATM    7  C9  UNL     1      21.306   7.257  50.833  1.00  0.00     0.053 C 
HETATM    8  C10 UNL     1      20.152   7.253  49.857  1.00  0.00     0.004 C 
HETATM    9  C11 UNL     1      19.292   6.703  48.997  1.00  0.00     0.139 C 
HETATM   10  O2  UNL     1      18.392   6.001  48.066  1.00  0.00    -0.323 OA
HETATM   11  C12 UNL     1      18.449   4.595  48.421  1.00  0.00     0.074 A 
HETATM   12  C13 UNL     1      18.428   4.485  49.818  1.00  0.00     0.038 A 
HETATM   13  C14 UNL     1      18.445   3.771  50.982  1.00  0.00     0.016 A 
HETATM   14  C15 UNL     1      18.530   2.532  50.321  1.00  0.00    -0.004 A 
HETATM   15  C16 UNL     1      18.559   2.423  48.957  1.00  0.00     0.016 A 
HETATM   16  C17 UNL     1      18.527   3.317  47.923  1.00  0.00     0.038 A 
HETATM   17  C18 UNL     1      18.668   1.461  51.272  1.00  0.00     0.103 A 
HETATM   18  N2  UNL     1      19.873   1.639  51.815  1.00  0.00    -0.169 NA
HETATM   19  N3  UNL     1      20.141   0.729  52.708  1.00  0.00    -0.249 N 
HETATM   20  C19 UNL     1      19.039  -0.090  52.747  1.00  0.00     0.161 A 
HETATM   21  N4  UNL     1      18.634  -1.210  53.425  1.00  0.00    -0.222 NA
HETATM   22  C20 UNL     1      17.417  -1.757  53.174  1.00  0.00     0.235 A 
HETATM   23  N5  UNL     1      16.543  -1.250  52.265  1.00  0.00    -0.253 NA
HETATM   24  C21 UNL     1      16.855  -0.144  51.544  1.00  0.00     0.135 A 
HETATM   25  C22 UNL     1      18.094   0.351  51.849  1.00  0.00     0.060 A 
HETATM   26  C23 UNL     1      21.367   0.584  53.510  1.00  0.00     0.173 C 
HETATM   27  C24 UNL     1      22.546   0.235  52.693  1.00  0.00     0.146 C 
ENDROOT
BRANCH   1  28
HETATM   28  C3  UNL     1      22.478   1.358  50.552  1.00  0.00     0.147 A 
HETATM   29  C2  UNL     1      21.917   1.539  49.239  1.00  0.00     0.204 A 
HETATM   30  C1  UNL     1      22.584   2.154  48.292  1.00  0.00     0.044 C 
HETATM   31  O1  UNL     1      23.288   1.959  49.799  1.00  0.00    -0.323 OA
ENDBRANCH   1  28
TORSDOF 1
ENDMDL
MODEL 4
REMARK VINA RESULT:      -8.1     10.800     13.707
REMARK  1 active torsions:
REMARK  status: ('A' for Active; 'I' for Inactive)
REMARK    1  A    between atoms: C3_3  and  N1_5 
ROOT
HETATM    1  N1  UNL     1      34.473   4.035  46.156  1.00  0.00    -0.361 N 
HETATM    2  C4  UNL     1      33.862   3.003  46.908  1.00  0.00     0.128 C 
HETATM    3  C5  UNL     1      32.421   2.700  46.934  1.00  0.00     0.047 C 
HETATM    4  C6  UNL     1      31.469   3.727  47.267  1.00  0.00    -0.029 C 
HETATM    5  C7  UNL     1      31.081   4.912  47.538  1.00  0.00    -0.029 C 
HETATM    6  C8  UNL     1      29.740   5.409  47.848  1.00  0.00     0.003 C 
HETATM    7  C9  UNL     1      28.858   6.314  48.139  1.00  0.00     0.053 C 
HETATM    8  C10 UNL     1      28.991   7.807  48.331  1.00  0.00     0.004 C 
HETATM    9  C11 UNL     1      29.644   8.970  48.387  1.00  0.00     0.139 C 
HETATM   10  O2  UNL     1      30.457  10.199  48.426  1.00  0.00    -0.323 OA
HETATM   11  C12 UNL     1      31.669   9.913  47.683  1.00  0.00     0.074 A 
HETATM   12  C13 UNL     1      31.328   9.195  46.528  1.00  0.00     0.038 A 
HETATM   13  C14 UNL     1      31.632   8.545  45.367  1.00  0.00     0.016 A 
HETATM   14  C15 UNL     1      33.014   8.774  45.499  1.00  0.00    -0.004 A 
HETATM   15  C16 UNL     1      33.550   9.460  46.554  1.00  0.00     0.016 A 
HETATM   16  C17 UNL     1      33.035  10.061  47.669  1.00  0.00     0.038 A 
HETATM   17  C18 UNL     1      33.738   8.120  44.442  1.00  0.00     0.103 A 
HETATM   18  N2  UNL     1      33.586   6.816  44.679  1.00  0.00    -0.169 NA
HETATM   19  N3  UNL     1      34.197   6.088  43.789  1.00  0.00    -0.249 N 
HETATM   20  C19 UNL     1      34.782   6.976  42.918  1.00  0.00     0.161 A 
HETATM   21  N4  UNL     1      35.554   6.924  41.788  1.00  0.00    -0.222 NA
HETATM   22  C20 UNL     1      35.957   8.072  41.184  1.00  0.00     0.235 A 
HETATM   23  N5  UNL     1      35.634   9.310  41.642  1.00  0.00    -0.253 NA
HETATM   24  C21 UNL     1      34.875   9.462  42.755  1.00  0.00     0.135 A 
HETATM   25  C22 UNL     1      34.506   8.266  43.309  1.00  0.00     0.060 A 
HETATM   26  C23 UNL     1      34.270   4.619  43.719  1.00  0.00     0.173 C 
HETATM   27  C24 UNL     1      35.037   4.031  44.836  1.00  0.00     0.146 C 
ENDROOT
BRANCH   1  28
HETATM   28  C3  UNL     1      34.651   5.251  46.887  1.00  0.00     0.147 A 
HETATM   29  C2  UNL     1      34.857   6.418  47.703  1.00  0.00     0.204 A 
HETATM   30  C1  UNL     1      35.246   6.318  48.951  1.00  0.00     0.044 C 
HETATM   31  O1  UNL     1      35.033   4.927  48.042  1.00  0.00    -0.323 OA
ENDBRANCH   1  28
TORSDOF 1
ENDMDL
MODEL 5
REMARK VINA RESULT:      -8.0      9.981     12.869
REMARK  1 active torsions:
REMARK  status: ('A' for Active; 'I' for Inactive)
REMARK    1  A    between atoms: C3_3  and  N1_5 
ROOT
HETATM    1  N1  UNL     1      33.579  10.804  45.329  1.00  0.00    -0.361 N 
HETATM    2  C4  UNL     1      34.504  10.517  44.298  1.00  0.00     0.128 C 
HETATM    3  C5  UNL     1      34.308   9.531  43.221  1.00  0.00     0.047 C 
HETATM    4  C6  UNL     1      33.990   8.164  43.537  1.00  0.00    -0.029 C 
HETATM    5  C7  UNL     1      33.687   7.184  44.297  1.00  0.00    -0.029 C 
HETATM    6  C8  UNL     1      33.460   5.778  43.962  1.00  0.00     0.003 C 
HETATM    7  C9  UNL     1      33.168   4.539  44.216  1.00  0.00     0.053 C 
HETATM    8  C10 UNL     1      32.798   3.849  45.508  1.00  0.00     0.004 C 
HETATM    9  C11 UNL     1      32.554   3.777  46.819  1.00  0.00     0.139 C 
HETATM   10  O2  UNL     1      32.307   3.804  48.271  1.00  0.00    -0.323 OA
HETATM   11  C12 UNL     1      32.035   5.187  48.616  1.00  0.00     0.074 A 
HETATM   12  C13 UNL     1      31.199   5.737  47.635  1.00  0.00     0.038 A 
HETATM   13  C14 UNL     1      30.482   6.759  47.083  1.00  0.00     0.016 A 
HETATM   14  C15 UNL     1      30.834   7.669  48.096  1.00  0.00    -0.004 A 
HETATM   15  C16 UNL     1      31.639   7.326  49.148  1.00  0.00     0.016 A 
HETATM   16  C17 UNL     1      32.284   6.182  49.529  1.00  0.00     0.038 A 
HETATM   17  C18 UNL     1      30.308   8.976  47.806  1.00  0.00     0.103 A 
HETATM   18  N2  UNL     1      30.985   9.385  46.732  1.00  0.00    -0.169 NA
HETATM   19  N3  UNL     1      30.612  10.573  46.349  1.00  0.00    -0.249 N 
HETATM   20  C19 UNL     1      29.629  10.958  47.229  1.00  0.00     0.161 A 
HETATM   21  N4  UNL     1      28.819  12.044  47.429  1.00  0.00    -0.222 NA
HETATM   22  C20 UNL     1      27.933  12.054  48.458  1.00  0.00     0.235 A 
HETATM   23  N5  UNL     1      27.792  11.023  49.333  1.00  0.00    -0.253 NA
HETATM   24  C21 UNL     1      28.552   9.905  49.216  1.00  0.00     0.135 A 
HETATM   25  C22 UNL     1      29.419   9.966  48.159  1.00  0.00     0.060 A 
HETATM   26  C23 UNL     1      31.130  11.361  45.218  1.00  0.00     0.173 C 
HETATM   27  C24 UNL     1      32.531  11.783  45.410  1.00  0.00     0.146 C 
ENDROOT
BRANCH   1  28
HETATM   28  C3  UNL     1      33.807  10.061  46.530  1.00  0.00     0.147 A 
HETATM   29  C2  UNL     1      34.131   9.293  47.703  1.00  0.00     0.204 A 
HETATM   30  C1  UNL     1      35.299   8.715  47.838  1.00  0.00     0.044 C 
HETATM   31  O1  UNL     1      34.979   9.608  46.458  1.00  0.00    -0.323 OA
ENDBRANCH   1  28
TORSDOF 1
ENDMDL
MODEL 6
REMARK VINA RESULT:      -7.9      2.955      5.878
REMARK  1 active torsions:
REMARK  status: ('A' for Active; 'I' for Inactive)
REMARK    1  A    between atoms: C3_3  and  N1_5 
ROOT
HETATM    1  N1  UNL     1      23.810   7.109  48.133  1.00  0.00    -0.361 N 
HETATM    2  C4  UNL     1      25.167   7.467  48.320  1.00  0.00     0.128 C 
HETATM    3  C5  UNL     1      26.316   6.552  48.217  1.00  0.00     0.047 C 
HETATM    4  C6  UNL     1      26.357   5.347  49.003  1.00  0.00    -0.029 C 
HETATM    5  C7  UNL     1      25.904   4.462  49.802  1.00  0.00    -0.029 C 
HETATM    6  C8  UNL     1      26.547   3.255  50.323  1.00  0.00     0.003 C 
HETATM    7  C9  UNL     1      26.611   2.160  51.015  1.00  0.00     0.053 C 
HETATM    8  C10 UNL     1      25.584   1.470  51.883  1.00  0.00     0.004 C 
HETATM    9  C11 UNL     1      24.394   1.323  52.470  1.00  0.00     0.139 C 
HETATM   10  O2  UNL     1      23.051   1.253  53.072  1.00  0.00    -0.323 OA
HETATM   11  C12 UNL     1      22.196   2.106  52.268  1.00  0.00     0.074 A 
HETATM   12  C13 UNL     1      22.498   1.895  50.915  1.00  0.00     0.038 A 
HETATM   13  C14 UNL     1      22.333   2.134  49.581  1.00  0.00     0.016 A 
HETATM   14  C15 UNL     1      21.327   3.096  49.790  1.00  0.00    -0.004 A 
HETATM   15  C16 UNL     1      20.885   3.442  51.038  1.00  0.00     0.016 A 
HETATM   16  C17 UNL     1      21.204   3.056  52.310  1.00  0.00     0.038 A 
HETATM   17  C18 UNL     1      20.928   3.689  48.542  1.00  0.00     0.103 A 
HETATM   18  N2  UNL     1      21.991   4.390  48.142  1.00  0.00    -0.169 NA
HETATM   19  N3  UNL     1      21.774   4.993  47.008  1.00  0.00    -0.249 N 
HETATM   20  C19 UNL     1      20.490   4.660  46.648  1.00  0.00     0.161 A 
HETATM   21  N4  UNL     1      19.627   4.924  45.617  1.00  0.00    -0.222 NA
HETATM   22  C20 UNL     1      18.379   4.389  45.617  1.00  0.00     0.235 A 
HETATM   23  N5  UNL     1      17.913   3.581  46.606  1.00  0.00    -0.253 NA
HETATM   24  C21 UNL     1      18.694   3.264  47.669  1.00  0.00     0.135 A 
HETATM   25  C22 UNL     1      19.934   3.837  47.601  1.00  0.00     0.060 A 
HETATM   26  C23 UNL     1      22.694   5.862  46.257  1.00  0.00     0.173 C 
HETATM   27  C24 UNL     1      22.984   7.129  46.958  1.00  0.00     0.146 C 
ENDROOT
BRANCH   1  28
HETATM   28  C3  UNL     1      23.130   6.780  49.347  1.00  0.00     0.147 A 
HETATM   29  C2  UNL     1      22.377   6.522  50.546  1.00  0.00     0.204 A 
HETATM   30  C1  UNL     1      21.303   7.214  50.839  1.00  0.00     0.044 C 
HETATM   31  O1  UNL     1      22.135   7.547  49.424  1.00  0.00    -0.323 OA
ENDBRANCH   1  28
TORSDOF 1
ENDMDL
MODEL 7
REMARK VINA RESULT:      -7.8      5.227      8.640
REMARK  1 active torsions:
REMARK  status: ('A' for Active; 'I' for Inactive)
REMARK    1  A    between atoms: C3_3  and  N1_5 
ROOT
HETATM    1  N1  UNL     1      28.695   8.585  47.151  1.00  0.00    -0.361 N 
HETATM    2  C4  UNL     1      29.756   7.777  47.625  1.00  0.00     0.128 C 
HETATM    3  C5  UNL     1      29.798   6.305  47.581  1.00  0.00     0.047 C 
HETATM    4  C6  UNL     1      28.733   5.531  48.162  1.00  0.00    -0.029 C 
HETATM    5  C7  UNL     1      27.601   5.341  48.720  1.00  0.00    -0.029 C 
HETATM    6  C8  UNL     1      26.968   4.094  49.148  1.00  0.00     0.003 C 
HETATM    7  C9  UNL     1      26.020   3.369  49.659  1.00  0.00     0.053 C 
HETATM    8  C10 UNL     1      24.668   3.748  50.215  1.00  0.00     0.004 C 
HETATM    9  C11 UNL     1      23.688   4.588  50.556  1.00  0.00     0.139 C 
HETATM   10  O2  UNL     1      22.669   5.597  50.895  1.00  0.00    -0.323 OA
HETATM   11  C12 UNL     1      22.972   6.772  50.100  1.00  0.00     0.074 A 
HETATM   12  C13 UNL     1      23.314   6.359  48.804  1.00  0.00     0.038 A 
HETATM   13  C14 UNL     1      23.703   6.593  47.517  1.00  0.00     0.016 A 
HETATM   14  C15 UNL     1      23.760   7.988  47.697  1.00  0.00    -0.004 A 
HETATM   15  C16 UNL     1      23.458   8.591  48.887  1.00  0.00     0.016 A 
HETATM   16  C17 UNL     1      23.068   8.142  50.118  1.00  0.00     0.038 A 
HETATM   17  C18 UNL     1      24.251   8.630  46.507  1.00  0.00     0.103 A 
HETATM   18  N2  UNL     1      25.526   8.248  46.414  1.00  0.00    -0.169 NA
HETATM   19  N3  UNL     1      26.110   8.761  45.369  1.00  0.00    -0.249 N 
HETATM   20  C19 UNL     1      25.153   9.523  44.743  1.00  0.00     0.161 A 
HETATM   21  N4  UNL     1      25.060  10.320  43.633  1.00  0.00    -0.222 NA
HETATM   22  C20 UNL     1      23.889  10.937  43.331  1.00  0.00     0.235 A 
HETATM   23  N5  UNL     1      22.764  10.813  44.083  1.00  0.00    -0.253 NA
HETATM   24  C21 UNL     1      22.758  10.047  45.203  1.00  0.00     0.135 A 
HETATM   25  C22 UNL     1      23.970   9.457  45.443  1.00  0.00     0.060 A 
HETATM   26  C23 UNL     1      27.506   8.583  44.936  1.00  0.00     0.173 C 
HETATM   27  C24 UNL     1      28.475   9.192  45.868  1.00  0.00     0.146 C 
ENDROOT
BRANCH   1  28
HETATM   28  C3  UNL     1      27.747   8.939  48.160  1.00  0.00     0.147 A 
HETATM   29  C2  UNL     1      26.866   9.283  49.245  1.00  0.00     0.204 A 
HETATM   30  C1  UNL     1      27.284   9.287  50.488  1.00  0.00     0.044 C 
HETATM   31  O1  UNL     1      28.354   8.891  49.262  1.00  0.00    -0.323 OA
ENDBRANCH   1  28
TORSDOF 1
ENDMDL
MODEL 8
REMARK VINA RESULT:      -7.8      5.007      8.557
REMARK  1 active torsions:
REMARK  status: ('A' for Active; 'I' for Inactive)
REMARK    1  A    between atoms: C3_3  and  N1_5 
ROOT
HETATM    1  N1  UNL     1      25.099   4.510  50.091  1.00  0.00    -0.361 N 
HETATM    2  C4  UNL     1      23.834   3.875  50.055  1.00  0.00     0.128 C 
HETATM    3  C5  UNL     1      23.060   3.575  48.839  1.00  0.00     0.047 C 
HETATM    4  C6  UNL     1      22.741   4.622  47.904  1.00  0.00    -0.029 C 
HETATM    5  C7  UNL     1      22.783   5.801  47.417  1.00  0.00    -0.029 C 
HETATM    6  C8  UNL     1      22.116   6.348  46.235  1.00  0.00     0.003 C 
HETATM    7  C9  UNL     1      21.818   7.269  45.372  1.00  0.00     0.053 C 
HETATM    8  C10 UNL     1      22.269   8.707  45.256  1.00  0.00     0.004 C 
HETATM    9  C11 UNL     1      22.940   9.801  45.621  1.00  0.00     0.139 C 
HETATM   10  O2  UNL     1      23.722  10.952  46.107  1.00  0.00    -0.323 OA
HETATM   11  C12 UNL     1      24.764  10.411  46.959  1.00  0.00     0.074 A 
HETATM   12  C13 UNL     1      25.291   9.264  46.348  1.00  0.00     0.038 A 
HETATM   13  C14 UNL     1      26.136   8.193  46.298  1.00  0.00     0.016 A 
HETATM   14  C15 UNL     1      26.727   8.492  47.539  1.00  0.00    -0.004 A 
HETATM   15  C16 UNL     1      26.356   9.572  48.293  1.00  0.00     0.016 A 
HETATM   16  C17 UNL     1      25.437  10.573  48.145  1.00  0.00     0.038 A 
HETATM   17  C18 UNL     1      27.673   7.471  47.907  1.00  0.00     0.103 A 
HETATM   18  N2  UNL     1      26.932   6.386  48.136  1.00  0.00    -0.169 NA
HETATM   19  N3  UNL     1      27.664   5.366  48.484  1.00  0.00    -0.249 N 
HETATM   20  C19 UNL     1      28.961   5.818  48.479  1.00  0.00     0.161 A 
HETATM   21  N4  UNL     1      30.209   5.315  48.736  1.00  0.00    -0.222 NA
HETATM   22  C20 UNL     1      31.303   6.110  48.619  1.00  0.00     0.235 A 
HETATM   23  N5  UNL     1      31.240   7.418  48.253  1.00  0.00    -0.253 NA
HETATM   24  C21 UNL     1      30.049   8.006  47.980  1.00  0.00     0.135 A 
HETATM   25  C22 UNL     1      28.993   7.145  48.118  1.00  0.00     0.060 A 
HETATM   26  C23 UNL     1      27.213   4.007  48.827  1.00  0.00     0.173 C 
HETATM   27  C24 UNL     1      26.427   3.964  50.076  1.00  0.00     0.146 C 
ENDROOT
BRANCH   1  28
HETATM   28  C3  UNL     1      25.027   5.924  50.285  1.00  0.00     0.147 A 
HETATM   29  C2  UNL     1      24.861   7.335  50.515  1.00  0.00     0.204 A 
HETATM   30  C1  UNL     1      23.737   7.822  50.982  1.00  0.00     0.044 C 
HETATM   31  O1  UNL     1      23.882   6.170  50.745  1.00  0.00    -0.323 OA
ENDBRANCH   1  28
TORSDOF 1
ENDMDL
MODEL 9
REMARK VINA RESULT:      -7.5      7.840     11.196
REMARK  1 active torsions:
REMARK  status: ('A' for Active; 'I' for Inactive)
REMARK    1  A    between atoms: C3_3  and  N1_5 
ROOT
HETATM    1  N1  UNL     1      31.958   7.988  46.731  1.00  0.00    -0.361 N 
HETATM    2  C4  UNL     1      32.427   6.867  47.456  1.00  0.00     0.128 C 
HETATM    3  C5  UNL     1      31.785   5.542  47.496  1.00  0.00     0.047 C 
HETATM    4  C6  UNL     1      30.405   5.416  47.881  1.00  0.00    -0.029 C 
HETATM    5  C7  UNL     1      29.241   5.834  48.201  1.00  0.00    -0.029 C 
HETATM    6  C8  UNL     1      28.040   5.076  48.551  1.00  0.00     0.003 C 
HETATM    7  C9  UNL     1      26.796   4.931  48.890  1.00  0.00     0.053 C 
HETATM    8  C10 UNL     1      25.706   5.949  49.133  1.00  0.00     0.004 C 
HETATM    9  C11 UNL     1      25.191   7.177  49.219  1.00  0.00     0.139 C 
HETATM   10  O2  UNL     1      24.720   8.572  49.288  1.00  0.00    -0.323 OA
HETATM   11  C12 UNL     1      25.659   9.362  48.515  1.00  0.00     0.074 A 
HETATM   12  C13 UNL     1      25.972   8.662  47.341  1.00  0.00     0.038 A 
HETATM   13  C14 UNL     1      26.627   8.513  46.152  1.00  0.00     0.016 A 
HETATM   14  C15 UNL     1      27.297   9.745  46.269  1.00  0.00    -0.004 A 
HETATM   15  C16 UNL     1      27.125  10.580  47.339  1.00  0.00     0.016 A 
HETATM   16  C17 UNL     1      26.378  10.532  48.483  1.00  0.00     0.038 A 
HETATM   17  C18 UNL     1      28.216   9.925  45.177  1.00  0.00     0.103 A 
HETATM   18  N2  UNL     1      29.161   9.004  45.370  1.00  0.00    -0.169 NA
HETATM   19  N3  UNL     1      30.076   9.049  44.444  1.00  0.00    -0.249 N 
HETATM   20  C19 UNL     1      29.700  10.062  43.596  1.00  0.00     0.161 A 
HETATM   21  N4  UNL     1      30.170  10.650  42.451  1.00  0.00    -0.222 NA
HETATM   22  C20 UNL     1      29.487  11.677  41.881  1.00  0.00     0.235 A 
HETATM   23  N5  UNL     1      28.330  12.176  42.389  1.00  0.00    -0.253 NA
HETATM   24  C21 UNL     1      27.787  11.660  43.520  1.00  0.00     0.135 A 
HETATM   25  C22 UNL     1      28.528  10.631  44.037  1.00  0.00     0.060 A 
HETATM   26  C23 UNL     1      31.278   8.206  44.320  1.00  0.00     0.173 C 
HETATM   27  C24 UNL     1      32.255   8.442  45.402  1.00  0.00     0.146 C 
ENDROOT
BRANCH   1  28
HETATM   28  C3  UNL     1      31.135   8.867  47.502  1.00  0.00     0.147 A 
HETATM   29  C2  UNL     1      30.359   9.723  48.361  1.00  0.00     0.204 A 
HETATM   30  C1  UNL     1      30.574   9.768  49.653  1.00  0.00     0.044 C 
HETATM   31  O1  UNL     1      31.515   8.764  48.698  1.00  0.00    -0.323 OA
ENDBRANCH   1  28
TORSDOF 1
ENDMDL
