MODEL 1
REMARK VINA RESULT:      -9.5      0.000      0.000
REMARK  5 active torsions:
REMARK  status: ('A' for Active; 'I' for Inactive)
REMARK    1  A    between atoms: C2_2  and  O1_4 
REMARK    2  A    between atoms: O1_4  and  C4_5 
REMARK       I    between atoms: C4_5  and  N1_7 
REMARK    3  A    between atoms: N1_7  and  C5_8 
REMARK    4  A    between atoms: C16_24  and  N7_25 
REMARK    5  A    between atoms: N7_25  and  C17_26 
ROOT
HETATM    1  C5  UNL     1      24.703   1.392  53.307  1.00  0.00     0.015 C 
HETATM    2  C6  UNL     1      24.528   2.732  53.183  1.00  0.00     0.020 C 
HETATM    3  C7  UNL     1      23.783   3.947  52.619  1.00  0.00     0.182 C 
HETATM    4  N2  UNL     1      22.743   3.545  51.787  1.00  0.00    -0.248 N 
HETATM    5  N3  UNL     1      22.334   2.424  52.445  1.00  0.00    -0.152 NA
HETATM    6  C8  UNL     1      21.369   1.765  51.942  1.00  0.00     0.149 A 
HETATM    7  C9  UNL     1      21.392   0.719  52.989  1.00  0.00     0.048 C 
HETATM    8  C10 UNL     1      22.582   0.112  53.317  1.00  0.00    -0.017 C 
HETATM    9  C11 UNL     1      23.723   0.630  52.510  1.00  0.00     0.084 C 
HETATM   10  N4  UNL     1      21.066   2.532  50.802  1.00  0.00    -0.324 N 
HETATM   11  C12 UNL     1      21.931   3.678  50.673  1.00  0.00     0.137 A 
HETATM   12  C13 UNL     1      21.859   4.461  49.665  1.00  0.00     0.053 A 
HETATM   13  C14 UNL     1      20.736   4.185  48.707  1.00  0.00     0.196 A 
HETATM   14  N5  UNL     1      20.663   5.140  47.696  1.00  0.00    -0.278 NA
HETATM   15  C15 UNL     1      21.366   6.125  47.395  1.00  0.00     0.229 A 
HETATM   16  N6  UNL     1      22.470   6.360  48.234  1.00  0.00    -0.224 NA
HETATM   17  C16 UNL     1      22.660   5.572  49.248  1.00  0.00     0.141 A 
HETATM   18  H16 UNL     1      20.280   2.085  50.313  1.00  0.00     0.169 HD
ENDROOT
BRANCH  17  19
HETATM   19  N7  UNL     1      23.858   5.805  49.976  1.00  0.00    -0.340 N 
HETATM   20  H20 UNL     1      23.616   6.192  50.935  1.00  0.00     0.167 HD
BRANCH  19  21
HETATM   21  C17 UNL     1      25.166   5.540  49.488  1.00  0.00     0.035 A 
HETATM   22  C18 UNL     1      25.624   4.262  49.690  1.00  0.00     0.029 A 
HETATM   23  C19 UNL     1      26.886   3.863  49.267  1.00  0.00     0.004 A 
HETATM   24  C20 UNL     1      27.647   4.825  48.634  1.00  0.00     0.024 A 
HETATM   25  C21 UNL     1      27.172   6.097  48.442  1.00  0.00     0.036 A 
HETATM   26 CL1  UNL     1      28.221   7.220  47.634  1.00  0.00    -0.084 Cl
HETATM   27  C22 UNL     1      25.933   6.488  48.856  1.00  0.00     0.053 A 
ENDBRANCH  19  21
ENDBRANCH  17  19
BRANCH   1  28
HETATM   28  N1  UNL     1      25.673   0.625  54.052  1.00  0.00    -0.306 N 
HETATM   29  C4  UNL     1      26.682   0.029  53.274  1.00  0.00     0.365 C 
HETATM   30  O2  UNL     1      26.961  -0.008  52.060  1.00  0.00    -0.238 OA
HETATM   31  H8  UNL     1      25.646   0.512  55.081  1.00  0.00     0.171 HD
BRANCH  29  32
HETATM   32  O1  UNL     1      27.623  -0.707  53.938  1.00  0.00    -0.299 OA
BRANCH  32  33
HETATM   33  C2  UNL     1      28.866  -0.278  54.400  1.00  0.00     0.125 C 
HETATM   34  C1  UNL     1      29.992  -0.972  53.638  1.00  0.00     0.040 C 
HETATM   35  C3  UNL     1      29.086   1.202  54.274  1.00  0.00     0.040 C 
ENDBRANCH  32  33
ENDBRANCH  29  32
ENDBRANCH   1  28
TORSDOF 5
ENDMDL
MODEL 2
REMARK VINA RESULT:      -9.4      1.379      1.504
REMARK  5 active torsions:
REMARK  status: ('A' for Active; 'I' for Inactive)
REMARK    1  A    between atoms: C2_2  and  O1_4 
REMARK    2  A    between atoms: O1_4  and  C4_5 
REMARK       I    between atoms: C4_5  and  N1_7 
REMARK    3  A    between atoms: N1_7  and  C5_8 
REMARK    4  A    between atoms: C16_24  and  N7_25 
REMARK    5  A    between atoms: N7_25  and  C17_26 
ROOT
HETATM    1  C5  UNL     1      25.054   1.307  52.740  1.00  0.00     0.015 C 
HETATM    2  C6  UNL     1      24.921   2.608  53.098  1.00  0.00     0.020 C 
HETATM    3  C7  UNL     1      24.123   3.916  53.151  1.00  0.00     0.182 C 
HETATM    4  N2  UNL     1      22.897   3.772  52.510  1.00  0.00    -0.248 N 
HETATM    5  N3  UNL     1      22.602   2.486  52.852  1.00  0.00    -0.152 NA
HETATM    6  C8  UNL     1      21.513   1.995  52.413  1.00  0.00     0.149 A 
HETATM    7  C9  UNL     1      21.734   0.669  53.030  1.00  0.00     0.048 C 
HETATM    8  C10 UNL     1      22.936   0.026  52.849  1.00  0.00    -0.017 C 
HETATM    9  C11 UNL     1      23.876   0.812  52.001  1.00  0.00     0.084 C 
HETATM   10  N4  UNL     1      20.986   3.080  51.688  1.00  0.00    -0.324 N 
HETATM   11  C12 UNL     1      21.850   4.232  51.728  1.00  0.00     0.137 A 
HETATM   12  C13 UNL     1      21.580   5.296  51.074  1.00  0.00     0.053 A 
HETATM   13  C14 UNL     1      20.249   5.309  50.378  1.00  0.00     0.196 A 
HETATM   14  N5  UNL     1      19.984   6.537  49.776  1.00  0.00    -0.278 NA
HETATM   15  C15 UNL     1      20.642   7.588  49.647  1.00  0.00     0.229 A 
HETATM   16  N6  UNL     1      21.924   7.574  50.225  1.00  0.00    -0.224 NA
HETATM   17  C16 UNL     1      22.311   6.507  50.856  1.00  0.00     0.141 A 
HETATM   18  H16 UNL     1      20.085   2.790  51.285  1.00  0.00     0.169 HD
ENDROOT
BRANCH  17  19
HETATM   19  N7  UNL     1      23.658   6.530  51.308  1.00  0.00    -0.340 N 
HETATM   20  H20 UNL     1      23.670   6.565  52.370  1.00  0.00     0.167 HD
BRANCH  19  21
HETATM   21  C17 UNL     1      24.797   6.494  50.461  1.00  0.00     0.035 A 
HETATM   22  C18 UNL     1      25.073   5.275  49.892  1.00  0.00     0.029 A 
HETATM   23  C19 UNL     1      26.158   5.093  49.045  1.00  0.00     0.004 A 
HETATM   24  C20 UNL     1      26.938   6.207  48.808  1.00  0.00     0.024 A 
HETATM   25  C21 UNL     1      26.647   7.416  49.384  1.00  0.00     0.036 A 
HETATM   26 CL1  UNL     1      27.700   8.745  49.012  1.00  0.00    -0.084 Cl
HETATM   27  C22 UNL     1      25.581   7.595  50.216  1.00  0.00     0.053 A 
ENDBRANCH  19  21
ENDBRANCH  17  19
BRANCH   1  28
HETATM   28  N1  UNL     1      26.135   0.370  52.942  1.00  0.00    -0.306 N 
HETATM   29  C4  UNL     1      26.627   0.309  54.259  1.00  0.00     0.365 C 
HETATM   30  O2  UNL     1      26.359   0.879  55.333  1.00  0.00    -0.238 OA
HETATM   31  H8  UNL     1      26.529  -0.221  52.190  1.00  0.00     0.171 HD
BRANCH  29  32
HETATM   32  O1  UNL     1      27.650  -0.565  54.497  1.00  0.00    -0.299 OA
BRANCH  32  33
HETATM   33  C2  UNL     1      29.018  -0.321  54.391  1.00  0.00     0.125 C 
HETATM   34  C1  UNL     1      29.666  -1.307  53.422  1.00  0.00     0.040 C 
HETATM   35  C3  UNL     1      29.355   1.063  53.914  1.00  0.00     0.040 C 
ENDBRANCH  32  33
ENDBRANCH  29  32
ENDBRANCH   1  28
TORSDOF 5
ENDMDL
MODEL 3
REMARK VINA RESULT:      -9.1      1.491      1.993
REMARK  5 active torsions:
REMARK  status: ('A' for Active; 'I' for Inactive)
REMARK    1  A    between atoms: C2_2  and  O1_4 
REMARK    2  A    between atoms: O1_4  and  C4_5 
REMARK       I    between atoms: C4_5  and  N1_7 
REMARK    3  A    between atoms: N1_7  and  C5_8 
REMARK    4  A    between atoms: C16_24  and  N7_25 
REMARK    5  A    between atoms: N7_25  and  C17_26 
ROOT
HETATM    1  C5  UNL     1      24.997   2.394  53.171  1.00  0.00     0.015 C 
HETATM    2  C6  UNL     1      24.174   3.443  52.920  1.00  0.00     0.020 C 
HETATM    3  C7  UNL     1      22.958   4.066  52.226  1.00  0.00     0.182 C 
HETATM    4  N2  UNL     1      22.331   3.136  51.402  1.00  0.00    -0.248 N 
HETATM    5  N3  UNL     1      22.503   2.007  52.146  1.00  0.00    -0.152 NA
HETATM    6  C8  UNL     1      22.047   0.916  51.675  1.00  0.00     0.149 A 
HETATM    7  C9  UNL     1      22.524   0.098  52.812  1.00  0.00     0.048 C 
HETATM    8  C10 UNL     1      23.829   0.209  53.231  1.00  0.00    -0.017 C 
HETATM    9  C11 UNL     1      24.603   1.189  52.416  1.00  0.00     0.084 C 
HETATM   10  N4  UNL     1      21.480   1.347  50.462  1.00  0.00    -0.324 N 
HETATM   11  C12 UNL     1      21.648   2.763  50.256  1.00  0.00     0.137 A 
HETATM   12  C13 UNL     1      21.262   3.335  49.180  1.00  0.00     0.053 A 
HETATM   13  C14 UNL     1      20.509   2.462  48.216  1.00  0.00     0.196 A 
HETATM   14  N5  UNL     1      20.034   3.180  47.121  1.00  0.00    -0.278 NA
HETATM   15  C15 UNL     1      20.157   4.365  46.754  1.00  0.00     0.229 A 
HETATM   16  N6  UNL     1      20.923   5.185  47.602  1.00  0.00    -0.224 NA
HETATM   17  C16 UNL     1      21.413   4.671  48.689  1.00  0.00     0.141 A 
HETATM   18  H16 UNL     1      21.069   0.531  49.991  1.00  0.00     0.169 HD
ENDROOT
BRANCH  17  19
HETATM   19  N7  UNL     1      22.269   5.531  49.429  1.00  0.00    -0.340 N 
HETATM   20  H20 UNL     1      21.749   5.893  50.281  1.00  0.00     0.167 HD
BRANCH  19  21
HETATM   21  C17 UNL     1      23.612   5.833  49.078  1.00  0.00     0.035 A 
HETATM   22  C18 UNL     1      23.820   7.089  48.563  1.00  0.00     0.029 A 
HETATM   23  C19 UNL     1      25.082   7.519  48.175  1.00  0.00     0.004 A 
HETATM   24  C20 UNL     1      26.111   6.613  48.340  1.00  0.00     0.024 A 
HETATM   25  C21 UNL     1      25.883   5.363  48.856  1.00  0.00     0.036 A 
HETATM   26 CL1  UNL     1      27.255   4.310  49.015  1.00  0.00    -0.084 Cl
HETATM   27  C22 UNL     1      24.644   4.941  49.237  1.00  0.00     0.053 A 
ENDBRANCH  19  21
ENDBRANCH  17  19
BRANCH   1  28
HETATM   28  N1  UNL     1      26.166   2.281  54.012  1.00  0.00    -0.306 N 
HETATM   29  C4  UNL     1      27.393   2.277  53.325  1.00  0.00     0.365 C 
HETATM   30  O2  UNL     1      27.741   2.346  52.130  1.00  0.00    -0.238 OA
HETATM   31  H8  UNL     1      26.124   2.209  55.044  1.00  0.00     0.171 HD
BRANCH  29  32
HETATM   32  O1  UNL     1      28.526   2.172  54.081  1.00  0.00    -0.299 OA
BRANCH  32  33
HETATM   33  C2  UNL     1      29.119   1.007  54.566  1.00  0.00     0.125 C 
HETATM   34  C1  UNL     1      28.055   0.014  55.026  1.00  0.00     0.040 C 
HETATM   35  C3  UNL     1      29.987   0.302  53.563  1.00  0.00     0.040 C 
ENDBRANCH  32  33
ENDBRANCH  29  32
ENDBRANCH   1  28
TORSDOF 5
ENDMDL
MODEL 4
REMARK VINA RESULT:      -9.0      2.199      3.085
REMARK  5 active torsions:
REMARK  status: ('A' for Active; 'I' for Inactive)
REMARK    1  A    between atoms: C2_2  and  O1_4 
REMARK    2  A    between atoms: O1_4  and  C4_5 
REMARK       I    between atoms: C4_5  and  N1_7 
REMARK    3  A    between atoms: N1_7  and  C5_8 
REMARK    4  A    between atoms: C16_24  and  N7_25 
REMARK    5  A    between atoms: N7_25  and  C17_26 
ROOT
HETATM    1  C5  UNL     1      24.580  -0.004  53.248  1.00  0.00     0.015 C 
HETATM    2  C6  UNL     1      24.231   1.243  52.844  1.00  0.00     0.020 C 
HETATM    3  C7  UNL     1      23.185   2.276  52.412  1.00  0.00     0.182 C 
HETATM    4  N2  UNL     1      21.914   1.710  52.387  1.00  0.00    -0.248 N 
HETATM    5  N3  UNL     1      22.009   0.870  53.456  1.00  0.00    -0.152 NA
HETATM    6  C8  UNL     1      20.994   0.155  53.735  1.00  0.00     0.149 A 
HETATM    7  C9  UNL     1      21.648  -0.524  54.875  1.00  0.00     0.048 C 
HETATM    8  C10 UNL     1      22.895  -1.080  54.712  1.00  0.00    -0.017 C 
HETATM    9  C11 UNL     1      23.415  -0.906  53.326  1.00  0.00     0.084 C 
HETATM   10  N4  UNL     1      20.082   0.559  52.742  1.00  0.00    -0.324 N 
HETATM   11  C12 UNL     1      20.642   1.552  51.861  1.00  0.00     0.137 A 
HETATM   12  C13 UNL     1      19.994   1.996  50.853  1.00  0.00     0.053 A 
HETATM   13  C14 UNL     1      18.576   1.517  50.731  1.00  0.00     0.196 A 
HETATM   14  N5  UNL     1      17.907   2.124  49.670  1.00  0.00    -0.278 NA
HETATM   15  C15 UNL     1      18.258   2.923  48.780  1.00  0.00     0.229 A 
HETATM   16  N6  UNL     1      19.604   3.328  48.828  1.00  0.00    -0.224 NA
HETATM   17  C16 UNL     1      20.358   2.874  49.782  1.00  0.00     0.141 A 
HETATM   18  H16 UNL     1      19.207   0.037  52.878  1.00  0.00     0.169 HD
ENDROOT
BRANCH  17  19
HETATM   19  N7  UNL     1      21.729   3.237  49.691  1.00  0.00    -0.340 N 
HETATM   20  H20 UNL     1      22.318   2.358  49.596  1.00  0.00     0.167 HD
BRANCH  19  21
HETATM   21  C17 UNL     1      22.216   4.571  49.710  1.00  0.00     0.035 A 
HETATM   22  C18 UNL     1      21.759   5.353  50.742  1.00  0.00     0.029 A 
HETATM   23  C19 UNL     1      22.150   6.678  50.883  1.00  0.00     0.004 A 
HETATM   24  C20 UNL     1      23.023   7.160  49.928  1.00  0.00     0.024 A 
HETATM   25  C21 UNL     1      23.468   6.364  48.904  1.00  0.00     0.036 A 
HETATM   26 CL1  UNL     1      24.561   7.080  47.762  1.00  0.00    -0.084 Cl
HETATM   27  C22 UNL     1      23.084   5.062  48.765  1.00  0.00     0.053 A 
ENDBRANCH  19  21
ENDBRANCH  17  19
BRANCH   1  28
HETATM   28  N1  UNL     1      25.865  -0.572  53.581  1.00  0.00    -0.306 N 
HETATM   29  C4  UNL     1      26.556   0.089  54.613  1.00  0.00     0.365 C 
HETATM   30  O2  UNL     1      26.333   1.077  55.338  1.00  0.00    -0.238 OA
HETATM   31  H8  UNL     1      26.264  -1.403  53.110  1.00  0.00     0.171 HD
BRANCH  29  32
HETATM   32  O1  UNL     1      27.777  -0.415  54.962  1.00  0.00    -0.299 OA
BRANCH  32  33
HETATM   33  C2  UNL     1      29.011  -0.135  54.376  1.00  0.00     0.125 C 
HETATM   34  C1  UNL     1      29.464  -1.299  53.498  1.00  0.00     0.040 C 
HETATM   35  C3  UNL     1      29.014   1.099  53.521  1.00  0.00     0.040 C 
ENDBRANCH  32  33
ENDBRANCH  29  32
ENDBRANCH   1  28
TORSDOF 5
ENDMDL
MODEL 5
REMARK VINA RESULT:      -9.0      3.607      7.043
REMARK  5 active torsions:
REMARK  status: ('A' for Active; 'I' for Inactive)
REMARK    1  A    between atoms: C2_2  and  O1_4 
REMARK    2  A    between atoms: O1_4  and  C4_5 
REMARK       I    between atoms: C4_5  and  N1_7 
REMARK    3  A    between atoms: N1_7  and  C5_8 
REMARK    4  A    between atoms: C16_24  and  N7_25 
REMARK    5  A    between atoms: N7_25  and  C17_26 
ROOT
HETATM    1  C5  UNL     1      20.179   0.884  52.153  1.00  0.00     0.015 C 
HETATM    2  C6  UNL     1      21.247   0.871  51.319  1.00  0.00     0.020 C 
HETATM    3  C7  UNL     1      22.746   0.690  51.050  1.00  0.00     0.182 C 
HETATM    4  N2  UNL     1      23.425   0.394  52.227  1.00  0.00    -0.248 N 
HETATM    5  N3  UNL     1      22.490  -0.377  52.852  1.00  0.00    -0.152 NA
HETATM    6  C8  UNL     1      22.776  -0.831  54.006  1.00  0.00     0.149 A 
HETATM    7  C9  UNL     1      21.473  -1.508  54.184  1.00  0.00     0.048 C 
HETATM    8  C10 UNL     1      20.308  -0.812  53.956  1.00  0.00    -0.017 C 
HETATM    9  C11 UNL     1      20.563   0.599  53.549  1.00  0.00     0.084 C 
HETATM   10  N4  UNL     1      24.074  -0.322  54.196  1.00  0.00    -0.324 N 
HETATM   11  C12 UNL     1      24.517   0.469  53.076  1.00  0.00     0.137 A 
HETATM   12  C13 UNL     1      25.643   1.075  53.087  1.00  0.00     0.053 A 
HETATM   13  C14 UNL     1      26.517   0.798  54.276  1.00  0.00     0.196 A 
HETATM   14  N5  UNL     1      27.763   1.411  54.165  1.00  0.00    -0.278 NA
HETATM   15  C15 UNL     1      28.268   2.179  53.323  1.00  0.00     0.229 A 
HETATM   16  N6  UNL     1      27.440   2.515  52.237  1.00  0.00    -0.224 NA
HETATM   17  C16 UNL     1      26.252   1.997  52.177  1.00  0.00     0.141 A 
HETATM   18  H16 UNL     1      24.412  -0.639  55.114  1.00  0.00     0.169 HD
ENDROOT
BRANCH  17  19
HETATM   19  N7  UNL     1      25.439   2.476  51.114  1.00  0.00    -0.340 N 
HETATM   20  H20 UNL     1      24.739   1.725  50.842  1.00  0.00     0.167 HD
BRANCH  19  21
HETATM   21  C17 UNL     1      25.547   3.767  50.531  1.00  0.00     0.035 A 
HETATM   22  C18 UNL     1      26.498   3.894  49.549  1.00  0.00     0.029 A 
HETATM   23  C19 UNL     1      26.716   5.099  48.895  1.00  0.00     0.004 A 
HETATM   24  C20 UNL     1      25.920   6.157  49.287  1.00  0.00     0.024 A 
HETATM   25  C21 UNL     1      24.975   6.010  50.270  1.00  0.00     0.036 A 
HETATM   26 CL1  UNL     1      24.035   7.412  50.679  1.00  0.00    -0.084 Cl
HETATM   27  C22 UNL     1      24.761   4.827  50.913  1.00  0.00     0.053 A 
ENDBRANCH  19  21
ENDBRANCH  17  19
BRANCH   1  28
HETATM   28  N1  UNL     1      18.779   1.141  51.904  1.00  0.00    -0.306 N 
HETATM   29  C4  UNL     1      18.429   2.502  51.840  1.00  0.00     0.365 C 
HETATM   30  O2  UNL     1      19.041   3.581  51.950  1.00  0.00    -0.238 OA
HETATM   31  H8  UNL     1      18.074   0.394  51.777  1.00  0.00     0.171 HD
BRANCH  29  32
HETATM   32  O1  UNL     1      17.115   2.792  51.605  1.00  0.00    -0.299 OA
BRANCH  32  33
HETATM   33  C2  UNL     1      16.501   4.043  51.644  1.00  0.00     0.125 C 
HETATM   34  C1  UNL     1      15.746   4.312  50.345  1.00  0.00     0.040 C 
HETATM   35  C3  UNL     1      15.524   4.208  52.773  1.00  0.00     0.040 C 
ENDBRANCH  32  33
ENDBRANCH  29  32
ENDBRANCH   1  28
TORSDOF 5
ENDMDL
MODEL 6
REMARK VINA RESULT:      -8.9      3.719      7.393
REMARK  5 active torsions:
REMARK  status: ('A' for Active; 'I' for Inactive)
REMARK    1  A    between atoms: C2_2  and  O1_4 
REMARK    2  A    between atoms: O1_4  and  C4_5 
REMARK       I    between atoms: C4_5  and  N1_7 
REMARK    3  A    between atoms: N1_7  and  C5_8 
REMARK    4  A    between atoms: C16_24  and  N7_25 
REMARK    5  A    between atoms: N7_25  and  C17_26 
ROOT
HETATM    1  C5  UNL     1      26.509   6.107  48.868  1.00  0.00     0.015 C 
HETATM    2  C6  UNL     1      26.765   4.785  49.028  1.00  0.00     0.020 C 
HETATM    3  C7  UNL     1      26.330   3.363  49.402  1.00  0.00     0.182 C 
HETATM    4  N2  UNL     1      25.000   3.346  49.808  1.00  0.00    -0.248 N 
HETATM    5  N3  UNL     1      24.484   4.288  48.968  1.00  0.00    -0.152 NA
HETATM    6  C8  UNL     1      23.244   4.551  49.069  1.00  0.00     0.149 A 
HETATM    7  C9  UNL     1      23.265   5.589  48.014  1.00  0.00     0.048 C 
HETATM    8  C10 UNL     1      24.216   6.581  48.055  1.00  0.00    -0.017 C 
HETATM    9  C11 UNL     1      25.121   6.449  49.233  1.00  0.00     0.084 C 
HETATM   10  N4  UNL     1      22.851   3.675  50.098  1.00  0.00    -0.324 N 
HETATM   11  C12 UNL     1      23.954   2.891  50.595  1.00  0.00     0.137 A 
HETATM   12  C13 UNL     1      23.815   2.086  51.577  1.00  0.00     0.053 A 
HETATM   13  C14 UNL     1      22.411   1.916  52.083  1.00  0.00     0.196 A 
HETATM   14  N5  UNL     1      22.327   0.949  53.082  1.00  0.00    -0.278 NA
HETATM   15  C15 UNL     1      23.175   0.252  53.674  1.00  0.00     0.229 A 
HETATM   16  N6  UNL     1      24.508   0.448  53.270  1.00  0.00    -0.224 NA
HETATM   17  C16 UNL     1      24.752   1.299  52.320  1.00  0.00     0.141 A 
HETATM   18  H16 UNL     1      21.845   3.803  50.263  1.00  0.00     0.169 HD
ENDROOT
BRANCH  17  19
HETATM   19  N7  UNL     1      26.129   1.525  52.053  1.00  0.00    -0.340 N 
HETATM   20  H20 UNL     1      26.222   2.243  51.275  1.00  0.00     0.167 HD
BRANCH  19  21
HETATM   21  C17 UNL     1      27.201   0.894  52.739  1.00  0.00     0.035 A 
HETATM   22  C18 UNL     1      27.936   1.709  53.564  1.00  0.00     0.029 A 
HETATM   23  C19 UNL     1      29.015   1.227  54.294  1.00  0.00     0.004 A 
HETATM   24  C20 UNL     1      29.301  -0.115  54.143  1.00  0.00     0.024 A 
HETATM   25  C21 UNL     1      28.555  -0.913  53.314  1.00  0.00     0.036 A 
HETATM   26 CL1  UNL     1      29.012  -2.584  53.203  1.00  0.00    -0.084 Cl
HETATM   27  C22 UNL     1      27.496  -0.440  52.597  1.00  0.00     0.053 A 
ENDBRANCH  19  21
ENDBRANCH  17  19
BRANCH   1  28
HETATM   28  N1  UNL     1      27.354   7.194  48.432  1.00  0.00    -0.306 N 
HETATM   29  C4  UNL     1      27.428   8.281  49.322  1.00  0.00     0.365 C 
HETATM   30  O2  UNL     1      26.931   8.554  50.431  1.00  0.00    -0.238 OA
HETATM   31  H8  UNL     1      27.875   7.191  47.537  1.00  0.00     0.171 HD
BRANCH  29  32
HETATM   32  O1  UNL     1      28.217   9.332  48.951  1.00  0.00    -0.299 OA
BRANCH  32  33
HETATM   33  C2  UNL     1      29.493   9.644  49.419  1.00  0.00     0.125 C 
HETATM   34  C1  UNL     1      30.477   8.526  49.081  1.00  0.00     0.040 C 
HETATM   35  C3  UNL     1      30.054  10.919  48.858  1.00  0.00     0.040 C 
ENDBRANCH  32  33
ENDBRANCH  29  32
ENDBRANCH   1  28
TORSDOF 5
ENDMDL
MODEL 7
REMARK VINA RESULT:      -8.9      4.331      7.631
REMARK  5 active torsions:
REMARK  status: ('A' for Active; 'I' for Inactive)
REMARK    1  A    between atoms: C2_2  and  O1_4 
REMARK    2  A    between atoms: O1_4  and  C4_5 
REMARK       I    between atoms: C4_5  and  N1_7 
REMARK    3  A    between atoms: N1_7  and  C5_8 
REMARK    4  A    between atoms: C16_24  and  N7_25 
REMARK    5  A    between atoms: N7_25  and  C17_26 
ROOT
HETATM    1  C5  UNL     1      29.375   6.801  48.271  1.00  0.00     0.015 C 
HETATM    2  C6  UNL     1      28.881   5.543  48.378  1.00  0.00     0.020 C 
HETATM    3  C7  UNL     1      27.733   4.564  48.652  1.00  0.00     0.182 C 
HETATM    4  N2  UNL     1      26.567   5.251  48.976  1.00  0.00    -0.248 N 
HETATM    5  N3  UNL     1      26.695   6.333  48.157  1.00  0.00    -0.152 NA
HETATM    6  C8  UNL     1      25.777   7.214  48.198  1.00  0.00     0.149 A 
HETATM    7  C9  UNL     1      26.426   8.094  47.200  1.00  0.00     0.048 C 
HETATM    8  C10 UNL     1      27.751   8.430  47.349  1.00  0.00    -0.017 C 
HETATM    9  C11 UNL     1      28.355   7.824  48.570  1.00  0.00     0.084 C 
HETATM   10  N4  UNL     1      24.903   6.668  49.155  1.00  0.00    -0.324 N 
HETATM   11  C12 UNL     1      25.382   5.412  49.675  1.00  0.00     0.137 A 
HETATM   12  C13 UNL     1      24.762   4.792  50.605  1.00  0.00     0.053 A 
HETATM   13  C14 UNL     1      23.447   5.387  51.017  1.00  0.00     0.196 A 
HETATM   14  N5  UNL     1      22.787   4.600  51.958  1.00  0.00    -0.278 NA
HETATM   15  C15 UNL     1      23.089   3.552  52.562  1.00  0.00     0.229 A 
HETATM   16  N6  UNL     1      24.351   3.015  52.249  1.00  0.00    -0.224 NA
HETATM   17  C16 UNL     1      25.081   3.618  51.361  1.00  0.00     0.141 A 
HETATM   18  H16 UNL     1      24.107   7.308  49.266  1.00  0.00     0.169 HD
ENDROOT
BRANCH  17  19
HETATM   19  N7  UNL     1      26.385   3.081  51.188  1.00  0.00    -0.340 N 
HETATM   20  H20 UNL     1      26.890   3.626  50.428  1.00  0.00     0.167 HD
BRANCH  19  21
HETATM   21  C17 UNL     1      26.920   1.998  51.934  1.00  0.00     0.035 A 
HETATM   22  C18 UNL     1      27.852   2.337  52.884  1.00  0.00     0.029 A 
HETATM   23  C19 UNL     1      28.460   1.380  53.685  1.00  0.00     0.004 A 
HETATM   24  C20 UNL     1      28.072   0.072  53.471  1.00  0.00     0.024 A 
HETATM   25  C21 UNL     1      27.140  -0.247  52.518  1.00  0.00     0.036 A 
HETATM   26 CL1  UNL     1      26.733  -1.926  52.339  1.00  0.00    -0.084 Cl
HETATM   27  C22 UNL     1      26.543   0.693  51.731  1.00  0.00     0.053 A 
ENDBRANCH  19  21
ENDBRANCH  17  19
BRANCH   1  28
HETATM   28  N1  UNL     1      30.698   7.279  47.942  1.00  0.00    -0.306 N 
HETATM   29  C4  UNL     1      31.691   6.976  48.892  1.00  0.00     0.365 C 
HETATM   30  O2  UNL     1      31.719   6.380  49.986  1.00  0.00    -0.238 OA
HETATM   31  H8  UNL     1      30.919   7.804  47.078  1.00  0.00     0.171 HD
BRANCH  29  32
HETATM   32  O1  UNL     1      32.958   7.408  48.622  1.00  0.00    -0.299 OA
BRANCH  32  33
HETATM   33  C2  UNL     1      34.111   6.634  48.497  1.00  0.00     0.125 C 
HETATM   34  C1  UNL     1      34.023   5.736  47.266  1.00  0.00     0.040 C 
HETATM   35  C3  UNL     1      35.374   7.437  48.377  1.00  0.00     0.040 C 
ENDBRANCH  32  33
ENDBRANCH  29  32
ENDBRANCH   1  28
TORSDOF 5
ENDMDL
MODEL 8
REMARK VINA RESULT:      -8.2      4.131      8.658
REMARK  5 active torsions:
REMARK  status: ('A' for Active; 'I' for Inactive)
REMARK    1  A    between atoms: C2_2  and  O1_4 
REMARK    2  A    between atoms: O1_4  and  C4_5 
REMARK       I    between atoms: C4_5  and  N1_7 
REMARK    3  A    between atoms: N1_7  and  C5_8 
REMARK    4  A    between atoms: C16_24  and  N7_25 
REMARK    5  A    between atoms: N7_25  and  C17_26 
ROOT
HETATM    1  C5  UNL     1      22.717   5.616  49.640  1.00  0.00     0.015 C 
HETATM    2  C6  UNL     1      22.792   5.170  50.918  1.00  0.00     0.020 C 
HETATM    3  C7  UNL     1      23.474   4.357  52.024  1.00  0.00     0.182 C 
HETATM    4  N2  UNL     1      24.599   3.703  51.533  1.00  0.00    -0.248 N 
HETATM    5  N3  UNL     1      25.050   4.640  50.651  1.00  0.00    -0.152 NA
HETATM    6  C8  UNL     1      26.099   4.365  49.985  1.00  0.00     0.149 A 
HETATM    7  C9  UNL     1      26.086   5.637  49.229  1.00  0.00     0.048 C 
HETATM    8  C10 UNL     1      24.929   6.049  48.610  1.00  0.00    -0.017 C 
HETATM    9  C11 UNL     1      23.810   5.083  48.803  1.00  0.00     0.084 C 
HETATM   10  N4  UNL     1      26.419   3.085  50.475  1.00  0.00    -0.324 N 
HETATM   11  C12 UNL     1      25.476   2.632  51.466  1.00  0.00     0.137 A 
HETATM   12  C13 UNL     1      25.554   1.465  51.982  1.00  0.00     0.053 A 
HETATM   13  C14 UNL     1      26.761   0.663  51.589  1.00  0.00     0.196 A 
HETATM   14  N5  UNL     1      26.828  -0.551  52.270  1.00  0.00    -0.278 NA
HETATM   15  C15 UNL     1      26.071  -1.122  53.080  1.00  0.00     0.229 A 
HETATM   16  N6  UNL     1      24.896  -0.423  53.406  1.00  0.00    -0.224 NA
HETATM   17  C16 UNL     1      24.698   0.745  52.876  1.00  0.00     0.141 A 
HETATM   18  H16 UNL     1      27.271   2.762  50.000  1.00  0.00     0.169 HD
ENDROOT
BRANCH  17  19
HETATM   19  N7  UNL     1      23.437   1.332  53.163  1.00  0.00    -0.340 N 
HETATM   20  H20 UNL     1      23.571   2.130  53.852  1.00  0.00     0.167 HD
BRANCH  19  21
HETATM   21  C17 UNL     1      22.202   0.917  52.597  1.00  0.00     0.035 A 
HETATM   22  C18 UNL     1      22.019   1.242  51.276  1.00  0.00     0.029 A 
HETATM   23  C19 UNL     1      20.858   0.901  50.594  1.00  0.00     0.004 A 
HETATM   24  C20 UNL     1      19.904   0.217  51.321  1.00  0.00     0.024 A 
HETATM   25  C21 UNL     1      20.106  -0.100  52.640  1.00  0.00     0.036 A 
HETATM   26 CL1  UNL     1      18.835  -0.961  53.451  1.00  0.00    -0.084 Cl
HETATM   27  C22 UNL     1      21.246   0.235  53.309  1.00  0.00     0.053 A 
ENDBRANCH  19  21
ENDBRANCH  17  19
BRANCH   1  28
HETATM   28  N1  UNL     1      21.762   6.482  48.988  1.00  0.00    -0.306 N 
HETATM   29  C4  UNL     1      21.861   7.841  49.335  1.00  0.00     0.365 C 
HETATM   30  O2  UNL     1      22.588   8.513  50.090  1.00  0.00    -0.238 OA
HETATM   31  H8  UNL     1      21.053   6.146  48.313  1.00  0.00     0.171 HD
BRANCH  29  32
HETATM   32  O1  UNL     1      20.977   8.697  48.741  1.00  0.00    -0.299 OA
BRANCH  32  33
HETATM   33  C2  UNL     1      20.437   9.866  49.276  1.00  0.00     0.125 C 
HETATM   34  C1  UNL     1      20.876  11.082  48.463  1.00  0.00     0.040 C 
HETATM   35  C3  UNL     1      18.936   9.878  49.325  1.00  0.00     0.040 C 
ENDBRANCH  32  33
ENDBRANCH  29  32
ENDBRANCH   1  28
TORSDOF 5
ENDMDL
MODEL 9
REMARK VINA RESULT:      -8.1      3.472      7.492
REMARK  5 active torsions:
REMARK  status: ('A' for Active; 'I' for Inactive)
REMARK    1  A    between atoms: C2_2  and  O1_4 
REMARK    2  A    between atoms: O1_4  and  C4_5 
REMARK       I    between atoms: C4_5  and  N1_7 
REMARK    3  A    between atoms: N1_7  and  C5_8 
REMARK    4  A    between atoms: C16_24  and  N7_25 
REMARK    5  A    between atoms: N7_25  and  C17_26 
ROOT
HETATM    1  C5  UNL     1      21.940   4.141  49.914  1.00  0.00     0.015 C 
HETATM    2  C6  UNL     1      22.889   3.176  49.998  1.00  0.00     0.020 C 
HETATM    3  C7  UNL     1      23.399   1.829  50.524  1.00  0.00     0.182 C 
HETATM    4  N2  UNL     1      22.461   1.242  51.367  1.00  0.00    -0.248 N 
HETATM    5  N3  UNL     1      21.311   1.624  50.743  1.00  0.00    -0.152 NA
HETATM    6  C8  UNL     1      20.209   1.260  51.265  1.00  0.00     0.149 A 
HETATM    7  C9  UNL     1      19.376   1.943  50.250  1.00  0.00     0.048 C 
HETATM    8  C10 UNL     1      19.624   3.260  49.942  1.00  0.00    -0.017 C 
HETATM    9  C11 UNL     1      20.754   3.824  50.734  1.00  0.00     0.084 C 
HETATM   10  N4  UNL     1      20.653   0.526  52.381  1.00  0.00    -0.324 N 
HETATM   11  C12 UNL     1      22.091   0.499  52.476  1.00  0.00     0.137 A 
HETATM   12  C13 UNL     1      22.687  -0.059  53.459  1.00  0.00     0.053 A 
HETATM   13  C14 UNL     1      21.799  -0.792  54.424  1.00  0.00     0.196 A 
HETATM   14  N5  UNL     1      22.530  -1.457  55.407  1.00  0.00    -0.278 NA
HETATM   15  C15 UNL     1      23.745  -1.516  55.678  1.00  0.00     0.229 A 
HETATM   16  N6  UNL     1      24.591  -0.776  54.833  1.00  0.00    -0.224 NA
HETATM   17  C16 UNL     1      24.064  -0.122  53.843  1.00  0.00     0.141 A 
HETATM   18  H16 UNL     1      19.828   0.174  52.882  1.00  0.00     0.169 HD
ENDROOT
BRANCH  17  19
HETATM   19  N7  UNL     1      24.969   0.693  53.110  1.00  0.00    -0.340 N 
HETATM   20  H20 UNL     1      24.422   1.309  52.440  1.00  0.00     0.167 HD
BRANCH  19  21
HETATM   21  C17 UNL     1      26.380   0.684  53.273  1.00  0.00     0.035 A 
HETATM   22  C18 UNL     1      26.957   1.909  53.497  1.00  0.00     0.029 A 
HETATM   23  C19 UNL     1      28.328   2.050  53.672  1.00  0.00     0.004 A 
HETATM   24  C20 UNL     1      29.072   0.889  53.608  1.00  0.00     0.024 A 
HETATM   25  C21 UNL     1      28.478  -0.325  53.383  1.00  0.00     0.036 A 
HETATM   26 CL1  UNL     1      29.516  -1.716  53.322  1.00  0.00    -0.084 Cl
HETATM   27  C22 UNL     1      27.132  -0.464  53.211  1.00  0.00     0.053 A 
ENDBRANCH  19  21
ENDBRANCH  17  19
BRANCH   1  28
HETATM   28  N1  UNL     1      21.916   5.393  49.193  1.00  0.00    -0.306 N 
HETATM   29  C4  UNL     1      22.433   6.494  49.900  1.00  0.00     0.365 C 
HETATM   30  O2  UNL     1      22.922   6.671  51.032  1.00  0.00    -0.238 OA
HETATM   31  H8  UNL     1      21.552   5.491  48.229  1.00  0.00     0.171 HD
BRANCH  29  32
HETATM   32  O1  UNL     1      22.431   7.698  49.256  1.00  0.00    -0.299 OA
BRANCH  32  33
HETATM   33  C2  UNL     1      23.058   8.020  48.053  1.00  0.00     0.125 C 
HETATM   34  C1  UNL     1      23.178   9.534  47.898  1.00  0.00     0.040 C 
HETATM   35  C3  UNL     1      24.437   7.444  47.912  1.00  0.00     0.040 C 
ENDBRANCH  32  33
ENDBRANCH  29  32
ENDBRANCH   1  28
TORSDOF 5
ENDMDL
