MODEL 1
REMARK VINA RESULT:      -9.4      0.000      0.000
REMARK  3 active torsions:
REMARK  status: ('A' for Active; 'I' for Inactive)
REMARK    1  A    between atoms: C8_11  and  N2_12 
REMARK    2  A    between atoms: N2_12  and  C9_13 
REMARK    3  A    between atoms: C13_17  and  C14_18 
ROOT
HETATM    1  C1  UNL     1      18.813   0.776  50.057  1.00  0.00     0.051 C 
HETATM    2  C2  UNL     1      19.176   0.222  51.363  1.00  0.00    -0.026 A 
HETATM    3  C3  UNL     1      20.434   0.272  51.757  1.00  0.00     0.104 A 
HETATM    4  O1  UNL     1      21.564   0.783  51.130  1.00  0.00    -0.333 OA
HETATM    5  C4  UNL     1      22.612   1.663  51.341  1.00  0.00     0.210 C 
HETATM    6  C5  UNL     1      22.184   3.077  51.568  1.00  0.00     0.051 C 
HETATM    7  C6  UNL     1      23.024   4.121  51.540  1.00  0.00     0.110 C 
HETATM    8  F1  UNL     1      22.397   5.320  51.777  1.00  0.00    -0.209 F 
HETATM    9  C7  UNL     1      24.512   4.144  51.288  1.00  0.00     0.191 C 
HETATM   10  N1  UNL     1      25.205   3.164  52.116  1.00  0.00    -0.368 N 
HETATM   11  C8  UNL     1      24.616   2.020  52.725  1.00  0.00     0.130 C 
HETATM   12  C15 UNL     1      23.520   1.326  52.456  1.00  0.00     0.112 C 
HETATM   13  N3  UNL     1      23.624   0.343  53.508  1.00  0.00    -0.240 NA
HETATM   14  C16 UNL     1      22.754  -0.424  54.120  1.00  0.00     0.234 C 
HETATM   15  N4  UNL     1      21.352  -0.651  54.050  1.00  0.00    -0.239 NA
HETATM   16  C17 UNL     1      20.507  -0.353  53.096  1.00  0.00     0.092 A 
HETATM   17  C18 UNL     1      19.149  -0.772  53.437  1.00  0.00     0.035 A 
HETATM   18  C19 UNL     1      18.396  -0.422  52.406  1.00  0.00     0.012 A 
HETATM   19  H8  UNL     1      26.214   3.358  52.245  1.00  0.00     0.161 HD
ENDROOT
BRANCH  11  20
HETATM   20  N2  UNL     1      25.361   1.531  53.847  1.00  0.00    -0.344 N 
HETATM   21  H9  UNL     1      24.844   1.409  54.758  1.00  0.00     0.167 HD
BRANCH  20  22
HETATM   22  C9  UNL     1      26.743   1.214  53.761  1.00  0.00     0.027 A 
HETATM   23  C10 UNL     1      27.708   2.100  53.569  1.00  0.00     0.026 A 
HETATM   24  C11 UNL     1      29.006   1.447  53.530  1.00  0.00    -0.001 A 
HETATM   25  C12 UNL     1      28.768   0.154  53.706  1.00  0.00    -0.007 A 
HETATM   26  C13 UNL     1      27.301  -0.150  53.873  1.00  0.00     0.166 A 
BRANCH  26  27
HETATM   27  C14 UNL     1      26.960  -1.017  52.656  1.00  0.00     0.399 C 
HETATM   28  F2  UNL     1      25.775  -1.696  52.859  1.00  0.00    -0.170 F 
HETATM   29  F3  UNL     1      26.857  -0.284  51.501  1.00  0.00    -0.170 F 
HETATM   30  F4  UNL     1      27.931  -1.980  52.467  1.00  0.00    -0.170 F 
ENDBRANCH  26  27
ENDBRANCH  20  22
ENDBRANCH  11  20
TORSDOF 3
ENDMDL
MODEL 2
REMARK VINA RESULT:      -9.2      2.765      6.913
REMARK  3 active torsions:
REMARK  status: ('A' for Active; 'I' for Inactive)
REMARK    1  A    between atoms: C8_11  and  N2_12 
REMARK    2  A    between atoms: N2_12  and  C9_13 
REMARK    3  A    between atoms: C13_17  and  C14_18 
ROOT
HETATM    1  C1  UNL     1      28.486  -3.010  53.125  1.00  0.00     0.051 C 
HETATM    2  C2  UNL     1      28.830  -1.593  53.253  1.00  0.00    -0.026 A 
HETATM    3  C3  UNL     1      27.928  -0.681  52.947  1.00  0.00     0.104 A 
HETATM    4  O1  UNL     1      26.621  -0.810  52.494  1.00  0.00    -0.333 OA
HETATM    5  C4  UNL     1      25.330  -0.404  52.787  1.00  0.00     0.210 C 
HETATM    6  C5  UNL     1      24.837  -0.858  54.123  1.00  0.00     0.051 C 
HETATM    7  C6  UNL     1      23.552  -0.799  54.499  1.00  0.00     0.110 C 
HETATM    8  F1  UNL     1      23.344  -1.274  55.772  1.00  0.00    -0.209 F 
HETATM    9  C7  UNL     1      22.353  -0.299  53.732  1.00  0.00     0.191 C 
HETATM   10  N1  UNL     1      22.605   1.016  53.153  1.00  0.00    -0.368 N 
HETATM   11  C8  UNL     1      23.885   1.585  52.900  1.00  0.00     0.130 C 
HETATM   12  C15 UNL     1      25.086   1.051  52.733  1.00  0.00     0.112 C 
HETATM   13  N3  UNL     1      25.836   2.267  52.528  1.00  0.00    -0.240 NA
HETATM   14  C16 UNL     1      27.099   2.589  52.674  1.00  0.00     0.234 C 
HETATM   15  N4  UNL     1      28.289   1.928  53.085  1.00  0.00    -0.239 NA
HETATM   16  C17 UNL     1      28.543   0.646  53.168  1.00  0.00     0.092 A 
HETATM   17  C18 UNL     1      29.906   0.404  53.637  1.00  0.00     0.035 A 
HETATM   18  C19 UNL     1      30.042  -0.913  53.677  1.00  0.00     0.012 A 
HETATM   19  H8  UNL     1      21.747   1.547  52.921  1.00  0.00     0.161 HD
ENDROOT
BRANCH  11  20
HETATM   20  N2  UNL     1      23.859   3.015  52.811  1.00  0.00    -0.344 N 
HETATM   21  H9  UNL     1      24.530   3.552  53.422  1.00  0.00     0.167 HD
BRANCH  20  22
HETATM   22  C9  UNL     1      22.976   3.706  51.939  1.00  0.00     0.027 A 
HETATM   23  C10 UNL     1      21.691   3.918  52.183  1.00  0.00     0.026 A 
HETATM   24  C11 UNL     1      21.075   4.653  51.091  1.00  0.00    -0.001 A 
HETATM   25  C12 UNL     1      22.040   4.864  50.204  1.00  0.00    -0.007 A 
HETATM   26  C13 UNL     1      23.364   4.287  50.637  1.00  0.00     0.166 A 
BRANCH  26  27
HETATM   27  C14 UNL     1      23.659   3.210  49.588  1.00  0.00     0.399 C 
HETATM   28  F2  UNL     1      23.272   3.635  48.332  1.00  0.00    -0.170 F 
HETATM   29  F3  UNL     1      24.986   2.866  49.547  1.00  0.00    -0.170 F 
HETATM   30  F4  UNL     1      22.928   2.070  49.853  1.00  0.00    -0.170 F 
ENDBRANCH  26  27
ENDBRANCH  20  22
ENDBRANCH  11  20
TORSDOF 3
ENDMDL
MODEL 3
REMARK VINA RESULT:      -9.1      2.751      6.642
REMARK  3 active torsions:
REMARK  status: ('A' for Active; 'I' for Inactive)
REMARK    1  A    between atoms: C8_11  and  N2_12 
REMARK    2  A    between atoms: N2_12  and  C9_13 
REMARK    3  A    between atoms: C13_17  and  C14_18 
ROOT
HETATM    1  C1  UNL     1      27.461   5.297  48.474  1.00  0.00     0.051 C 
HETATM    2  C2  UNL     1      26.400   5.833  49.328  1.00  0.00    -0.026 A 
HETATM    3  C3  UNL     1      25.580   5.000  49.937  1.00  0.00     0.104 A 
HETATM    4  O1  UNL     1      25.519   3.611  49.925  1.00  0.00    -0.333 OA
HETATM    5  C4  UNL     1      25.499   2.523  50.781  1.00  0.00     0.210 C 
HETATM    6  C5  UNL     1      26.722   2.392  51.630  1.00  0.00     0.051 C 
HETATM    7  C6  UNL     1      27.024   1.292  52.332  1.00  0.00     0.110 C 
HETATM    8  F1  UNL     1      28.199   1.411  53.035  1.00  0.00    -0.209 F 
HETATM    9  C7  UNL     1      26.268  -0.009  52.443  1.00  0.00     0.191 C 
HETATM   10  N1  UNL     1      24.860   0.220  52.746  1.00  0.00    -0.368 N 
HETATM   11  C8  UNL     1      24.143   1.429  52.520  1.00  0.00     0.130 C 
HETATM   12  C15 UNL     1      24.349   2.453  51.705  1.00  0.00     0.112 C 
HETATM   13  N3  UNL     1      23.204   3.252  52.070  1.00  0.00    -0.240 NA
HETATM   14  C16 UNL     1      22.928   4.532  51.988  1.00  0.00     0.234 C 
HETATM   15  N4  UNL     1      23.591   5.700  51.522  1.00  0.00    -0.239 NA
HETATM   16  C17 UNL     1      24.622   5.809  50.722  1.00  0.00     0.092 A 
HETATM   17  C18 UNL     1      24.978   7.210  50.501  1.00  0.00     0.035 A 
HETATM   18  C19 UNL     1      26.019   7.190  49.684  1.00  0.00     0.012 A 
HETATM   19  H8  UNL     1      24.379  -0.597  53.163  1.00  0.00     0.161 HD
ENDROOT
BRANCH  11  20
HETATM   20  N2  UNL     1      22.973   1.553  53.336  1.00  0.00    -0.344 N 
HETATM   21  H9  UNL     1      22.783   2.492  53.776  1.00  0.00     0.167 HD
BRANCH  20  22
HETATM   22  C9  UNL     1      22.083   0.468  53.558  1.00  0.00     0.027 A 
HETATM   23  C10 UNL     1      22.425  -0.683  54.119  1.00  0.00     0.026 A 
HETATM   24  C11 UNL     1      21.282  -1.577  54.198  1.00  0.00    -0.001 A 
HETATM   25  C12 UNL     1      20.263  -0.912  53.667  1.00  0.00    -0.007 A 
HETATM   26  C13 UNL     1      20.650   0.467  53.196  1.00  0.00     0.166 A 
BRANCH  26  27
HETATM   27  C14 UNL     1      20.437   0.415  51.680  1.00  0.00     0.399 C 
HETATM   28  F2  UNL     1      21.498  -0.215  51.061  1.00  0.00    -0.170 F 
HETATM   29  F3  UNL     1      19.277  -0.232  51.334  1.00  0.00    -0.170 F 
HETATM   30  F4  UNL     1      20.387   1.692  51.159  1.00  0.00    -0.170 F 
ENDBRANCH  26  27
ENDBRANCH  20  22
ENDBRANCH  11  20
TORSDOF 3
ENDMDL
MODEL 4
REMARK VINA RESULT:      -9.0      2.755      4.910
REMARK  3 active torsions:
REMARK  status: ('A' for Active; 'I' for Inactive)
REMARK    1  A    between atoms: C8_11  and  N2_12 
REMARK    2  A    between atoms: N2_12  and  C9_13 
REMARK    3  A    between atoms: C13_17  and  C14_18 
ROOT
HETATM    1  C1  UNL     1      21.548   5.837  51.348  1.00  0.00     0.051 C 
HETATM    2  C2  UNL     1      22.665   5.589  50.435  1.00  0.00    -0.026 A 
HETATM    3  C3  UNL     1      23.608   4.737  50.786  1.00  0.00     0.104 A 
HETATM    4  O1  UNL     1      23.760   3.972  51.936  1.00  0.00    -0.333 OA
HETATM    5  C4  UNL     1      23.957   2.664  52.347  1.00  0.00     0.210 C 
HETATM    6  C5  UNL     1      22.857   1.731  51.957  1.00  0.00     0.051 C 
HETATM    7  C6  UNL     1      22.716   0.497  52.460  1.00  0.00     0.110 C 
HETATM    8  F1  UNL     1      21.629  -0.170  51.948  1.00  0.00    -0.209 F 
HETATM    9  C7  UNL     1      23.566  -0.223  53.477  1.00  0.00     0.191 C 
HETATM   10  N1  UNL     1      24.982  -0.147  53.135  1.00  0.00    -0.368 N 
HETATM   11  C8  UNL     1      25.583   0.818  52.277  1.00  0.00     0.130 C 
HETATM   12  C15 UNL     1      25.212   2.030  51.894  1.00  0.00     0.112 C 
HETATM   13  N3  UNL     1      26.336   2.341  51.044  1.00  0.00    -0.240 NA
HETATM   14  C16 UNL     1      26.512   3.167  50.040  1.00  0.00     0.234 C 
HETATM   15  N4  UNL     1      25.721   4.114  49.335  1.00  0.00    -0.239 NA
HETATM   16  C17 UNL     1      24.596   4.685  49.686  1.00  0.00     0.092 A 
HETATM   17  C18 UNL     1      24.122   5.606  48.654  1.00  0.00     0.035 A 
HETATM   18  C19 UNL     1      22.993   6.117  49.120  1.00  0.00     0.012 A 
HETATM   19  H8  UNL     1      25.564  -0.881  53.577  1.00  0.00     0.161 HD
ENDROOT
BRANCH  11  20
HETATM   20  N2  UNL     1      26.832   0.383  51.727  1.00  0.00    -0.344 N 
HETATM   21  H9  UNL     1      26.983   0.524  50.693  1.00  0.00     0.167 HD
BRANCH  20  22
HETATM   22  C9  UNL     1      27.846  -0.214  52.523  1.00  0.00     0.027 A 
HETATM   23  C10 UNL     1      27.903  -1.502  52.828  1.00  0.00     0.026 A 
HETATM   24  C11 UNL     1      29.063  -1.784  53.655  1.00  0.00    -0.001 A 
HETATM   25  C12 UNL     1      29.682  -0.622  53.823  1.00  0.00    -0.007 A 
HETATM   26  C13 UNL     1      28.982   0.516  53.123  1.00  0.00     0.166 A 
BRANCH  26  27
HETATM   27  C14 UNL     1      28.540   1.437  54.265  1.00  0.00     0.399 C 
HETATM   28  F2  UNL     1      28.109   2.652  53.770  1.00  0.00    -0.170 F 
HETATM   29  F3  UNL     1      27.538   0.889  55.024  1.00  0.00    -0.170 F 
HETATM   30  F4  UNL     1      29.606   1.714  55.097  1.00  0.00    -0.170 F 
ENDBRANCH  26  27
ENDBRANCH  20  22
ENDBRANCH  11  20
TORSDOF 3
ENDMDL
MODEL 5
REMARK VINA RESULT:      -9.0      1.976      2.420
REMARK  3 active torsions:
REMARK  status: ('A' for Active; 'I' for Inactive)
REMARK    1  A    between atoms: C8_11  and  N2_12 
REMARK    2  A    between atoms: N2_12  and  C9_13 
REMARK    3  A    between atoms: C13_17  and  C14_18 
ROOT
HETATM    1  C1  UNL     1      20.375   2.545  47.808  1.00  0.00     0.051 C 
HETATM    2  C2  UNL     1      20.258   2.449  49.264  1.00  0.00    -0.026 A 
HETATM    3  C3  UNL     1      21.342   2.240  49.985  1.00  0.00     0.104 A 
HETATM    4  O1  UNL     1      22.669   2.080  49.607  1.00  0.00    -0.333 OA
HETATM    5  C4  UNL     1      23.933   2.587  49.857  1.00  0.00     0.210 C 
HETATM    6  C5  UNL     1      24.086   4.036  49.524  1.00  0.00     0.051 C 
HETATM    7  C6  UNL     1      25.269   4.659  49.447  1.00  0.00     0.110 C 
HETATM    8  F1  UNL     1      25.154   5.990  49.126  1.00  0.00    -0.209 F 
HETATM    9  C7  UNL     1      26.657   4.106  49.659  1.00  0.00     0.191 C 
HETATM   10  N1  UNL     1      26.743   3.351  50.904  1.00  0.00    -0.368 N 
HETATM   11  C8  UNL     1      25.647   2.784  51.613  1.00  0.00     0.130 C 
HETATM   12  C15 UNL     1      24.426   2.431  51.241  1.00  0.00     0.112 C 
HETATM   13  N3  UNL     1      23.944   1.949  52.514  1.00  0.00    -0.240 NA
HETATM   14  C16 UNL     1      22.748   1.798  53.032  1.00  0.00     0.234 C 
HETATM   15  N4  UNL     1      21.409   2.024  52.613  1.00  0.00    -0.239 NA
HETATM   16  C17 UNL     1      20.930   2.188  51.405  1.00  0.00     0.092 A 
HETATM   17  C18 UNL     1      19.483   2.391  51.430  1.00  0.00     0.035 A 
HETATM   18  C19 UNL     1      19.120   2.541  50.165  1.00  0.00     0.012 A 
HETATM   19  H8  UNL     1      27.707   3.246  51.268  1.00  0.00     0.161 HD
ENDROOT
BRANCH  11  20
HETATM   20  N2  UNL     1      25.931   2.551  52.998  1.00  0.00    -0.344 N 
HETATM   21  H9  UNL     1      25.281   2.984  53.707  1.00  0.00     0.167 HD
BRANCH  20  22
HETATM   22  C9  UNL     1      27.036   1.769  53.426  1.00  0.00     0.027 A 
HETATM   23  C10 UNL     1      28.294   2.185  53.435  1.00  0.00     0.026 A 
HETATM   24  C11 UNL     1      29.177   1.142  53.930  1.00  0.00    -0.001 A 
HETATM   25  C12 UNL     1      28.397   0.107  54.210  1.00  0.00    -0.007 A 
HETATM   26  C13 UNL     1      26.942   0.380  53.923  1.00  0.00     0.166 A 
BRANCH  26  27
HETATM   27  C14 UNL     1      26.591  -0.611  52.808  1.00  0.00     0.399 C 
HETATM   28  F2  UNL     1      27.330  -1.770  52.938  1.00  0.00    -0.170 F 
HETATM   29  F3  UNL     1      25.259  -0.936  52.794  1.00  0.00    -0.170 F 
HETATM   30  F4  UNL     1      26.916  -0.080  51.576  1.00  0.00    -0.170 F 
ENDBRANCH  26  27
ENDBRANCH  20  22
ENDBRANCH  11  20
TORSDOF 3
ENDMDL
MODEL 6
REMARK VINA RESULT:      -8.6      3.144      6.342
REMARK  3 active torsions:
REMARK  status: ('A' for Active; 'I' for Inactive)
REMARK    1  A    between atoms: C8_11  and  N2_12 
REMARK    2  A    between atoms: N2_12  and  C9_13 
REMARK    3  A    between atoms: C13_17  and  C14_18 
ROOT
HETATM    1  C1  UNL     1      25.282   7.672  47.835  1.00  0.00     0.051 C 
HETATM    2  C2  UNL     1      26.125   6.563  48.286  1.00  0.00    -0.026 A 
HETATM    3  C3  UNL     1      25.597   5.614  49.033  1.00  0.00     0.104 A 
HETATM    4  O1  UNL     1      24.303   5.448  49.513  1.00  0.00    -0.333 OA
HETATM    5  C4  UNL     1      23.273   4.524  49.545  1.00  0.00     0.210 C 
HETATM    6  C5  UNL     1      22.745   4.154  48.196  1.00  0.00     0.051 C 
HETATM    7  C6  UNL     1      21.600   3.485  48.005  1.00  0.00     0.110 C 
HETATM    8  F1  UNL     1      21.325   3.262  46.678  1.00  0.00    -0.209 F 
HETATM    9  C7  UNL     1      20.613   2.969  49.023  1.00  0.00     0.191 C 
HETATM   10  N1  UNL     1      21.283   2.215  50.077  1.00  0.00    -0.368 N 
HETATM   11  C8  UNL     1      22.661   2.307  50.421  1.00  0.00     0.130 C 
HETATM   12  C15 UNL     1      23.571   3.251  50.231  1.00  0.00     0.112 C 
HETATM   13  N3  UNL     1      24.694   2.597  50.858  1.00  0.00    -0.240 NA
HETATM   14  C16 UNL     1      25.995   2.719  50.740  1.00  0.00     0.234 C 
HETATM   15  N4  UNL     1      26.890   3.517  49.977  1.00  0.00    -0.239 NA
HETATM   16  C17 UNL     1      26.666   4.637  49.336  1.00  0.00     0.092 A 
HETATM   17  C18 UNL     1      27.878   5.125  48.679  1.00  0.00     0.035 A 
HETATM   18  C19 UNL     1      27.529   6.250  48.075  1.00  0.00     0.012 A 
HETATM   19  H8  UNL     1      20.662   1.566  50.592  1.00  0.00     0.161 HD
ENDROOT
BRANCH  11  20
HETATM   20  N2  UNL     1      23.150   1.149  51.108  1.00  0.00    -0.344 N 
HETATM   21  H9  UNL     1      23.988   0.657  50.697  1.00  0.00     0.167 HD
BRANCH  20  22
HETATM   22  C9  UNL     1      22.550   0.662  52.300  1.00  0.00     0.027 A 
HETATM   23  C10 UNL     1      21.542   1.249  52.929  1.00  0.00     0.026 A 
HETATM   24  C11 UNL     1      21.167   0.495  54.114  1.00  0.00    -0.001 A 
HETATM   25  C12 UNL     1      21.985  -0.549  54.155  1.00  0.00    -0.007 A 
HETATM   26  C13 UNL     1      22.962  -0.568  53.007  1.00  0.00     0.166 A 
BRANCH  26  27
HETATM   27  C14 UNL     1      24.329  -0.417  53.682  1.00  0.00     0.399 C 
HETATM   28  F2  UNL     1      25.294  -1.121  52.989  1.00  0.00    -0.170 F 
HETATM   29  F3  UNL     1      24.725   0.893  53.781  1.00  0.00    -0.170 F 
HETATM   30  F4  UNL     1      24.297  -0.952  54.954  1.00  0.00    -0.170 F 
ENDBRANCH  26  27
ENDBRANCH  20  22
ENDBRANCH  11  20
TORSDOF 3
ENDMDL
MODEL 7
REMARK VINA RESULT:      -8.5      3.699      7.085
REMARK  3 active torsions:
REMARK  status: ('A' for Active; 'I' for Inactive)
REMARK    1  A    between atoms: C8_11  and  N2_12 
REMARK    2  A    between atoms: N2_12  and  C9_13 
REMARK    3  A    between atoms: C13_17  and  C14_18 
ROOT
HETATM    1  C1  UNL     1      26.688   9.742  49.328  1.00  0.00     0.051 C 
HETATM    2  C2  UNL     1      27.191   8.478  48.788  1.00  0.00    -0.026 A 
HETATM    3  C3  UNL     1      26.764   7.342  49.302  1.00  0.00     0.104 A 
HETATM    4  O1  UNL     1      25.865   7.091  50.332  1.00  0.00    -0.333 OA
HETATM    5  C4  UNL     1      24.710   6.379  50.610  1.00  0.00     0.210 C 
HETATM    6  C5  UNL     1      23.535   6.776  49.776  1.00  0.00     0.051 C 
HETATM    7  C6  UNL     1      22.276   6.406  50.044  1.00  0.00     0.110 C 
HETATM    8  F1  UNL     1      21.368   6.894  49.135  1.00  0.00    -0.209 F 
HETATM    9  C7  UNL     1      21.749   5.556  51.174  1.00  0.00     0.191 C 
HETATM   10  N1  UNL     1      22.509   4.318  51.306  1.00  0.00    -0.368 N 
HETATM   11  C8  UNL     1      23.826   4.091  50.813  1.00  0.00     0.130 C 
HETATM   12  C15 UNL     1      24.817   4.910  50.494  1.00  0.00     0.112 C 
HETATM   13  N3  UNL     1      25.789   3.924  50.088  1.00  0.00    -0.240 NA
HETATM   14  C16 UNL     1      26.842   3.958  49.307  1.00  0.00     0.234 C 
HETATM   15  N4  UNL     1      27.509   4.936  48.519  1.00  0.00    -0.239 NA
HETATM   16  C17 UNL     1      27.430   6.242  48.571  1.00  0.00     0.092 A 
HETATM   17  C18 UNL     1      28.295   6.867  47.572  1.00  0.00     0.035 A 
HETATM   18  C19 UNL     1      28.132   8.172  47.723  1.00  0.00     0.012 A 
HETATM   19  H8  UNL     1      22.007   3.565  51.808  1.00  0.00     0.161 HD
ENDROOT
BRANCH  11  20
HETATM   20  N2  UNL     1      24.128   2.703  50.631  1.00  0.00    -0.344 N 
HETATM   21  H9  UNL     1      24.507   2.407  49.692  1.00  0.00     0.167 HD
BRANCH  20  22
HETATM   22  C9  UNL     1      23.937   1.742  51.660  1.00  0.00     0.027 A 
HETATM   23  C10 UNL     1      22.756   1.314  52.080  1.00  0.00     0.026 A 
HETATM   24  C11 UNL     1      22.913   0.334  53.142  1.00  0.00    -0.001 A 
HETATM   25  C12 UNL     1      24.220   0.204  53.328  1.00  0.00    -0.007 A 
HETATM   26  C13 UNL     1      25.029   1.083  52.408  1.00  0.00     0.166 A 
BRANCH  26  27
HETATM   27  C14 UNL     1      25.746   2.050  53.356  1.00  0.00     0.399 C 
HETATM   28  F2  UNL     1      26.130   1.402  54.513  1.00  0.00    -0.170 F 
HETATM   29  F3  UNL     1      26.853   2.624  52.784  1.00  0.00    -0.170 F 
HETATM   30  F4  UNL     1      24.891   3.062  53.745  1.00  0.00    -0.170 F 
ENDBRANCH  26  27
ENDBRANCH  20  22
ENDBRANCH  11  20
TORSDOF 3
ENDMDL
MODEL 8
REMARK VINA RESULT:      -8.5      1.753      2.304
REMARK  3 active torsions:
REMARK  status: ('A' for Active; 'I' for Inactive)
REMARK    1  A    between atoms: C8_11  and  N2_12 
REMARK    2  A    between atoms: N2_12  and  C9_13 
REMARK    3  A    between atoms: C13_17  and  C14_18 
ROOT
HETATM    1  C1  UNL     1      17.143   0.366  50.101  1.00  0.00     0.051 C 
HETATM    2  C2  UNL     1      17.630  -0.211  51.355  1.00  0.00    -0.026 A 
HETATM    3  C3  UNL     1      18.917  -0.147  51.636  1.00  0.00     0.104 A 
HETATM    4  O1  UNL     1      19.978   0.399  50.925  1.00  0.00    -0.333 OA
HETATM    5  C4  UNL     1      21.026   1.294  51.063  1.00  0.00     0.210 C 
HETATM    6  C5  UNL     1      20.597   2.694  51.362  1.00  0.00     0.051 C 
HETATM    7  C6  UNL     1      21.414   3.753  51.285  1.00  0.00     0.110 C 
HETATM    8  F1  UNL     1      20.791   4.935  51.606  1.00  0.00    -0.209 F 
HETATM    9  C7  UNL     1      22.872   3.810  50.902  1.00  0.00     0.191 C 
HETATM   10  N1  UNL     1      23.653   2.824  51.640  1.00  0.00    -0.368 N 
HETATM   11  C8  UNL     1      23.139   1.655  52.272  1.00  0.00     0.130 C 
HETATM   12  C15 UNL     1      22.035   0.948  52.084  1.00  0.00     0.112 C 
HETATM   13  N3  UNL     1      22.249  -0.057  53.098  1.00  0.00    -0.240 NA
HETATM   14  C16 UNL     1      21.450  -0.854  53.766  1.00  0.00     0.234 C 
HETATM   15  N4  UNL     1      20.052  -1.106  53.816  1.00  0.00    -0.239 NA
HETATM   16  C17 UNL     1      19.120  -0.801  52.948  1.00  0.00     0.092 A 
HETATM   17  C18 UNL     1      17.805  -1.254  53.398  1.00  0.00     0.035 A 
HETATM   18  C19 UNL     1      16.957  -0.894  52.447  1.00  0.00     0.012 A 
HETATM   19  H8  UNL     1      24.666   3.034  51.685  1.00  0.00     0.161 HD
ENDROOT
BRANCH  11  20
HETATM   20  N2  UNL     1      23.990   1.155  53.310  1.00  0.00    -0.344 N 
HETATM   21  H9  UNL     1      23.732   1.391  54.306  1.00  0.00     0.167 HD
BRANCH  20  22
HETATM   22  C9  UNL     1      25.140   0.368  53.037  1.00  0.00     0.027 A 
HETATM   23  C10 UNL     1      25.424  -0.781  53.631  1.00  0.00     0.026 A 
HETATM   24  C11 UNL     1      26.671  -1.328  53.123  1.00  0.00    -0.001 A 
HETATM   25  C12 UNL     1      27.105  -0.464  52.215  1.00  0.00    -0.007 A 
HETATM   26  C13 UNL     1      26.184   0.718  52.051  1.00  0.00     0.166 A 
BRANCH  26  27
HETATM   27  C14 UNL     1      27.030   1.913  52.503  1.00  0.00     0.399 C 
HETATM   28  F2  UNL     1      26.495   2.484  53.642  1.00  0.00    -0.170 F 
HETATM   29  F3  UNL     1      28.334   1.569  52.753  1.00  0.00    -0.170 F 
HETATM   30  F4  UNL     1      27.023   2.898  51.536  1.00  0.00    -0.170 F 
ENDBRANCH  26  27
ENDBRANCH  20  22
ENDBRANCH  11  20
TORSDOF 3
ENDMDL
MODEL 9
REMARK VINA RESULT:      -8.4      2.210      3.836
REMARK  3 active torsions:
REMARK  status: ('A' for Active; 'I' for Inactive)
REMARK    1  A    between atoms: C8_11  and  N2_12 
REMARK    2  A    between atoms: N2_12  and  C9_13 
REMARK    3  A    between atoms: C13_17  and  C14_18 
ROOT
HETATM    1  C1  UNL     1      16.821   2.794  51.622  1.00  0.00     0.051 C 
HETATM    2  C2  UNL     1      17.872   2.747  50.605  1.00  0.00    -0.026 A 
HETATM    3  C3  UNL     1      19.121   2.547  50.978  1.00  0.00     0.104 A 
HETATM    4  O1  UNL     1      19.675   2.359  52.238  1.00  0.00    -0.333 OA
HETATM    5  C4  UNL     1      20.480   1.481  52.945  1.00  0.00     0.210 C 
HETATM    6  C5  UNL     1      19.921   0.100  53.061  1.00  0.00     0.051 C 
HETATM    7  C6  UNL     1      20.399  -0.826  53.903  1.00  0.00     0.110 C 
HETATM    8  F1  UNL     1      19.721  -2.019  53.830  1.00  0.00    -0.209 F 
HETATM    9  C7  UNL     1      21.541  -0.728  54.884  1.00  0.00     0.191 C 
HETATM   10  N1  UNL     1      22.738  -0.183  54.253  1.00  0.00    -0.368 N 
HETATM   11  C8  UNL     1      22.772   0.591  53.058  1.00  0.00     0.130 C 
HETATM   12  C15 UNL     1      21.859   1.323  52.438  1.00  0.00     0.112 C 
HETATM   13  N3  UNL     1      22.660   1.770  51.324  1.00  0.00    -0.240 NA
HETATM   14  C16 UNL     1      22.376   2.199  50.118  1.00  0.00     0.234 C 
HETATM   15  N4  UNL     1      21.197   2.422  49.355  1.00  0.00    -0.239 NA
HETATM   16  C17 UNL     1      19.957   2.547  49.757  1.00  0.00     0.092 A 
HETATM   17  C18 UNL     1      19.053   2.771  48.630  1.00  0.00     0.035 A 
HETATM   18  C19 UNL     1      17.844   2.883  49.158  1.00  0.00     0.012 A 
HETATM   19  H8  UNL     1      23.617  -0.405  54.751  1.00  0.00     0.161 HD
ENDROOT
BRANCH  11  20
HETATM   20  N2  UNL     1      24.047   0.566  52.406  1.00  0.00    -0.344 N 
HETATM   21  H9  UNL     1      24.061   0.353  51.373  1.00  0.00     0.167 HD
BRANCH  20  22
HETATM   22  C9  UNL     1      25.261   0.816  53.100  1.00  0.00     0.027 A 
HETATM   23  C10 UNL     1      25.722   2.021  53.400  1.00  0.00     0.026 A 
HETATM   24  C11 UNL     1      26.985   1.926  54.112  1.00  0.00    -0.001 A 
HETATM   25  C12 UNL     1      27.246   0.630  54.218  1.00  0.00    -0.007 A 
HETATM   26  C13 UNL     1      26.182  -0.232  53.589  1.00  0.00     0.166 A 
BRANCH  26  27
HETATM   27  C14 UNL     1      26.909  -0.942  52.442  1.00  0.00     0.399 C 
HETATM   28  F2  UNL     1      28.262  -1.034  52.708  1.00  0.00    -0.170 F 
HETATM   29  F3  UNL     1      26.419  -2.201  52.208  1.00  0.00    -0.170 F 
HETATM   30  F4  UNL     1      26.792  -0.213  51.276  1.00  0.00    -0.170 F 
ENDBRANCH  26  27
ENDBRANCH  20  22
ENDBRANCH  11  20
TORSDOF 3
ENDMDL
