MODEL 1
REMARK VINA RESULT:      -8.6      0.000      0.000
REMARK  6 active torsions:
REMARK  status: ('A' for Active; 'I' for Inactive)
REMARK    1  A    between atoms: C2_2  and  O1_3 
REMARK    2  A    between atoms: O1_3  and  C3_4 
REMARK    3  A    between atoms: C3_4  and  C4_5 
REMARK       I    between atoms: C4_5  and  N1_7 
REMARK    4  A    between atoms: N1_7  and  C5_8 
REMARK    5  A    between atoms: C12_17  and  N4_18 
REMARK    6  A    between atoms: N4_18  and  C13_19 
ROOT
HETATM    1  C5  UNL     1      23.577  -0.239  53.692  1.00  0.00     0.035 A 
HETATM    2  C6  UNL     1      22.549  -0.818  54.400  1.00  0.00     0.030 A 
HETATM    3  C7  UNL     1      21.284  -0.736  53.890  1.00  0.00     0.016 A 
HETATM    4  C8  UNL     1      21.045  -0.089  52.694  1.00  0.00     0.000 A 
HETATM    5  C9  UNL     1      19.733  -0.068  52.278  1.00  0.00     0.073 A 
HETATM    6  C10 UNL     1      18.648  -0.663  52.998  1.00  0.00     0.102 C 
HETATM    7  N2  UNL     1      17.773  -1.149  53.589  1.00  0.00    -0.191 NA
HETATM    8  C11 UNL     1      19.463   0.569  51.092  1.00  0.00     0.142 A 
HETATM    9  N3  UNL     1      20.459   1.125  50.412  1.00  0.00    -0.241 NA
HETATM   10  C12 UNL     1      21.748   1.141  50.758  1.00  0.00     0.139 A 
HETATM   11  C19 UNL     1      22.033   0.507  51.943  1.00  0.00     0.024 A 
HETATM   12  C20 UNL     1      23.282   0.392  52.506  1.00  0.00     0.045 A 
ENDROOT
BRANCH  10  13
HETATM   13  N4  UNL     1      22.803   1.732  50.035  1.00  0.00    -0.340 N 
HETATM   14  H10 UNL     1      23.276   1.251  49.262  1.00  0.00     0.167 HD
BRANCH  13  15
HETATM   15  C13 UNL     1      23.395   3.009  50.199  1.00  0.00     0.035 A 
HETATM   16  C14 UNL     1      22.862   4.056  50.922  1.00  0.00     0.029 A 
HETATM   17  C15 UNL     1      23.447   5.286  51.068  1.00  0.00     0.004 A 
HETATM   18  C16 UNL     1      24.654   5.548  50.472  1.00  0.00     0.019 A 
HETATM   19  C17 UNL     1      25.244   4.546  49.732  1.00  0.00     0.013 A 
HETATM   20 BR1  UNL     1      26.906   4.964  48.932  1.00  0.00    -0.051 Br
HETATM   21  C18 UNL     1      24.602   3.331  49.625  1.00  0.00     0.048 A 
ENDBRANCH  13  15
ENDBRANCH  10  13
BRANCH   1  22
HETATM   22  N1  UNL     1      24.908  -0.308  54.196  1.00  0.00    -0.325 N 
HETATM   23  C4  UNL     1      26.022   0.565  54.357  1.00  0.00     0.246 C 
HETATM   24  O2  UNL     1      26.061   1.779  54.030  1.00  0.00    -0.271 OA
HETATM   25  H6  UNL     1      24.959  -1.313  54.496  1.00  0.00     0.169 HD
BRANCH  23  26
HETATM   26  C3  UNL     1      27.240   0.014  54.954  1.00  0.00     0.277 C 
BRANCH  26  27
HETATM   27  O1  UNL     1      28.365   0.849  54.860  1.00  0.00    -0.355 OA
BRANCH  27  28
HETATM   28  C2  UNL     1      29.321   0.464  53.905  1.00  0.00     0.125 C 
HETATM   29  C1  UNL     1      30.003  -0.622  53.557  1.00  0.00     0.037 C 
ENDBRANCH  27  28
ENDBRANCH  26  27
ENDBRANCH  23  26
ENDBRANCH   1  22
TORSDOF 6
ENDMDL
MODEL 2
REMARK VINA RESULT:      -8.4      1.550      2.211
REMARK  6 active torsions:
REMARK  status: ('A' for Active; 'I' for Inactive)
REMARK    1  A    between atoms: C2_2  and  O1_3 
REMARK    2  A    between atoms: O1_3  and  C3_4 
REMARK    3  A    between atoms: C3_4  and  C4_5 
REMARK       I    between atoms: C4_5  and  N1_7 
REMARK    4  A    between atoms: N1_7  and  C5_8 
REMARK    5  A    between atoms: C12_17  and  N4_18 
REMARK    6  A    between atoms: N4_18  and  C13_19 
ROOT
HETATM    1  C5  UNL     1      24.252   0.565  53.248  1.00  0.00     0.035 A 
HETATM    2  C6  UNL     1      23.209  -0.330  53.187  1.00  0.00     0.030 A 
HETATM    3  C7  UNL     1      22.064   0.055  52.549  1.00  0.00     0.016 A 
HETATM    4  C8  UNL     1      21.957   1.308  51.980  1.00  0.00     0.000 A 
HETATM    5  C9  UNL     1      20.758   1.586  51.365  1.00  0.00     0.073 A 
HETATM    6  C10 UNL     1      19.658   0.671  51.289  1.00  0.00     0.102 C 
HETATM    7  N2  UNL     1      18.771  -0.077  51.231  1.00  0.00    -0.191 NA
HETATM    8  C11 UNL     1      20.621   2.825  50.791  1.00  0.00     0.142 A 
HETATM    9  N3  UNL     1      21.632   3.685  50.852  1.00  0.00    -0.241 NA
HETATM   10  C12 UNL     1      22.817   3.479  51.431  1.00  0.00     0.139 A 
HETATM   11  C19 UNL     1      22.968   2.243  52.010  1.00  0.00     0.024 A 
HETATM   12  C20 UNL     1      24.093   1.800  52.664  1.00  0.00     0.045 A 
ENDROOT
BRANCH  10  13
HETATM   13  N4  UNL     1      23.888   4.393  51.496  1.00  0.00    -0.340 N 
HETATM   14  H10 UNL     1      24.014   5.036  52.285  1.00  0.00     0.167 HD
BRANCH  13  15
HETATM   15  C13 UNL     1      24.936   4.610  50.568  1.00  0.00     0.035 A 
HETATM   16  C14 UNL     1      25.883   3.680  50.191  1.00  0.00     0.029 A 
HETATM   17  C15 UNL     1      26.892   3.908  49.293  1.00  0.00     0.004 A 
HETATM   18  C16 UNL     1      27.014   5.136  48.693  1.00  0.00     0.019 A 
HETATM   19  C17 UNL     1      26.102   6.113  49.024  1.00  0.00     0.013 A 
HETATM   20 BR1  UNL     1      26.318   7.786  48.168  1.00  0.00    -0.051 Br
HETATM   21  C18 UNL     1      25.110   5.819  49.935  1.00  0.00     0.048 A 
ENDBRANCH  13  15
ENDBRANCH  10  13
BRANCH   1  22
HETATM   22  N1  UNL     1      25.462   0.195  53.905  1.00  0.00    -0.325 N 
HETATM   23  C4  UNL     1      26.626   0.838  54.414  1.00  0.00     0.246 C 
HETATM   24  O2  UNL     1      26.860   2.074  54.381  1.00  0.00    -0.271 OA
HETATM   25  H6  UNL     1      25.344  -0.846  53.974  1.00  0.00     0.169 HD
BRANCH  23  26
HETATM   26  C3  UNL     1      27.652   0.000  55.036  1.00  0.00     0.277 C 
BRANCH  26  27
HETATM   27  O1  UNL     1      28.971   0.335  54.687  1.00  0.00    -0.355 OA
BRANCH  27  28
HETATM   28  C2  UNL     1      29.608  -0.563  53.814  1.00  0.00     0.125 C 
HETATM   29  C1  UNL     1      29.380  -1.751  53.263  1.00  0.00     0.037 C 
ENDBRANCH  27  28
ENDBRANCH  26  27
ENDBRANCH  23  26
ENDBRANCH   1  22
TORSDOF 6
ENDMDL
MODEL 3
REMARK VINA RESULT:      -8.3      2.913      6.378
REMARK  6 active torsions:
REMARK  status: ('A' for Active; 'I' for Inactive)
REMARK    1  A    between atoms: C2_2  and  O1_3 
REMARK    2  A    between atoms: O1_3  and  C3_4 
REMARK    3  A    between atoms: C3_4  and  C4_5 
REMARK       I    between atoms: C4_5  and  N1_7 
REMARK    4  A    between atoms: N1_7  and  C5_8 
REMARK    5  A    between atoms: C12_17  and  N4_18 
REMARK    6  A    between atoms: N4_18  and  C13_19 
ROOT
HETATM    1  C5  UNL     1      22.710   0.997  52.145  1.00  0.00     0.035 A 
HETATM    2  C6  UNL     1      23.153   0.235  53.202  1.00  0.00     0.030 A 
HETATM    3  C7  UNL     1      24.480   0.284  53.524  1.00  0.00     0.016 A 
HETATM    4  C8  UNL     1      25.353   1.078  52.807  1.00  0.00     0.000 A 
HETATM    5  C9  UNL     1      26.665   1.048  53.220  1.00  0.00     0.073 A 
HETATM    6  C10 UNL     1      27.148   0.263  54.317  1.00  0.00     0.102 C 
HETATM    7  N2  UNL     1      27.533  -0.375  55.209  1.00  0.00    -0.191 NA
HETATM    8  C11 UNL     1      27.558   1.826  52.526  1.00  0.00     0.142 A 
HETATM    9  N3  UNL     1      27.125   2.559  51.507  1.00  0.00    -0.241 NA
HETATM   10  C12 UNL     1      25.871   2.633  51.056  1.00  0.00     0.139 A 
HETATM   11  C19 UNL     1      24.966   1.859  51.741  1.00  0.00     0.024 A 
HETATM   12  C20 UNL     1      23.623   1.769  51.465  1.00  0.00     0.045 A 
ENDROOT
BRANCH  10  13
HETATM   13  N4  UNL     1      25.414   3.412  49.973  1.00  0.00    -0.340 N 
HETATM   14  H10 UNL     1      24.546   3.196  49.471  1.00  0.00     0.167 HD
BRANCH  13  15
HETATM   15  C13 UNL     1      25.998   4.562  49.389  1.00  0.00     0.035 A 
HETATM   16  C14 UNL     1      27.274   4.643  48.873  1.00  0.00     0.029 A 
HETATM   17  C15 UNL     1      27.825   5.767  48.315  1.00  0.00     0.004 A 
HETATM   18  C16 UNL     1      27.093   6.924  48.237  1.00  0.00     0.019 A 
HETATM   19  C17 UNL     1      25.808   6.915  48.734  1.00  0.00     0.013 A 
HETATM   20 BR1  UNL     1      24.847   8.538  48.600  1.00  0.00    -0.051 Br
HETATM   21  C18 UNL     1      25.315   5.752  49.283  1.00  0.00     0.048 A 
ENDBRANCH  13  15
ENDBRANCH  10  13
BRANCH   1  22
HETATM   22  N1  UNL     1      21.332   0.969  51.784  1.00  0.00    -0.325 N 
HETATM   23  C4  UNL     1      20.151   1.713  52.069  1.00  0.00     0.246 C 
HETATM   24  O2  UNL     1      20.075   2.716  52.825  1.00  0.00    -0.271 OA
HETATM   25  H6  UNL     1      21.308   0.141  51.139  1.00  0.00     0.169 HD
BRANCH  23  26
HETATM   26  C3  UNL     1      18.904   1.285  51.432  1.00  0.00     0.277 C 
BRANCH  26  27
HETATM   27  O1  UNL     1      18.713  -0.106  51.399  1.00  0.00    -0.355 OA
BRANCH  27  28
HETATM   28  C2  UNL     1      17.866  -0.621  52.395  1.00  0.00     0.125 C 
HETATM   29  C1  UNL     1      17.858  -1.606  53.287  1.00  0.00     0.037 C 
ENDBRANCH  27  28
ENDBRANCH  26  27
ENDBRANCH  23  26
ENDBRANCH   1  22
TORSDOF 6
ENDMDL
MODEL 4
REMARK VINA RESULT:      -8.0      3.588      6.941
REMARK  6 active torsions:
REMARK  status: ('A' for Active; 'I' for Inactive)
REMARK    1  A    between atoms: C2_2  and  O1_3 
REMARK    2  A    between atoms: O1_3  and  C3_4 
REMARK    3  A    between atoms: C3_4  and  C4_5 
REMARK       I    between atoms: C4_5  and  N1_7 
REMARK    4  A    between atoms: N1_7  and  C5_8 
REMARK    5  A    between atoms: C12_17  and  N4_18 
REMARK    6  A    between atoms: N4_18  and  C13_19 
ROOT
HETATM    1  C5  UNL     1      25.495   3.184  51.161  1.00  0.00     0.035 A 
HETATM    2  C6  UNL     1      26.710   2.544  51.247  1.00  0.00     0.030 A 
HETATM    3  C7  UNL     1      26.760   1.333  51.878  1.00  0.00     0.016 A 
HETATM    4  C8  UNL     1      25.621   0.767  52.414  1.00  0.00     0.000 A 
HETATM    5  C9  UNL     1      25.791  -0.453  53.027  1.00  0.00     0.073 A 
HETATM    6  C10 UNL     1      27.045  -1.138  53.128  1.00  0.00     0.102 C 
HETATM    7  N2  UNL     1      28.066  -1.687  53.205  1.00  0.00    -0.191 NA
HETATM    8  C11 UNL     1      24.677  -1.041  53.571  1.00  0.00     0.142 A 
HETATM    9  N3  UNL     1      23.507  -0.419  53.485  1.00  0.00    -0.241 NA
HETATM   10  C12 UNL     1      23.273   0.761  52.908  1.00  0.00     0.139 A 
HETATM   11  C19 UNL     1      24.380   1.362  52.358  1.00  0.00     0.024 A 
HETATM   12  C20 UNL     1      24.392   2.575  51.713  1.00  0.00     0.045 A 
ENDROOT
BRANCH  10  13
HETATM   13  N4  UNL     1      22.030   1.420  52.818  1.00  0.00    -0.340 N 
HETATM   14  H10 UNL     1      21.865   2.339  53.243  1.00  0.00     0.167 HD
BRANCH  13  15
HETATM   15  C13 UNL     1      20.839   0.999  52.178  1.00  0.00     0.035 A 
HETATM   16  C14 UNL     1      20.456   1.324  50.894  1.00  0.00     0.029 A 
HETATM   17  C15 UNL     1      19.298   0.909  50.291  1.00  0.00     0.004 A 
HETATM   18  C16 UNL     1      18.418   0.108  50.973  1.00  0.00     0.019 A 
HETATM   19  C17 UNL     1      18.737  -0.256  52.263  1.00  0.00     0.013 A 
HETATM   20 BR1  UNL     1      17.487  -1.362  53.154  1.00  0.00    -0.051 Br
HETATM   21  C18 UNL     1      19.918   0.196  52.810  1.00  0.00     0.048 A 
ENDBRANCH  13  15
ENDBRANCH  10  13
BRANCH   1  22
HETATM   22  N1  UNL     1      25.408   4.448  50.508  1.00  0.00    -0.325 N 
HETATM   23  C4  UNL     1      26.053   5.129  49.436  1.00  0.00     0.246 C 
HETATM   24  O2  UNL     1      26.989   4.673  48.729  1.00  0.00    -0.271 OA
HETATM   25  H6  UNL     1      24.632   4.903  51.049  1.00  0.00     0.169 HD
BRANCH  23  26
HETATM   26  C3  UNL     1      25.598   6.482  49.115  1.00  0.00     0.277 C 
BRANCH  26  27
HETATM   27  O1  UNL     1      25.621   7.378  50.197  1.00  0.00    -0.355 OA
BRANCH  27  28
HETATM   28  C2  UNL     1      24.388   7.975  50.509  1.00  0.00     0.125 C 
HETATM   29  C1  UNL     1      23.103   7.637  50.574  1.00  0.00     0.037 C 
ENDBRANCH  27  28
ENDBRANCH  26  27
ENDBRANCH  23  26
ENDBRANCH   1  22
TORSDOF 6
ENDMDL
MODEL 5
REMARK VINA RESULT:      -8.0      5.004      8.168
REMARK  6 active torsions:
REMARK  status: ('A' for Active; 'I' for Inactive)
REMARK    1  A    between atoms: C2_2  and  O1_3 
REMARK    2  A    between atoms: O1_3  and  C3_4 
REMARK    3  A    between atoms: C3_4  and  C4_5 
REMARK       I    between atoms: C4_5  and  N1_7 
REMARK    4  A    between atoms: N1_7  and  C5_8 
REMARK    5  A    between atoms: C12_17  and  N4_18 
REMARK    6  A    between atoms: N4_18  and  C13_19 
ROOT
HETATM    1  C5  UNL     1      28.771   5.887  48.056  1.00  0.00     0.035 A 
HETATM    2  C6  UNL     1      28.195   7.072  47.658  1.00  0.00     0.030 A 
HETATM    3  C7  UNL     1      26.870   7.268  47.925  1.00  0.00     0.016 A 
HETATM    4  C8  UNL     1      26.129   6.303  48.577  1.00  0.00     0.000 A 
HETATM    5  C9  UNL     1      24.804   6.609  48.792  1.00  0.00     0.073 A 
HETATM    6  C10 UNL     1      24.183   7.834  48.387  1.00  0.00     0.102 C 
HETATM    7  N2  UNL     1      23.686   8.832  48.056  1.00  0.00    -0.191 NA
HETATM    8  C11 UNL     1      24.041   5.669  49.438  1.00  0.00     0.142 A 
HETATM    9  N3  UNL     1      24.602   4.527  49.820  1.00  0.00    -0.241 NA
HETATM   10  C12 UNL     1      25.876   4.169  49.644  1.00  0.00     0.139 A 
HETATM   11  C19 UNL     1      26.652   5.101  48.998  1.00  0.00     0.024 A 
HETATM   12  C20 UNL     1      27.987   4.961  48.702  1.00  0.00     0.045 A 
ENDROOT
BRANCH  10  13
HETATM   13  N4  UNL     1      26.470   2.956  50.050  1.00  0.00    -0.340 N 
HETATM   14  H10 UNL     1      27.056   2.396  49.422  1.00  0.00     0.167 HD
BRANCH  13  15
HETATM   15  C13 UNL     1      26.396   2.300  51.302  1.00  0.00     0.035 A 
HETATM   16  C14 UNL     1      27.366   2.324  52.283  1.00  0.00     0.029 A 
HETATM   17  C15 UNL     1      27.278   1.681  53.489  1.00  0.00     0.004 A 
HETATM   18  C16 UNL     1      26.163   0.943  53.795  1.00  0.00     0.019 A 
HETATM   19  C17 UNL     1      25.153   0.875  52.861  1.00  0.00     0.013 A 
HETATM   20 BR1  UNL     1      23.640  -0.155  53.336  1.00  0.00    -0.051 Br
HETATM   21  C18 UNL     1      25.304   1.546  51.666  1.00  0.00     0.048 A 
ENDBRANCH  13  15
ENDBRANCH  10  13
BRANCH   1  22
HETATM   22  N1  UNL     1      30.152   5.652  47.794  1.00  0.00    -0.325 N 
HETATM   23  C4  UNL     1      31.352   5.470  48.540  1.00  0.00     0.246 C 
HETATM   24  O2  UNL     1      31.450   5.482  49.794  1.00  0.00    -0.271 OA
HETATM   25  H6  UNL     1      30.158   5.627  46.745  1.00  0.00     0.169 HD
BRANCH  23  26
HETATM   26  C3  UNL     1      32.592   5.247  47.794  1.00  0.00     0.277 C 
BRANCH  26  27
HETATM   27  O1  UNL     1      33.141   3.963  47.944  1.00  0.00    -0.355 OA
BRANCH  27  28
HETATM   28  C2  UNL     1      32.638   2.988  47.066  1.00  0.00     0.125 C 
HETATM   29  C1  UNL     1      32.601   1.663  46.961  1.00  0.00     0.037 C 
ENDBRANCH  27  28
ENDBRANCH  26  27
ENDBRANCH  23  26
ENDBRANCH   1  22
TORSDOF 6
ENDMDL
MODEL 6
REMARK VINA RESULT:      -7.8      5.342      8.409
REMARK  6 active torsions:
REMARK  status: ('A' for Active; 'I' for Inactive)
REMARK    1  A    between atoms: C2_2  and  O1_3 
REMARK    2  A    between atoms: O1_3  and  C3_4 
REMARK    3  A    between atoms: C3_4  and  C4_5 
REMARK       I    between atoms: C4_5  and  N1_7 
REMARK    4  A    between atoms: N1_7  and  C5_8 
REMARK    5  A    between atoms: C12_17  and  N4_18 
REMARK    6  A    between atoms: N4_18  and  C13_19 
ROOT
HETATM    1  C5  UNL     1      28.929   5.784  48.102  1.00  0.00     0.035 A 
HETATM    2  C6  UNL     1      28.638   7.044  47.632  1.00  0.00     0.030 A 
HETATM    3  C7  UNL     1      27.347   7.483  47.713  1.00  0.00     0.016 A 
HETATM    4  C8  UNL     1      26.361   6.683  48.252  1.00  0.00     0.000 A 
HETATM    5  C9  UNL     1      25.097   7.228  48.282  1.00  0.00     0.073 A 
HETATM    6  C10 UNL     1      24.772   8.536  47.798  1.00  0.00     0.102 C 
HETATM    7  N2  UNL     1      24.516   9.600  47.405  1.00  0.00    -0.191 NA
HETATM    8  C11 UNL     1      24.094   6.456  48.812  1.00  0.00     0.142 A 
HETATM    9  N3  UNL     1      24.380   5.241  49.265  1.00  0.00    -0.241 NA
HETATM   10  C12 UNL     1      25.579   4.654  49.266  1.00  0.00     0.139 A 
HETATM   11  C19 UNL     1      26.593   5.415  48.738  1.00  0.00     0.024 A 
HETATM   12  C20 UNL     1      27.908   5.029  48.630  1.00  0.00     0.045 A 
ENDROOT
BRANCH  10  13
HETATM   13  N4  UNL     1      25.881   3.363  49.746  1.00  0.00    -0.340 N 
HETATM   14  H10 UNL     1      26.126   2.589  49.120  1.00  0.00     0.167 HD
BRANCH  13  15
HETATM   15  C13 UNL     1      25.909   2.890  51.081  1.00  0.00     0.035 A 
HETATM   16  C14 UNL     1      24.828   2.824  51.935  1.00  0.00     0.029 A 
HETATM   17  C15 UNL     1      24.874   2.366  53.225  1.00  0.00     0.004 A 
HETATM   18  C16 UNL     1      26.060   1.927  53.756  1.00  0.00     0.019 A 
HETATM   19  C17 UNL     1      27.182   1.964  52.958  1.00  0.00     0.013 A 
HETATM   20 BR1  UNL     1      28.789   1.347  53.742  1.00  0.00    -0.051 Br
HETATM   21  C18 UNL     1      27.067   2.437  51.669  1.00  0.00     0.048 A 
ENDBRANCH  13  15
ENDBRANCH  10  13
BRANCH   1  22
HETATM   22  N1  UNL     1      30.267   5.296  48.033  1.00  0.00    -0.325 N 
HETATM   23  C4  UNL     1      31.514   5.544  48.675  1.00  0.00     0.246 C 
HETATM   24  O2  UNL     1      31.721   6.385  49.587  1.00  0.00    -0.271 OA
HETATM   25  H6  UNL     1      30.180   4.573  47.278  1.00  0.00     0.169 HD
BRANCH  23  26
HETATM   26  C3  UNL     1      32.670   4.755  48.246  1.00  0.00     0.277 C 
BRANCH  26  27
HETATM   27  O1  UNL     1      32.442   3.952  47.117  1.00  0.00    -0.355 OA
BRANCH  27  28
HETATM   28  C2  UNL     1      33.527   3.154  46.716  1.00  0.00     0.125 C 
HETATM   29  C1  UNL     1      34.746   3.309  46.210  1.00  0.00     0.037 C 
ENDBRANCH  27  28
ENDBRANCH  26  27
ENDBRANCH  23  26
ENDBRANCH   1  22
TORSDOF 6
ENDMDL
MODEL 7
REMARK VINA RESULT:      -7.8      2.725      6.339
REMARK  6 active torsions:
REMARK  status: ('A' for Active; 'I' for Inactive)
REMARK    1  A    between atoms: C2_2  and  O1_3 
REMARK    2  A    between atoms: O1_3  and  C3_4 
REMARK    3  A    between atoms: C3_4  and  C4_5 
REMARK       I    between atoms: C4_5  and  N1_7 
REMARK    4  A    between atoms: N1_7  and  C5_8 
REMARK    5  A    between atoms: C12_17  and  N4_18 
REMARK    6  A    between atoms: N4_18  and  C13_19 
ROOT
HETATM    1  C5  UNL     1      23.198   0.278  52.847  1.00  0.00     0.035 A 
HETATM    2  C6  UNL     1      23.914  -0.445  53.773  1.00  0.00     0.030 A 
HETATM    3  C7  UNL     1      25.248  -0.186  53.906  1.00  0.00     0.016 A 
HETATM    4  C8  UNL     1      25.863   0.777  53.132  1.00  0.00     0.000 A 
HETATM    5  C9  UNL     1      27.210   0.951  53.351  1.00  0.00     0.073 A 
HETATM    6  C10 UNL     1      27.974   0.210  54.308  1.00  0.00     0.102 C 
HETATM    7  N2  UNL     1      28.588  -0.395  55.089  1.00  0.00    -0.191 NA
HETATM    8  C11 UNL     1      27.850   1.901  52.594  1.00  0.00     0.142 A 
HETATM    9  N3  UNL     1      27.155   2.597  51.702  1.00  0.00    -0.241 NA
HETATM   10  C12 UNL     1      25.851   2.478  51.440  1.00  0.00     0.139 A 
HETATM   11  C19 UNL     1      25.198   1.530  52.190  1.00  0.00     0.024 A 
HETATM   12  C20 UNL     1      23.860   1.225  52.102  1.00  0.00     0.045 A 
ENDROOT
BRANCH  10  13
HETATM   13  N4  UNL     1      25.115   3.217  50.492  1.00  0.00    -0.340 N 
HETATM   14  H10 UNL     1      24.492   2.769  49.811  1.00  0.00     0.167 HD
BRANCH  13  15
HETATM   15  C13 UNL     1      25.075   4.618  50.285  1.00  0.00     0.035 A 
HETATM   16  C14 UNL     1      24.240   5.504  50.933  1.00  0.00     0.029 A 
HETATM   17  C15 UNL     1      24.214   6.857  50.718  1.00  0.00     0.004 A 
HETATM   18  C16 UNL     1      25.061   7.424  49.801  1.00  0.00     0.019 A 
HETATM   19  C17 UNL     1      25.924   6.597  49.116  1.00  0.00     0.013 A 
HETATM   20 BR1  UNL     1      27.069   7.432  47.864  1.00  0.00    -0.051 Br
HETATM   21  C18 UNL     1      25.900   5.244  49.379  1.00  0.00     0.048 A 
ENDBRANCH  13  15
ENDBRANCH  10  13
BRANCH   1  22
HETATM   22  N1  UNL     1      21.804   0.033  52.684  1.00  0.00    -0.325 N 
HETATM   23  C4  UNL     1      20.621   0.098  53.476  1.00  0.00     0.246 C 
HETATM   24  O2  UNL     1      20.561   0.444  54.684  1.00  0.00    -0.271 OA
HETATM   25  H6  UNL     1      21.767  -0.268  51.679  1.00  0.00     0.169 HD
BRANCH  23  26
HETATM   26  C3  UNL     1      19.354  -0.268  52.842  1.00  0.00     0.277 C 
BRANCH  26  27
HETATM   27  O1  UNL     1      18.688  -1.346  53.448  1.00  0.00    -0.355 OA
BRANCH  27  28
HETATM   28  C2  UNL     1      17.349  -1.520  53.060  1.00  0.00     0.125 C 
HETATM   29  C1  UNL     1      16.350  -0.795  52.565  1.00  0.00     0.037 C 
ENDBRANCH  27  28
ENDBRANCH  26  27
ENDBRANCH  23  26
ENDBRANCH   1  22
TORSDOF 6
ENDMDL
MODEL 8
REMARK VINA RESULT:      -7.6      1.966      2.048
REMARK  6 active torsions:
REMARK  status: ('A' for Active; 'I' for Inactive)
REMARK    1  A    between atoms: C2_2  and  O1_3 
REMARK    2  A    between atoms: O1_3  and  C3_4 
REMARK    3  A    between atoms: C3_4  and  C4_5 
REMARK       I    between atoms: C4_5  and  N1_7 
REMARK    4  A    between atoms: N1_7  and  C5_8 
REMARK    5  A    between atoms: C12_17  and  N4_18 
REMARK    6  A    between atoms: N4_18  and  C13_19 
ROOT
HETATM    1  C5  UNL     1      23.493   0.483  53.112  1.00  0.00     0.035 A 
HETATM    2  C6  UNL     1      22.455  -0.067  53.829  1.00  0.00     0.030 A 
HETATM    3  C7  UNL     1      21.218  -0.105  53.251  1.00  0.00     0.016 A 
HETATM    4  C8  UNL     1      21.016   0.394  51.980  1.00  0.00     0.000 A 
HETATM    5  C9  UNL     1      19.729   0.303  51.500  1.00  0.00     0.073 A 
HETATM    6  C10 UNL     1      18.634  -0.264  52.228  1.00  0.00     0.102 C 
HETATM    7  N2  UNL     1      17.751  -0.727  52.824  1.00  0.00    -0.191 NA
HETATM    8  C11 UNL     1      19.496   0.793  50.239  1.00  0.00     0.142 A 
HETATM    9  N3  UNL     1      20.501   1.322  49.551  1.00  0.00    -0.241 NA
HETATM   10  C12 UNL     1      21.767   1.440  49.956  1.00  0.00     0.139 A 
HETATM   11  C19 UNL     1      22.016   0.955  51.217  1.00  0.00     0.024 A 
HETATM   12  C20 UNL     1      23.236   0.965  51.851  1.00  0.00     0.045 A 
ENDROOT
BRANCH  10  13
HETATM   13  N4  UNL     1      22.833   2.003  49.225  1.00  0.00    -0.340 N 
HETATM   14  H10 UNL     1      23.641   1.449  48.919  1.00  0.00     0.167 HD
BRANCH  13  15
HETATM   15  C13 UNL     1      23.011   3.338  48.788  1.00  0.00     0.035 A 
HETATM   16  C14 UNL     1      23.931   4.234  49.292  1.00  0.00     0.029 A 
HETATM   17  C15 UNL     1      24.087   5.525  48.859  1.00  0.00     0.004 A 
HETATM   18  C16 UNL     1      23.296   6.012  47.850  1.00  0.00     0.019 A 
HETATM   19  C17 UNL     1      22.355   5.170  47.299  1.00  0.00     0.013 A 
HETATM   20 BR1  UNL     1      21.293   5.894  45.912  1.00  0.00    -0.051 Br
HETATM   21  C18 UNL     1      22.249   3.883  47.781  1.00  0.00     0.048 A 
ENDBRANCH  13  15
ENDBRANCH  10  13
BRANCH   1  22
HETATM   22  N1  UNL     1      24.797   0.537  53.686  1.00  0.00    -0.325 N 
HETATM   23  C4  UNL     1      25.601  -0.255  54.556  1.00  0.00     0.246 C 
HETATM   24  O2  UNL     1      25.264  -1.348  55.081  1.00  0.00    -0.271 OA
HETATM   25  H6  UNL     1      25.155   1.440  53.290  1.00  0.00     0.169 HD
BRANCH  23  26
HETATM   26  C3  UNL     1      26.942   0.233  54.878  1.00  0.00     0.277 C 
BRANCH  26  27
HETATM   27  O1  UNL     1      27.791   0.381  53.769  1.00  0.00    -0.355 OA
BRANCH  27  28
HETATM   28  C2  UNL     1      28.645  -0.706  53.515  1.00  0.00     0.125 C 
HETATM   29  C1  UNL     1      29.935  -1.006  53.618  1.00  0.00     0.037 C 
ENDBRANCH  27  28
ENDBRANCH  26  27
ENDBRANCH  23  26
ENDBRANCH   1  22
TORSDOF 6
ENDMDL
MODEL 9
REMARK VINA RESULT:      -7.5      3.441      6.500
REMARK  6 active torsions:
REMARK  status: ('A' for Active; 'I' for Inactive)
REMARK    1  A    between atoms: C2_2  and  O1_3 
REMARK    2  A    between atoms: O1_3  and  C3_4 
REMARK    3  A    between atoms: C3_4  and  C4_5 
REMARK       I    between atoms: C4_5  and  N1_7 
REMARK    4  A    between atoms: N1_7  and  C5_8 
REMARK    5  A    between atoms: C12_17  and  N4_18 
REMARK    6  A    between atoms: N4_18  and  C13_19 
ROOT
HETATM    1  C5  UNL     1      25.667   3.264  51.116  1.00  0.00     0.035 A 
HETATM    2  C6  UNL     1      26.769   2.445  51.213  1.00  0.00     0.030 A 
HETATM    3  C7  UNL     1      26.626   1.241  51.841  1.00  0.00     0.016 A 
HETATM    4  C8  UNL     1      25.409   0.855  52.364  1.00  0.00     0.000 A 
HETATM    5  C9  UNL     1      25.383  -0.378  52.974  1.00  0.00     0.073 A 
HETATM    6  C10 UNL     1      26.516  -1.247  53.087  1.00  0.00     0.102 C 
HETATM    7  N2  UNL     1      27.440  -1.947  53.173  1.00  0.00    -0.191 NA
HETATM    8  C11 UNL     1      24.186  -0.789  53.506  1.00  0.00     0.142 A 
HETATM    9  N3  UNL     1      23.126   0.005  53.409  1.00  0.00    -0.241 NA
HETATM   10  C12 UNL     1      23.083   1.208  52.833  1.00  0.00     0.139 A 
HETATM   11  C19 UNL     1      24.274   1.632  52.297  1.00  0.00     0.024 A 
HETATM   12  C20 UNL     1      24.479   2.831  51.655  1.00  0.00     0.045 A 
ENDROOT
BRANCH  10  13
HETATM   13  N4  UNL     1      21.956   2.050  52.732  1.00  0.00    -0.340 N 
HETATM   14  H10 UNL     1      21.962   3.016  53.076  1.00  0.00     0.167 HD
BRANCH  13  15
HETATM   15  C13 UNL     1      20.680   1.774  52.184  1.00  0.00     0.035 A 
HETATM   16  C14 UNL     1      20.247   0.546  51.730  1.00  0.00     0.029 A 
HETATM   17  C15 UNL     1      19.009   0.297  51.199  1.00  0.00     0.004 A 
HETATM   18  C16 UNL     1      18.092   1.311  51.089  1.00  0.00     0.019 A 
HETATM   19  C17 UNL     1      18.458   2.567  51.524  1.00  0.00     0.013 A 
HETATM   20 BR1  UNL     1      17.155   3.926  51.349  1.00  0.00    -0.051 Br
HETATM   21  C18 UNL     1      19.719   2.749  52.048  1.00  0.00     0.048 A 
ENDBRANCH  13  15
ENDBRANCH  10  13
BRANCH   1  22
HETATM   22  N1  UNL     1      25.782   4.527  50.466  1.00  0.00    -0.325 N 
HETATM   23  C4  UNL     1      25.048   5.746  50.390  1.00  0.00     0.246 C 
HETATM   24  O2  UNL     1      23.966   5.994  50.984  1.00  0.00    -0.271 OA
HETATM   25  H6  UNL     1      26.680   4.402  49.937  1.00  0.00     0.169 HD
BRANCH  23  26
HETATM   26  C3  UNL     1      25.587   6.816  49.550  1.00  0.00     0.277 C 
BRANCH  26  27
HETATM   27  O1  UNL     1      26.351   6.372  48.459  1.00  0.00    -0.355 OA
BRANCH  27  28
HETATM   28  C2  UNL     1      27.664   6.871  48.401  1.00  0.00     0.125 C 
HETATM   29  C1  UNL     1      28.723   6.803  47.600  1.00  0.00     0.037 C 
ENDBRANCH  27  28
ENDBRANCH  26  27
ENDBRANCH  23  26
ENDBRANCH   1  22
TORSDOF 6
ENDMDL
