MODEL 1
REMARK VINA RESULT:      -7.3      0.000      0.000
REMARK  4 active torsions:
REMARK  status: ('A' for Active; 'I' for Inactive)
REMARK    1  A    between atoms: C6_6  and  N1_7 
REMARK    2  A    between atoms: C9_11  and  C10_12 
REMARK    3  A    between atoms: C10_12  and  C11_13 
REMARK    4  A    between atoms: C15_18  and  N3_19 
ROOT
HETATM    1  C1  UNL     1      22.570   4.901  52.326  1.00  0.00     0.039 C 
HETATM    2  C2  UNL     1      22.403   3.945  51.227  1.00  0.00     0.134 C 
HETATM    3  C3  UNL     1      23.725   3.486  50.599  1.00  0.00     0.077 C 
HETATM    4  C4  UNL     1      23.876   3.207  49.285  1.00  0.00     0.037 C 
HETATM    5  C5  UNL     1      22.750   2.620  48.470  1.00  0.00     0.028 C 
HETATM    6  C6  UNL     1      21.677   2.081  49.124  1.00  0.00     0.020 C 
HETATM    7  C7  UNL     1      21.390   1.838  50.595  1.00  0.00     0.175 C 
HETATM    8  N2  UNL     1      21.916   2.621  51.577  1.00  0.00    -0.382 N 
HETATM    9  C8  UNL     1      22.626   2.208  52.708  1.00  0.00     0.187 C 
HETATM   10  C9  UNL     1      22.395   0.853  53.241  1.00  0.00    -0.049 C 
HETATM   11  C12 UNL     1      23.384  -0.046  53.412  1.00  0.00     0.005 C 
HETATM   12  C13 UNL     1      24.586  -0.862  53.519  1.00  0.00     0.000 C 
HETATM   13  C14 UNL     1      25.855  -0.527  53.198  1.00  0.00     0.031 C 
HETATM   14  C15 UNL     1      26.968   0.286  52.733  1.00  0.00     0.363 C 
HETATM   15  N4  UNL     1      27.183   1.510  53.472  1.00  0.00    -0.243 NA
HETATM   16  C16 UNL     1      26.189   2.222  53.860  1.00  0.00     0.232 C 
HETATM   17  N5  UNL     1      24.823   2.017  53.689  1.00  0.00    -0.220 NA
HETATM   18  C17 UNL     1      24.114   2.542  52.750  1.00  0.00     0.173 C 
HETATM   19  O1  UNL     1      24.625   3.442  51.704  1.00  0.00    -0.296 OA
ENDROOT
BRANCH   6  20
HETATM   20  N1  UNL     1      20.773   1.740  48.081  1.00  0.00    -0.401 N 
HETATM   21  H7  UNL     1      19.819   1.371  48.307  1.00  0.00     0.156 HD
HETATM   22  H8  UNL     1      21.337   1.964  47.231  1.00  0.00     0.156 HD
ENDBRANCH   6  20
BRANCH  10  23
HETATM   23  C10 UNL     1      20.969   0.722  53.545  1.00  0.00     0.051 C 
BRANCH  23  24
HETATM   24  C11 UNL     1      20.473  -0.704  53.685  1.00  0.00     0.119 C 
HETATM   25 CL1  UNL     1      18.800  -0.733  53.037  1.00  0.00    -0.130 Cl
ENDBRANCH  23  24
ENDBRANCH  10  23
BRANCH  14  26
HETATM   26  N3  UNL     1      26.807   0.506  51.294  1.00  0.00     0.106 N 
HETATM   27  H20 UNL     1      25.911  -0.014  51.048  1.00  0.00     0.316 HD
HETATM   28  H21 UNL     1      26.564   1.499  51.162  1.00  0.00     0.316 HD
ENDBRANCH  14  26
TORSDOF 4
ENDMDL
MODEL 2
REMARK VINA RESULT:      -7.0      2.900      6.156
REMARK  4 active torsions:
REMARK  status: ('A' for Active; 'I' for Inactive)
REMARK    1  A    between atoms: C6_6  and  N1_7 
REMARK    2  A    between atoms: C9_11  and  C10_12 
REMARK    3  A    between atoms: C10_12  and  C11_13 
REMARK    4  A    between atoms: C15_18  and  N3_19 
ROOT
HETATM    1  C1  UNL     1      23.855   4.415  53.436  1.00  0.00     0.039 C 
HETATM    2  C2  UNL     1      24.161   3.010  53.147  1.00  0.00     0.134 C 
HETATM    3  C3  UNL     1      22.920   2.134  52.943  1.00  0.00     0.077 C 
HETATM    4  C4  UNL     1      22.843   0.839  53.323  1.00  0.00     0.037 C 
HETATM    5  C5  UNL     1      24.052  -0.062  53.297  1.00  0.00     0.028 C 
HETATM    6  C6  UNL     1      25.156   0.340  52.598  1.00  0.00     0.020 C 
HETATM    7  C7  UNL     1      25.421   1.533  51.698  1.00  0.00     0.175 C 
HETATM    8  N2  UNL     1      24.780   2.724  51.863  1.00  0.00    -0.382 N 
HETATM    9  C8  UNL     1      24.084   3.458  50.899  1.00  0.00     0.187 C 
HETATM   10  C9  UNL     1      24.447   3.296  49.479  1.00  0.00    -0.049 C 
HETATM   11  C12 UNL     1      23.558   2.935  48.533  1.00  0.00     0.005 C 
HETATM   12  C13 UNL     1      22.450   2.541  47.672  1.00  0.00     0.000 C 
HETATM   13  C14 UNL     1      21.162   2.317  48.016  1.00  0.00     0.031 C 
HETATM   14  C15 UNL     1      19.982   2.208  48.859  1.00  0.00     0.363 C 
HETATM   15  N4  UNL     1      19.610   3.421  49.551  1.00  0.00    -0.243 NA
HETATM   16  C16 UNL     1      20.506   4.182  50.065  1.00  0.00     0.232 C 
HETATM   17  N5  UNL     1      21.891   4.046  50.080  1.00  0.00    -0.220 NA
HETATM   18  C17 UNL     1      22.568   3.533  51.049  1.00  0.00     0.173 C 
HETATM   19  O1  UNL     1      21.994   3.006  52.298  1.00  0.00    -0.296 OA
ENDROOT
BRANCH   6  20
HETATM   20  N1  UNL     1      26.126  -0.662  52.879  1.00  0.00    -0.401 N 
HETATM   21  H7  UNL     1      26.121  -1.160  53.801  1.00  0.00     0.156 HD
HETATM   22  H8  UNL     1      26.683  -0.670  51.996  1.00  0.00     0.156 HD
ENDBRANCH   6  20
BRANCH  10  23
HETATM   23  C10 UNL     1      25.867   3.615  49.334  1.00  0.00     0.051 C 
BRANCH  23  24
HETATM   24  C11 UNL     1      26.185   5.097  49.263  1.00  0.00     0.119 C 
HETATM   25 CL1  UNL     1      27.794   5.241  48.483  1.00  0.00    -0.130 Cl
ENDBRANCH  23  24
ENDBRANCH  10  23
BRANCH  14  26
HETATM   26  N3  UNL     1      20.165   1.068  49.760  1.00  0.00     0.106 N 
HETATM   27  H20 UNL     1      20.063   1.484  50.734  1.00  0.00     0.316 HD
HETATM   28  H21 UNL     1      19.337   0.462  49.659  1.00  0.00     0.316 HD
ENDBRANCH  14  26
TORSDOF 4
ENDMDL
MODEL 3
REMARK VINA RESULT:      -7.0      2.979      5.075
REMARK  4 active torsions:
REMARK  status: ('A' for Active; 'I' for Inactive)
REMARK    1  A    between atoms: C6_6  and  N1_7 
REMARK    2  A    between atoms: C9_11  and  C10_12 
REMARK    3  A    between atoms: C10_12  and  C11_13 
REMARK    4  A    between atoms: C15_18  and  N3_19 
ROOT
HETATM    1  C1  UNL     1      22.926   3.633  47.732  1.00  0.00     0.039 C 
HETATM    2  C2  UNL     1      22.997   4.531  48.889  1.00  0.00     0.134 C 
HETATM    3  C3  UNL     1      21.745   4.501  49.773  1.00  0.00     0.077 C 
HETATM    4  C4  UNL     1      21.257   5.583  50.422  1.00  0.00     0.037 C 
HETATM    5  C5  UNL     1      22.169   6.663  50.949  1.00  0.00     0.028 C 
HETATM    6  C6  UNL     1      23.507   6.402  51.047  1.00  0.00     0.020 C 
HETATM    7  C7  UNL     1      24.326   5.144  50.818  1.00  0.00     0.175 C 
HETATM    8  N2  UNL     1      23.947   4.182  49.932  1.00  0.00    -0.382 N 
HETATM    9  C8  UNL     1      23.812   2.811  50.169  1.00  0.00     0.187 C 
HETATM   10  C9  UNL     1      24.604   2.191  51.248  1.00  0.00    -0.049 C 
HETATM   11  C12 UNL     1      24.047   1.497  52.259  1.00  0.00     0.005 C 
HETATM   12  C13 UNL     1      23.253   0.790  53.256  1.00  0.00     0.000 C 
HETATM   13  C14 UNL     1      21.911   0.638  53.301  1.00  0.00     0.031 C 
HETATM   14  C15 UNL     1      20.517   0.759  52.903  1.00  0.00     0.363 C 
HETATM   15  N4  UNL     1      20.203   0.213  51.602  1.00  0.00    -0.243 NA
HETATM   16  C16 UNL     1      21.006   0.373  50.615  1.00  0.00     0.232 C 
HETATM   17  N5  UNL     1      22.232   1.028  50.558  1.00  0.00    -0.220 NA
HETATM   18  C17 UNL     1      22.396   2.245  50.165  1.00  0.00     0.173 C 
HETATM   19  O1  UNL     1      21.320   3.141  49.712  1.00  0.00    -0.296 OA
ENDROOT
BRANCH   6  20
HETATM   20  N1  UNL     1      24.072   7.643  51.453  1.00  0.00    -0.401 N 
HETATM   21  H7  UNL     1      23.877   8.516  50.907  1.00  0.00     0.156 HD
HETATM   22  H8  UNL     1      24.613   7.362  52.300  1.00  0.00     0.156 HD
ENDBRANCH   6  20
BRANCH  10  23
HETATM   23  C10 UNL     1      26.019   2.455  50.981  1.00  0.00     0.051 C 
BRANCH  23  24
HETATM   24  C11 UNL     1      26.945   2.224  52.159  1.00  0.00     0.119 C 
HETATM   25 CL1  UNL     1      27.254   0.459  52.233  1.00  0.00    -0.130 Cl
ENDBRANCH  23  24
ENDBRANCH  10  23
BRANCH  14  26
HETATM   26  N3  UNL     1      20.117   2.159  53.049  1.00  0.00     0.106 N 
HETATM   27  H20 UNL     1      20.196   2.558  52.066  1.00  0.00     0.316 HD
HETATM   28  H21 UNL     1      19.105   2.171  53.243  1.00  0.00     0.316 HD
ENDBRANCH  14  26
TORSDOF 4
ENDMDL
MODEL 4
REMARK VINA RESULT:      -6.7      9.755     11.689
REMARK  4 active torsions:
REMARK  status: ('A' for Active; 'I' for Inactive)
REMARK    1  A    between atoms: C6_6  and  N1_7 
REMARK    2  A    between atoms: C9_11  and  C10_12 
REMARK    3  A    between atoms: C10_12  and  C11_13 
REMARK    4  A    between atoms: C15_18  and  N3_19 
ROOT
HETATM    1  C1  UNL     1      32.499   7.876  49.432  1.00  0.00     0.039 C 
HETATM    2  C2  UNL     1      31.264   7.285  48.907  1.00  0.00     0.134 C 
HETATM    3  C3  UNL     1      30.755   7.950  47.623  1.00  0.00     0.077 C 
HETATM    4  C4  UNL     1      29.446   8.101  47.322  1.00  0.00     0.037 C 
HETATM    5  C5  UNL     1      28.417   7.086  47.755  1.00  0.00     0.028 C 
HETATM    6  C6  UNL     1      28.843   5.859  48.181  1.00  0.00     0.020 C 
HETATM    7  C7  UNL     1      30.215   5.210  48.229  1.00  0.00     0.175 C 
HETATM    8  N2  UNL     1      31.358   5.937  48.372  1.00  0.00    -0.382 N 
HETATM    9  C8  UNL     1      32.502   5.892  47.570  1.00  0.00     0.187 C 
HETATM   10  C9  UNL     1      32.803   4.656  46.824  1.00  0.00    -0.049 C 
HETATM   11  C12 UNL     1      32.973   4.629  45.488  1.00  0.00     0.005 C 
HETATM   12  C13 UNL     1      33.119   4.816  44.050  1.00  0.00     0.000 C 
HETATM   13  C14 UNL     1      33.018   5.963  43.342  1.00  0.00     0.031 C 
HETATM   14  C15 UNL     1      32.820   7.378  43.071  1.00  0.00     0.363 C 
HETATM   15  N4  UNL     1      33.746   8.264  43.741  1.00  0.00    -0.243 NA
HETATM   16  C16 UNL     1      34.098   8.044  44.955  1.00  0.00     0.232 C 
HETATM   17  N5  UNL     1      33.724   7.023  45.823  1.00  0.00    -0.220 NA
HETATM   18  C17 UNL     1      32.784   7.112  46.700  1.00  0.00     0.173 C 
HETATM   19  O1  UNL     1      31.951   8.303  46.931  1.00  0.00    -0.296 OA
ENDROOT
BRANCH   6  20
HETATM   20  N1  UNL     1      27.653   5.213  48.616  1.00  0.00    -0.401 N 
HETATM   21  H7  UNL     1      26.715   5.618  48.383  1.00  0.00     0.156 HD
HETATM   22  H8  UNL     1      28.036   4.386  49.127  1.00  0.00     0.156 HD
ENDBRANCH   6  20
BRANCH  10  23
HETATM   23  C10 UNL     1      32.897   3.557  47.787  1.00  0.00     0.051 C 
BRANCH  23  24
HETATM   24  C11 UNL     1      32.739   2.171  47.193  1.00  0.00     0.119 C 
HETATM   25 CL1  UNL     1      33.068   1.004  48.514  1.00  0.00    -0.130 Cl
ENDBRANCH  23  24
ENDBRANCH  10  23
BRANCH  14  26
HETATM   26  N3  UNL     1      31.419   7.706  43.338  1.00  0.00     0.106 N 
HETATM   27  H20 UNL     1      31.297   8.684  42.937  1.00  0.00     0.316 HD
HETATM   28  H21 UNL     1      30.843   7.111  42.725  1.00  0.00     0.316 HD
ENDBRANCH  14  26
TORSDOF 4
ENDMDL
MODEL 5
REMARK VINA RESULT:      -6.5      9.216     10.606
REMARK  4 active torsions:
REMARK  status: ('A' for Active; 'I' for Inactive)
REMARK    1  A    between atoms: C6_6  and  N1_7 
REMARK    2  A    between atoms: C9_11  and  C10_12 
REMARK    3  A    between atoms: C10_12  and  C11_13 
REMARK    4  A    between atoms: C15_18  and  N3_19 
ROOT
HETATM    1  C1  UNL     1      30.783   9.915  49.303  1.00  0.00     0.039 C 
HETATM    2  C2  UNL     1      30.529   9.722  47.872  1.00  0.00     0.134 C 
HETATM    3  C3  UNL     1      31.789   9.419  47.054  1.00  0.00     0.077 C 
HETATM    4  C4  UNL     1      31.981   9.842  45.784  1.00  0.00     0.037 C 
HETATM    5  C5  UNL     1      30.830   9.987  44.821  1.00  0.00     0.028 C 
HETATM    6  C6  UNL     1      29.636   9.398  45.130  1.00  0.00     0.020 C 
HETATM    7  C7  UNL     1      29.208   8.484  46.263  1.00  0.00     0.175 C 
HETATM    8  N2  UNL     1      29.793   8.527  47.493  1.00  0.00    -0.382 N 
HETATM    9  C8  UNL     1      30.337   7.462  48.215  1.00  0.00     0.187 C 
HETATM   10  C9  UNL     1      29.834   6.098  47.966  1.00  0.00    -0.049 C 
HETATM   11  C12 UNL     1      30.635   5.076  47.608  1.00  0.00     0.005 C 
HETATM   12  C13 UNL     1      31.665   4.116  47.231  1.00  0.00     0.000 C 
HETATM   13  C14 UNL     1      32.993   4.325  47.093  1.00  0.00     0.031 C 
HETATM   14  C15 UNL     1      34.261   5.037  47.086  1.00  0.00     0.363 C 
HETATM   15  N4  UNL     1      34.635   5.632  48.349  1.00  0.00    -0.243 NA
HETATM   16  C16 UNL     1      33.757   6.209  49.085  1.00  0.00     0.232 C 
HETATM   17  N5  UNL     1      32.392   6.382  48.878  1.00  0.00    -0.220 NA
HETATM   18  C17 UNL     1      31.854   7.441  48.377  1.00  0.00     0.173 C 
HETATM   19  O1  UNL     1      32.588   8.640  47.942  1.00  0.00    -0.296 OA
ENDROOT
BRANCH   6  20
HETATM   20  N1  UNL     1      28.762   9.825  44.093  1.00  0.00    -0.401 N 
HETATM   21  H7  UNL     1      28.006  10.524  44.292  1.00  0.00     0.156 HD
HETATM   22  H8  UNL     1      29.118   9.279  43.278  1.00  0.00     0.156 HD
ENDBRANCH   6  20
BRANCH  10  23
HETATM   23  C10 UNL     1      28.390   6.098  48.203  1.00  0.00     0.051 C 
BRANCH  23  24
HETATM   24  C11 UNL     1      27.812   4.761  48.625  1.00  0.00     0.119 C 
HETATM   25 CL1  UNL     1      26.096   5.054  49.055  1.00  0.00    -0.130 Cl
ENDBRANCH  23  24
ENDBRANCH  10  23
BRANCH  14  26
HETATM   26  N3  UNL     1      34.242   5.999  45.983  1.00  0.00     0.106 N 
HETATM   27  H20 UNL     1      33.292   6.472  46.062  1.00  0.00     0.316 HD
HETATM   28  H21 UNL     1      34.913   6.746  46.216  1.00  0.00     0.316 HD
ENDBRANCH  14  26
TORSDOF 4
ENDMDL
MODEL 6
REMARK VINA RESULT:      -6.4      4.905      6.255
REMARK  4 active torsions:
REMARK  status: ('A' for Active; 'I' for Inactive)
REMARK    1  A    between atoms: C6_6  and  N1_7 
REMARK    2  A    between atoms: C9_11  and  C10_12 
REMARK    3  A    between atoms: C10_12  and  C11_13 
REMARK    4  A    between atoms: C15_18  and  N3_19 
ROOT
HETATM    1  C1  UNL     1      22.215   7.126  50.473  1.00  0.00     0.039 C 
HETATM    2  C2  UNL     1      22.246   6.540  49.129  1.00  0.00     0.134 C 
HETATM    3  C3  UNL     1      22.997   7.391  48.099  1.00  0.00     0.077 C 
HETATM    4  C4  UNL     1      22.644   7.480  46.796  1.00  0.00     0.037 C 
HETATM    5  C5  UNL     1      22.024   6.315  46.068  1.00  0.00     0.028 C 
HETATM    6  C6  UNL     1      22.101   5.071  46.630  1.00  0.00     0.020 C 
HETATM    7  C7  UNL     1      22.807   4.549  47.869  1.00  0.00     0.175 C 
HETATM    8  N2  UNL     1      23.038   5.333  48.958  1.00  0.00    -0.382 N 
HETATM    9  C8  UNL     1      24.254   5.544  49.614  1.00  0.00     0.187 C 
HETATM   10  C9  UNL     1      25.298   4.506  49.534  1.00  0.00    -0.049 C 
HETATM   11  C12 UNL     1      26.542   4.751  49.078  1.00  0.00     0.005 C 
HETATM   12  C13 UNL     1      27.819   5.222  48.558  1.00  0.00     0.000 C 
HETATM   13  C14 UNL     1      28.149   6.469  48.155  1.00  0.00     0.031 C 
HETATM   14  C15 UNL     1      27.998   7.887  47.869  1.00  0.00     0.363 C 
HETATM   15  N4  UNL     1      27.640   8.706  49.005  1.00  0.00    -0.243 NA
HETATM   16  C16 UNL     1      26.787   8.291  49.867  1.00  0.00     0.232 C 
HETATM   17  N5  UNL     1      26.081   7.093  49.919  1.00  0.00    -0.220 NA
HETATM   18  C17 UNL     1      24.880   6.929  49.481  1.00  0.00     0.173 C 
HETATM   19  O1  UNL     1      24.057   7.975  48.853  1.00  0.00    -0.296 OA
ENDROOT
BRANCH   6  20
HETATM   20  N1  UNL     1      21.329   4.251  45.762  1.00  0.00    -0.401 N 
HETATM   21  H7  UNL     1      21.476   3.214  45.745  1.00  0.00     0.156 HD
HETATM   22  H8  UNL     1      20.724   4.957  45.287  1.00  0.00     0.156 HD
ENDBRANCH   6  20
BRANCH  10  23
HETATM   23  C10 UNL     1      24.734   3.256  50.045  1.00  0.00     0.051 C 
BRANCH  23  24
HETATM   24  C11 UNL     1      25.166   2.888  51.452  1.00  0.00     0.119 C 
HETATM   25 CL1  UNL     1      26.612   1.840  51.289  1.00  0.00    -0.130 Cl
ENDBRANCH  23  24
ENDBRANCH  10  23
BRANCH  14  26
HETATM   26  N3  UNL     1      27.073   8.033  46.744  1.00  0.00     0.106 N 
HETATM   27  H20 UNL     1      27.373   7.277  46.057  1.00  0.00     0.316 HD
HETATM   28  H21 UNL     1      26.145   7.722  47.067  1.00  0.00     0.316 HD
ENDBRANCH  14  26
TORSDOF 4
ENDMDL
MODEL 7
REMARK VINA RESULT:      -6.4      8.384     10.215
REMARK  4 active torsions:
REMARK  status: ('A' for Active; 'I' for Inactive)
REMARK    1  A    between atoms: C6_6  and  N1_7 
REMARK    2  A    between atoms: C9_11  and  C10_12 
REMARK    3  A    between atoms: C10_12  and  C11_13 
REMARK    4  A    between atoms: C15_18  and  N3_19 
ROOT
HETATM    1  C1  UNL     1      26.154   8.313  46.023  1.00  0.00     0.039 C 
HETATM    2  C2  UNL     1      25.957   8.087  47.458  1.00  0.00     0.134 C 
HETATM    3  C3  UNL     1      26.780   6.923  48.021  1.00  0.00     0.077 C 
HETATM    4  C4  UNL     1      26.349   6.106  49.008  1.00  0.00     0.037 C 
HETATM    5  C5  UNL     1      25.448   6.608  50.108  1.00  0.00     0.028 C 
HETATM    6  C6  UNL     1      25.315   7.957  50.285  1.00  0.00     0.020 C 
HETATM    7  C7  UNL     1      25.996   9.148  49.635  1.00  0.00     0.175 C 
HETATM    8  N2  UNL     1      26.470   9.107  48.359  1.00  0.00    -0.382 N 
HETATM    9  C8  UNL     1      27.752   9.440  47.914  1.00  0.00     0.187 C 
HETATM   10  C9  UNL     1      28.552  10.400  48.697  1.00  0.00    -0.049 C 
HETATM   11  C12 UNL     1      29.779  10.114  49.174  1.00  0.00     0.005 C 
HETATM   12  C13 UNL     1      31.080   9.608  49.596  1.00  0.00     0.000 C 
HETATM   13  C14 UNL     1      31.623   8.395  49.354  1.00  0.00     0.031 C 
HETATM   14  C15 UNL     1      31.742   7.038  48.844  1.00  0.00     0.363 C 
HETATM   15  N4  UNL     1      31.652   6.916  47.406  1.00  0.00    -0.243 NA
HETATM   16  C16 UNL     1      30.804   7.613  46.743  1.00  0.00     0.232 C 
HETATM   17  N5  UNL     1      29.875   8.549  47.187  1.00  0.00    -0.220 NA
HETATM   18  C17 UNL     1      28.634   8.294  47.428  1.00  0.00     0.173 C 
HETATM   19  O1  UNL     1      27.994   6.978  47.276  1.00  0.00    -0.296 OA
ENDROOT
BRANCH   6  20
HETATM   20  N1  UNL     1      24.324   8.077  51.298  1.00  0.00    -0.401 N 
HETATM   21  H7  UNL     1      24.585   7.977  52.308  1.00  0.00     0.156 HD
HETATM   22  H8  UNL     1      23.465   8.258  50.734  1.00  0.00     0.156 HD
ENDBRANCH   6  20
BRANCH  10  23
HETATM   23  C10 UNL     1      27.788  11.643  48.806  1.00  0.00     0.051 C 
BRANCH  23  24
HETATM   24  C11 UNL     1      28.617  12.879  49.100  1.00  0.00     0.119 C 
HETATM   25 CL1  UNL     1      29.279  13.440  47.531  1.00  0.00    -0.130 Cl
ENDBRANCH  23  24
ENDBRANCH  10  23
BRANCH  14  26
HETATM   26  N3  UNL     1      30.779   6.194  49.552  1.00  0.00     0.106 N 
HETATM   27  H20 UNL     1      31.301   5.872  50.421  1.00  0.00     0.316 HD
HETATM   28  H21 UNL     1      30.041   6.813  49.919  1.00  0.00     0.316 HD
ENDBRANCH  14  26
TORSDOF 4
ENDMDL
MODEL 8
REMARK VINA RESULT:      -6.2     11.234     13.691
REMARK  4 active torsions:
REMARK  status: ('A' for Active; 'I' for Inactive)
REMARK    1  A    between atoms: C6_6  and  N1_7 
REMARK    2  A    between atoms: C9_11  and  C10_12 
REMARK    3  A    between atoms: C10_12  and  C11_13 
REMARK    4  A    between atoms: C15_18  and  N3_19 
ROOT
HETATM    1  C1  UNL     1      30.883   5.357  47.325  1.00  0.00     0.039 C 
HETATM    2  C2  UNL     1      32.289   5.254  47.728  1.00  0.00     0.134 C 
HETATM    3  C3  UNL     1      33.191   4.610  46.669  1.00  0.00     0.077 C 
HETATM    4  C4  UNL     1      34.249   3.821  46.963  1.00  0.00     0.037 C 
HETATM    5  C5  UNL     1      35.080   4.046  48.201  1.00  0.00     0.028 C 
HETATM    6  C6  UNL     1      34.958   5.233  48.867  1.00  0.00     0.020 C 
HETATM    7  C7  UNL     1      34.188   6.505  48.561  1.00  0.00     0.175 C 
HETATM    8  N2  UNL     1      33.030   6.500  47.844  1.00  0.00    -0.382 N 
HETATM    9  C8  UNL     1      32.721   7.268  46.718  1.00  0.00     0.187 C 
HETATM   10  C9  UNL     1      33.402   8.562  46.528  1.00  0.00    -0.049 C 
HETATM   11  C12 UNL     1      34.102   8.865  45.418  1.00  0.00     0.005 C 
HETATM   12  C13 UNL     1      34.804   8.993  44.147  1.00  0.00     0.000 C 
HETATM   13  C14 UNL     1      34.896   8.087  43.148  1.00  0.00     0.031 C 
HETATM   14  C15 UNL     1      34.694   6.845  42.420  1.00  0.00     0.363 C 
HETATM   15  N4  UNL     1      33.313   6.515  42.145  1.00  0.00    -0.243 NA
HETATM   16  C16 UNL     1      32.406   6.714  43.029  1.00  0.00     0.232 C 
HETATM   17  N5  UNL     1      32.510   7.237  44.314  1.00  0.00    -0.220 NA
HETATM   18  C17 UNL     1      32.612   6.531  45.387  1.00  0.00     0.173 C 
HETATM   19  O1  UNL     1      32.637   5.060  45.435  1.00  0.00    -0.296 OA
ENDROOT
BRANCH   6  20
HETATM   20  N1  UNL     1      35.769   5.066  50.023  1.00  0.00    -0.401 N 
HETATM   21  H7  UNL     1      36.361   5.856  50.373  1.00  0.00     0.156 HD
HETATM   22  H8  UNL     1      35.562   4.076  50.285  1.00  0.00     0.156 HD
ENDBRANCH   6  20
BRANCH  10  23
HETATM   23  C10 UNL     1      33.144   9.388  47.709  1.00  0.00     0.051 C 
BRANCH  23  24
HETATM   24  C11 UNL     1      31.707   9.846  47.867  1.00  0.00     0.119 C 
HETATM   25 CL1  UNL     1      31.086   9.084  49.368  1.00  0.00    -0.130 Cl
ENDBRANCH  23  24
ENDBRANCH  10  23
BRANCH  14  26
HETATM   26  N3  UNL     1      35.409   5.778  43.123  1.00  0.00     0.106 N 
HETATM   27  H20 UNL     1      36.295   6.247  43.479  1.00  0.00     0.316 HD
HETATM   28  H21 UNL     1      34.877   5.566  43.980  1.00  0.00     0.316 HD
ENDBRANCH  14  26
TORSDOF 4
ENDMDL
MODEL 9
REMARK VINA RESULT:      -6.1     10.428     12.815
REMARK  4 active torsions:
REMARK  status: ('A' for Active; 'I' for Inactive)
REMARK    1  A    between atoms: C6_6  and  N1_7 
REMARK    2  A    between atoms: C9_11  and  C10_12 
REMARK    3  A    between atoms: C10_12  and  C11_13 
REMARK    4  A    between atoms: C15_18  and  N3_19 
ROOT
HETATM    1  C1  UNL     1      35.076   8.513  48.203  1.00  0.00     0.039 C 
HETATM    2  C2  UNL     1      34.717   7.182  47.703  1.00  0.00     0.134 C 
HETATM    3  C3  UNL     1      33.629   6.483  48.526  1.00  0.00     0.077 C 
HETATM    4  C4  UNL     1      33.586   5.148  48.737  1.00  0.00     0.037 C 
HETATM    5  C5  UNL     1      34.077   4.171  47.698  1.00  0.00     0.028 C 
HETATM    6  C6  UNL     1      34.277   4.616  46.421  1.00  0.00     0.020 C 
HETATM    7  C7  UNL     1      34.005   5.947  45.745  1.00  0.00     0.175 C 
HETATM    8  N2  UNL     1      34.023   7.126  46.427  1.00  0.00    -0.382 N 
HETATM    9  C8  UNL     1      33.030   8.109  46.456  1.00  0.00     0.187 C 
HETATM   10  C9  UNL     1      32.106   8.226  45.312  1.00  0.00    -0.049 C 
HETATM   11  C12 UNL     1      30.767   8.157  45.442  1.00  0.00     0.005 C 
HETATM   12  C13 UNL     1      29.357   8.057  45.797  1.00  0.00     0.000 C 
HETATM   13  C14 UNL     1      28.813   7.878  47.021  1.00  0.00     0.031 C 
HETATM   14  C15 UNL     1      28.746   7.693  48.462  1.00  0.00     0.363 C 
HETATM   15  N4  UNL     1      29.336   8.757  49.243  1.00  0.00    -0.243 NA
HETATM   16  C16 UNL     1      30.434   9.307  48.874  1.00  0.00     0.232 C 
HETATM   17  N5  UNL     1      31.233   9.050  47.764  1.00  0.00    -0.220 NA
HETATM   18  C17 UNL     1      32.268   8.283  47.766  1.00  0.00     0.173 C 
HETATM   19  O1  UNL     1      32.778   7.552  48.937  1.00  0.00    -0.296 OA
ENDROOT
BRANCH   6  20
HETATM   20  N1  UNL     1      34.841   3.496  45.750  1.00  0.00    -0.401 N 
HETATM   21  H7  UNL     1      35.832   3.527  45.409  1.00  0.00     0.156 HD
HETATM   22  H8  UNL     1      34.043   2.823  45.753  1.00  0.00     0.156 HD
ENDBRANCH   6  20
BRANCH  10  23
HETATM   23  C10 UNL     1      32.905   8.443  44.106  1.00  0.00     0.051 C 
BRANCH  23  24
HETATM   24  C11 UNL     1      32.194   8.128  42.803  1.00  0.00     0.119 C 
HETATM   25 CL1  UNL     1      32.532   6.405  42.436  1.00  0.00    -0.130 Cl
ENDBRANCH  23  24
ENDBRANCH  10  23
BRANCH  14  26
HETATM   26  N3  UNL     1      29.294   6.375  48.783  1.00  0.00     0.106 N 
HETATM   27  H20 UNL     1      28.964   6.188  49.777  1.00  0.00     0.316 HD
HETATM   28  H21 UNL     1      28.783   5.683  48.215  1.00  0.00     0.316 HD
ENDBRANCH  14  26
TORSDOF 4
ENDMDL
