MODEL 1
REMARK VINA RESULT:      -8.5      0.000      0.000
REMARK  5 active torsions:
REMARK  status: ('A' for Active; 'I' for Inactive)
REMARK    1  A    between atoms: C3_5  and  C4_6 
REMARK    2  A    between atoms: C6_9  and  N3_10 
REMARK       I    between atoms: N3_10  and  C7_11 
REMARK    3  A    between atoms: C7_11  and  C8_13 
REMARK    4  A    between atoms: C9_15  and  C10_16 
REMARK    5  A    between atoms: C10_16  and  N4_17 
ROOT
HETATM    1  C4  UNL     1      22.159   0.690  52.276  1.00  0.00     0.058 C 
HETATM    2  C5  UNL     1      20.893   0.411  52.300  1.00  0.00     0.178 C 
HETATM    3 BR1  UNL     1      19.045   0.107  52.316  1.00  0.00    -0.200 Br
ENDROOT
BRANCH   1   4
HETATM    4  C3  UNL     1      23.587   0.878  52.271  1.00  0.00     0.058 C 
HETATM    5  N2  UNL     1      24.141  -0.068  53.146  1.00  0.00    -0.341 N 
HETATM    6  C2  UNL     1      25.399  -0.356  53.712  1.00  0.00     0.126 C 
HETATM    7  H4  UNL     1      23.431  -0.778  53.495  1.00  0.00     0.167 HD
HETATM    8  N1  UNL     1      25.400  -0.995  54.838  1.00  0.00    -0.279 NA
HETATM    9  C22 UNL     1      26.757  -0.097  53.321  1.00  0.00     0.184 A 
HETATM   10  C1  UNL     1      24.127  -1.360  55.418  1.00  0.00     0.179 C 
HETATM   11  C18 UNL     1      27.141   1.203  52.813  1.00  0.00    -0.028 A 
HETATM   12  N5  UNL     1      27.727  -0.458  54.379  1.00  0.00    -0.384 N 
HETATM   13  C17 UNL     1      26.535   2.047  51.755  1.00  0.00     0.012 C 
HETATM   14  C19 UNL     1      28.200   1.916  53.250  1.00  0.00     0.011 A 
HETATM   15  C16 UNL     1      25.359   2.284  51.258  1.00  0.00     0.032 C 
HETATM   16  C6  UNL     1      24.026   1.827  51.501  1.00  0.00     0.061 C 
HETATM   17  C20 UNL     1      29.058   1.402  54.308  1.00  0.00     0.017 A 
HETATM   18  C21 UNL     1      28.854   0.234  54.889  1.00  0.00     0.084 A 
HETATM   19  H27 UNL     1      27.493  -1.404  54.794  1.00  0.00     0.160 HD
BRANCH  16  20
HETATM   20  N3  UNL     1      23.023   2.516  50.798  1.00  0.00    -0.323 N 
HETATM   21  C7  UNL     1      22.357   3.736  50.871  1.00  0.00     0.254 C 
HETATM   22  O1  UNL     1      22.694   4.495  51.805  1.00  0.00    -0.270 OA
HETATM   23  H7  UNL     1      22.626   2.022  49.978  1.00  0.00     0.169 HD
BRANCH  21  24
HETATM   24  C8  UNL     1      21.312   4.248  49.993  1.00  0.00     0.244 A 
HETATM   25  O2  UNL     1      21.307   5.603  49.749  1.00  0.00    -0.364 OA
HETATM   26  C9  UNL     1      21.513   4.803  48.655  1.00  0.00     0.189 A 
BRANCH  26  27
HETATM   27  C10 UNL     1      22.798   4.896  47.924  1.00  0.00     0.307 C 
BRANCH  27  28
HETATM   28  N4  UNL     1      23.740   5.870  48.406  1.00  0.00     0.091 N 
HETATM   29  C11 UNL     1      23.972   6.989  47.567  1.00  0.00     0.272 C 
HETATM   30  C12 UNL     1      25.351   7.580  47.671  1.00  0.00     0.030 C 
HETATM   31  C13 UNL     1      25.774   7.633  49.100  1.00  0.00     0.003 C 
HETATM   32  C14 UNL     1      25.670   6.287  49.787  1.00  0.00     0.030 C 
HETATM   33  C15 UNL     1      24.939   5.277  48.946  1.00  0.00     0.272 C 
ENDBRANCH  27  28
ENDBRANCH  26  27
ENDBRANCH  21  24
ENDBRANCH  16  20
ENDBRANCH   1   4
TORSDOF 5
ENDMDL
MODEL 2
REMARK VINA RESULT:      -8.4      1.577      1.953
REMARK  5 active torsions:
REMARK  status: ('A' for Active; 'I' for Inactive)
REMARK    1  A    between atoms: C3_5  and  C4_6 
REMARK    2  A    between atoms: C6_9  and  N3_10 
REMARK       I    between atoms: N3_10  and  C7_11 
REMARK    3  A    between atoms: C7_11  and  C8_13 
REMARK    4  A    between atoms: C9_15  and  C10_16 
REMARK    5  A    between atoms: C10_16  and  N4_17 
ROOT
HETATM    1  C4  UNL     1      22.036   0.332  52.654  1.00  0.00     0.058 C 
HETATM    2  C5  UNL     1      20.807  -0.061  52.776  1.00  0.00     0.178 C 
HETATM    3 BR1  UNL     1      19.001  -0.530  52.944  1.00  0.00    -0.200 Br
ENDROOT
BRANCH   1   4
HETATM    4  C3  UNL     1      23.436   0.647  52.527  1.00  0.00     0.058 C 
HETATM    5  N2  UNL     1      24.141  -0.201  53.395  1.00  0.00    -0.341 N 
HETATM    6  C2  UNL     1      25.459  -0.346  53.869  1.00  0.00     0.126 C 
HETATM    7  H4  UNL     1      23.529  -0.954  53.828  1.00  0.00     0.167 HD
HETATM    8  N1  UNL     1      25.605  -0.926  55.018  1.00  0.00    -0.279 NA
HETATM    9  C22 UNL     1      26.753   0.014  53.361  1.00  0.00     0.184 A 
HETATM   10  C1  UNL     1      24.419  -1.375  55.713  1.00  0.00     0.179 C 
HETATM   11  C18 UNL     1      26.974   1.317  52.769  1.00  0.00    -0.028 A 
HETATM   12  N5  UNL     1      27.830  -0.205  54.353  1.00  0.00    -0.384 N 
HETATM   13  C17 UNL     1      26.215   2.049  51.728  1.00  0.00     0.012 C 
HETATM   14  C19 UNL     1      27.993   2.142  53.090  1.00  0.00     0.011 A 
HETATM   15  C16 UNL     1      24.988   2.154  51.316  1.00  0.00     0.032 C 
HETATM   16  C6  UNL     1      23.725   1.592  51.685  1.00  0.00     0.061 C 
HETATM   17  C20 UNL     1      28.972   1.761  54.097  1.00  0.00     0.017 A 
HETATM   18  C21 UNL     1      28.923   0.610  54.741  1.00  0.00     0.084 A 
HETATM   19  H27 UNL     1      27.718  -1.147  54.825  1.00  0.00     0.160 HD
BRANCH  16  20
HETATM   20  N3  UNL     1      22.612   2.152  51.035  1.00  0.00    -0.323 N 
HETATM   21  C7  UNL     1      22.277   2.623  49.768  1.00  0.00     0.254 C 
HETATM   22  O1  UNL     1      23.175   2.560  48.901  1.00  0.00    -0.270 OA
HETATM   23  H7  UNL     1      21.765   2.276  51.619  1.00  0.00     0.169 HD
BRANCH  21  24
HETATM   24  C8  UNL     1      21.008   3.181  49.318  1.00  0.00     0.244 A 
HETATM   25  O2  UNL     1      19.960   3.151  50.209  1.00  0.00    -0.364 OA
HETATM   26  C9  UNL     1      20.379   4.398  49.828  1.00  0.00     0.189 A 
BRANCH  26  27
HETATM   27  C10 UNL     1      20.935   5.316  50.848  1.00  0.00     0.307 C 
BRANCH  27  28
HETATM   28  N4  UNL     1      21.951   6.230  50.401  1.00  0.00     0.091 N 
HETATM   29  C11 UNL     1      23.266   5.988  50.873  1.00  0.00     0.272 C 
HETATM   30  C12 UNL     1      24.120   7.219  51.021  1.00  0.00     0.030 C 
HETATM   31  C13 UNL     1      23.913   8.123  49.854  1.00  0.00     0.003 C 
HETATM   32  C14 UNL     1      22.453   8.458  49.629  1.00  0.00     0.030 C 
HETATM   33  C15 UNL     1      21.541   7.612  50.476  1.00  0.00     0.272 C 
ENDBRANCH  27  28
ENDBRANCH  26  27
ENDBRANCH  21  24
ENDBRANCH  16  20
ENDBRANCH   1   4
TORSDOF 5
ENDMDL
MODEL 3
REMARK VINA RESULT:      -8.2      6.950     10.055
REMARK  5 active torsions:
REMARK  status: ('A' for Active; 'I' for Inactive)
REMARK    1  A    between atoms: C3_5  and  C4_6 
REMARK    2  A    between atoms: C6_9  and  N3_10 
REMARK       I    between atoms: N3_10  and  C7_11 
REMARK    3  A    between atoms: C7_11  and  C8_13 
REMARK    4  A    between atoms: C9_15  and  C10_16 
REMARK    5  A    between atoms: C10_16  and  N4_17 
ROOT
HETATM    1  C4  UNL     1      29.247   9.442  48.678  1.00  0.00     0.058 C 
HETATM    2  C5  UNL     1      29.801  10.603  48.838  1.00  0.00     0.178 C 
HETATM    3 BR1  UNL     1      30.546  12.315  48.988  1.00  0.00    -0.200 Br
ENDROOT
BRANCH   1   4
HETATM    4  C3  UNL     1      28.698   8.113  48.600  1.00  0.00     0.058 C 
HETATM    5  N2  UNL     1      27.312   8.215  48.794  1.00  0.00    -0.341 N 
HETATM    6  C2  UNL     1      26.217   7.348  48.978  1.00  0.00     0.126 C 
HETATM    7  H4  UNL     1      26.968   9.221  48.811  1.00  0.00     0.167 HD
HETATM    8  N1  UNL     1      25.193   7.827  49.608  1.00  0.00    -0.279 NA
HETATM    9  C22 UNL     1      25.947   5.985  48.617  1.00  0.00     0.184 A 
HETATM   10  C1  UNL     1      25.252   9.198  50.066  1.00  0.00     0.179 C 
HETATM   11  C18 UNL     1      26.953   4.960  48.805  1.00  0.00    -0.028 A 
HETATM   12  N5  UNL     1      24.691   5.481  49.217  1.00  0.00    -0.384 N 
HETATM   13  C17 UNL     1      28.381   4.921  48.410  1.00  0.00     0.012 C 
HETATM   14  C19 UNL     1      26.737   3.776  49.416  1.00  0.00     0.011 A 
HETATM   15  C16 UNL     1      29.365   5.751  48.248  1.00  0.00     0.032 C 
HETATM   16  C6  UNL     1      29.556   7.163  48.379  1.00  0.00     0.061 C 
HETATM   17  C20 UNL     1      25.425   3.442  49.951  1.00  0.00     0.017 A 
HETATM   18  C21 UNL     1      24.391   4.259  49.871  1.00  0.00     0.084 A 
HETATM   19  H27 UNL     1      23.914   6.194  49.113  1.00  0.00     0.160 HD
BRANCH  16  20
HETATM   20  N3  UNL     1      30.886   7.598  48.254  1.00  0.00    -0.323 N 
HETATM   21  C7  UNL     1      32.095   7.448  48.928  1.00  0.00     0.254 C 
HETATM   22  O1  UNL     1      32.072   6.731  49.951  1.00  0.00    -0.270 OA
HETATM   23  H7  UNL     1      31.085   8.212  47.443  1.00  0.00     0.169 HD
BRANCH  21  24
HETATM   24  C8  UNL     1      33.393   8.020  48.593  1.00  0.00     0.244 A 
HETATM   25  O2  UNL     1      34.486   7.191  48.687  1.00  0.00    -0.364 OA
HETATM   26  C9  UNL     1      34.211   7.668  47.433  1.00  0.00     0.189 A 
BRANCH  26  27
HETATM   27  C10 UNL     1      33.852   6.712  46.359  1.00  0.00     0.307 C 
BRANCH  27  28
HETATM   28  N4  UNL     1      33.678   5.341  46.755  1.00  0.00     0.091 N 
HETATM   29  C11 UNL     1      34.799   4.489  46.578  1.00  0.00     0.272 C 
HETATM   30  C12 UNL     1      34.459   3.050  46.304  1.00  0.00     0.030 C 
HETATM   31  C13 UNL     1      33.338   2.615  47.186  1.00  0.00     0.003 C 
HETATM   32  C14 UNL     1      32.130   3.522  47.079  1.00  0.00     0.030 C 
HETATM   33  C15 UNL     1      32.430   4.776  46.303  1.00  0.00     0.272 C 
ENDBRANCH  27  28
ENDBRANCH  26  27
ENDBRANCH  21  24
ENDBRANCH  16  20
ENDBRANCH   1   4
TORSDOF 5
ENDMDL
MODEL 4
REMARK VINA RESULT:      -8.1      2.734      4.683
REMARK  5 active torsions:
REMARK  status: ('A' for Active; 'I' for Inactive)
REMARK    1  A    between atoms: C3_5  and  C4_6 
REMARK    2  A    between atoms: C6_9  and  N3_10 
REMARK       I    between atoms: N3_10  and  C7_11 
REMARK    3  A    between atoms: C7_11  and  C8_13 
REMARK    4  A    between atoms: C9_15  and  C10_16 
REMARK    5  A    between atoms: C10_16  and  N4_17 
ROOT
HETATM    1  C4  UNL     1      21.960   0.390  52.407  1.00  0.00     0.058 C 
HETATM    2  C5  UNL     1      20.698   0.094  52.373  1.00  0.00     0.178 C 
HETATM    3 BR1  UNL     1      18.860  -0.271  52.406  1.00  0.00    -0.200 Br
ENDROOT
BRANCH   1   4
HETATM    4  C3  UNL     1      23.376   0.642  52.345  1.00  0.00     0.058 C 
HETATM    5  N2  UNL     1      23.999  -0.213  53.267  1.00  0.00    -0.341 N 
HETATM    6  C2  UNL     1      25.284  -0.401  53.812  1.00  0.00     0.126 C 
HETATM    7  H4  UNL     1      23.334  -0.928  53.686  1.00  0.00     0.167 HD
HETATM    8  N1  UNL     1      25.347  -0.957  54.979  1.00  0.00    -0.279 NA
HETATM    9  C22 UNL     1      26.617  -0.109  53.362  1.00  0.00     0.184 A 
HETATM   10  C1  UNL     1      24.109  -1.338  55.623  1.00  0.00     0.179 C 
HETATM   11  C18 UNL     1      26.924   1.168  52.752  1.00  0.00    -0.028 A 
HETATM   12  N5  UNL     1      27.631  -0.348  54.413  1.00  0.00    -0.384 N 
HETATM   13  C17 UNL     1      26.250   1.905  51.657  1.00  0.00     0.012 C 
HETATM   14  C19 UNL     1      27.960   1.958  53.106  1.00  0.00     0.011 A 
HETATM   15  C16 UNL     1      25.051   2.052  51.181  1.00  0.00     0.032 C 
HETATM   16  C6  UNL     1      23.748   1.552  51.497  1.00  0.00     0.061 C 
HETATM   17  C20 UNL     1      28.869   1.561  54.171  1.00  0.00     0.017 A 
HETATM   18  C21 UNL     1      28.738   0.429  54.838  1.00  0.00     0.084 A 
HETATM   19  H27 UNL     1      27.455  -1.272  54.901  1.00  0.00     0.160 HD
BRANCH  16  20
HETATM   20  N3  UNL     1      22.694   2.143  50.778  1.00  0.00    -0.323 N 
HETATM   21  C7  UNL     1      22.025   3.362  50.733  1.00  0.00     0.254 C 
HETATM   22  O1  UNL     1      22.418   4.239  51.533  1.00  0.00    -0.270 OA
HETATM   23  H7  UNL     1      22.248   1.545  50.060  1.00  0.00     0.169 HD
BRANCH  21  24
HETATM   24  C8  UNL     1      20.919   3.754  49.868  1.00  0.00     0.244 A 
HETATM   25  O2  UNL     1      20.077   2.754  49.437  1.00  0.00    -0.364 OA
HETATM   26  C9  UNL     1      19.500   3.718  50.222  1.00  0.00     0.189 A 
BRANCH  26  27
HETATM   27  C10 UNL     1      18.929   3.335  51.534  1.00  0.00     0.307 C 
BRANCH  27  28
HETATM   28  N4  UNL     1      17.514   3.084  51.567  1.00  0.00     0.091 N 
HETATM   29  C11 UNL     1      16.981   2.341  50.482  1.00  0.00     0.272 C 
HETATM   30  C12 UNL     1      15.555   2.668  50.134  1.00  0.00     0.030 C 
HETATM   31  C13 UNL     1      14.751   2.827  51.380  1.00  0.00     0.003 C 
HETATM   32  C14 UNL     1      15.356   3.834  52.337  1.00  0.00     0.030 C 
HETATM   33  C15 UNL     1      16.741   4.249  51.920  1.00  0.00     0.272 C 
ENDBRANCH  27  28
ENDBRANCH  26  27
ENDBRANCH  21  24
ENDBRANCH  16  20
ENDBRANCH   1   4
TORSDOF 5
ENDMDL
MODEL 5
REMARK VINA RESULT:      -7.9      0.940      1.452
REMARK  5 active torsions:
REMARK  status: ('A' for Active; 'I' for Inactive)
REMARK    1  A    between atoms: C3_5  and  C4_6 
REMARK    2  A    between atoms: C6_9  and  N3_10 
REMARK       I    between atoms: N3_10  and  C7_11 
REMARK    3  A    between atoms: C7_11  and  C8_13 
REMARK    4  A    between atoms: C9_15  and  C10_16 
REMARK    5  A    between atoms: C10_16  and  N4_17 
ROOT
HETATM    1  C4  UNL     1      22.144   0.585  52.316  1.00  0.00     0.058 C 
HETATM    2  C5  UNL     1      20.874   0.332  52.243  1.00  0.00     0.178 C 
HETATM    3 BR1  UNL     1      19.027   0.019  52.227  1.00  0.00    -0.200 Br
ENDROOT
BRANCH   1   4
HETATM    4  C3  UNL     1      23.567   0.803  52.288  1.00  0.00     0.058 C 
HETATM    5  N2  UNL     1      24.154  -0.114  53.173  1.00  0.00    -0.341 N 
HETATM    6  C2  UNL     1      25.425  -0.364  53.726  1.00  0.00     0.126 C 
HETATM    7  H4  UNL     1      23.464  -0.833  53.544  1.00  0.00     0.167 HD
HETATM    8  N1  UNL     1      25.455  -0.981  54.863  1.00  0.00    -0.279 NA
HETATM    9  C22 UNL     1      26.771  -0.083  53.311  1.00  0.00     0.184 A 
HETATM   10  C1  UNL     1      24.198  -1.364  55.468  1.00  0.00     0.179 C 
HETATM   11  C18 UNL     1      27.120   1.215  52.774  1.00  0.00    -0.028 A 
HETATM   12  N5  UNL     1      27.763  -0.403  54.363  1.00  0.00    -0.384 N 
HETATM   13  C17 UNL     1      26.482   2.026  51.709  1.00  0.00     0.012 C 
HETATM   14  C19 UNL     1      28.169   1.959  53.184  1.00  0.00     0.011 A 
HETATM   15  C16 UNL     1      25.295   2.228  51.224  1.00  0.00     0.032 C 
HETATM   16  C6  UNL     1      23.975   1.747  51.494  1.00  0.00     0.061 C 
HETATM   17  C20 UNL     1      29.052   1.483  54.239  1.00  0.00     0.017 A 
HETATM   18  C21 UNL     1      28.882   0.322  54.844  1.00  0.00     0.084 A 
HETATM   19  H27 UNL     1      27.556  -1.346  54.798  1.00  0.00     0.160 HD
BRANCH  16  20
HETATM   20  N3  UNL     1      22.948   2.401  50.793  1.00  0.00    -0.323 N 
HETATM   21  C7  UNL     1      22.296   3.631  50.815  1.00  0.00     0.254 C 
HETATM   22  O1  UNL     1      22.680   4.444  51.683  1.00  0.00    -0.270 OA
HETATM   23  H7  UNL     1      22.511   1.860  50.025  1.00  0.00     0.169 HD
BRANCH  21  24
HETATM   24  C8  UNL     1      21.218   4.097  49.953  1.00  0.00     0.244 A 
HETATM   25  O2  UNL     1      21.084   5.458  49.797  1.00  0.00    -0.364 OA
HETATM   26  C9  UNL     1      21.381   4.757  48.658  1.00  0.00     0.189 A 
BRANCH  26  27
HETATM   27  C10 UNL     1      22.660   5.021  47.959  1.00  0.00     0.307 C 
BRANCH  27  28
HETATM   28  N4  UNL     1      22.742   6.250  47.218  1.00  0.00     0.091 N 
HETATM   29  C11 UNL     1      22.346   6.191  45.857  1.00  0.00     0.272 C 
HETATM   30  C12 UNL     1      23.052   7.164  44.952  1.00  0.00     0.030 C 
HETATM   31  C13 UNL     1      23.170   8.489  45.626  1.00  0.00     0.003 C 
HETATM   32  C14 UNL     1      23.823   8.392  46.989  1.00  0.00     0.030 C 
HETATM   33  C15 UNL     1      23.974   6.966  47.444  1.00  0.00     0.272 C 
ENDBRANCH  27  28
ENDBRANCH  26  27
ENDBRANCH  21  24
ENDBRANCH  16  20
ENDBRANCH   1   4
TORSDOF 5
ENDMDL
MODEL 6
REMARK VINA RESULT:      -7.6      5.327      7.728
REMARK  5 active torsions:
REMARK  status: ('A' for Active; 'I' for Inactive)
REMARK    1  A    between atoms: C3_5  and  C4_6 
REMARK    2  A    between atoms: C6_9  and  N3_10 
REMARK       I    between atoms: N3_10  and  C7_11 
REMARK    3  A    between atoms: C7_11  and  C8_13 
REMARK    4  A    between atoms: C9_15  and  C10_16 
REMARK    5  A    between atoms: C10_16  and  N4_17 
ROOT
HETATM    1  C4  UNL     1      25.228   6.877  48.309  1.00  0.00     0.058 C 
HETATM    2  C5  UNL     1      25.121   8.055  47.779  1.00  0.00     0.178 C 
HETATM    3 BR1  UNL     1      25.055   9.739  46.961  1.00  0.00    -0.200 Br
ENDROOT
BRANCH   1   4
HETATM    4  C3  UNL     1      25.239   5.591  48.958  1.00  0.00     0.058 C 
HETATM    5  N2  UNL     1      23.906   5.173  49.091  1.00  0.00    -0.341 N 
HETATM    6  C2  UNL     1      23.196   4.135  49.726  1.00  0.00     0.126 C 
HETATM    7  H4  UNL     1      23.220   5.802  48.577  1.00  0.00     0.167 HD
HETATM    8  N1  UNL     1      21.958   4.371  50.022  1.00  0.00    -0.279 NA
HETATM    9  C22 UNL     1      23.531   2.804  50.149  1.00  0.00     0.184 A 
HETATM   10  C1  UNL     1      21.407   5.664  49.680  1.00  0.00     0.179 C 
HETATM   11  C18 UNL     1      24.779   2.543  50.836  1.00  0.00    -0.028 A 
HETATM   12  N5  UNL     1      22.452   2.177  50.945  1.00  0.00    -0.384 N 
HETATM   13  C17 UNL     1      26.170   2.929  50.499  1.00  0.00     0.012 C 
HETATM   14  C19 UNL     1      24.889   1.846  51.987  1.00  0.00     0.011 A 
HETATM   15  C16 UNL     1      26.788   3.903  49.904  1.00  0.00     0.032 C 
HETATM   16  C6  UNL     1      26.412   5.125  49.262  1.00  0.00     0.061 C 
HETATM   17  C20 UNL     1      23.712   1.293  52.638  1.00  0.00     0.017 A 
HETATM   18  C21 UNL     1      22.492   1.436  52.153  1.00  0.00     0.084 A 
HETATM   19  H27 UNL     1      21.509   2.339  50.491  1.00  0.00     0.160 HD
BRANCH  16  20
HETATM   20  N3  UNL     1      27.481   5.963  48.902  1.00  0.00    -0.323 N 
HETATM   21  C7  UNL     1      28.734   5.848  48.307  1.00  0.00     0.254 C 
HETATM   22  O1  UNL     1      29.079   4.697  47.963  1.00  0.00    -0.270 OA
HETATM   23  H7  UNL     1      27.359   6.968  49.119  1.00  0.00     0.169 HD
BRANCH  21  24
HETATM   24  C8  UNL     1      29.702   6.902  48.029  1.00  0.00     0.244 A 
HETATM   25  O2  UNL     1      29.999   7.767  49.058  1.00  0.00    -0.364 OA
HETATM   26  C9  UNL     1      31.043   7.006  48.602  1.00  0.00     0.189 A 
BRANCH  26  27
HETATM   27  C10 UNL     1      31.687   6.038  49.521  1.00  0.00     0.307 C 
BRANCH  27  28
HETATM   28  N4  UNL     1      32.769   5.262  48.977  1.00  0.00     0.091 N 
HETATM   29  C11 UNL     1      33.976   5.961  48.720  1.00  0.00     0.272 C 
HETATM   30  C12 UNL     1      34.790   5.414  47.579  1.00  0.00     0.030 C 
HETATM   31  C13 UNL     1      34.801   3.924  47.632  1.00  0.00     0.003 C 
HETATM   32  C14 UNL     1      33.407   3.333  47.680  1.00  0.00     0.030 C 
HETATM   33  C15 UNL     1      32.355   4.384  47.910  1.00  0.00     0.272 C 
ENDBRANCH  27  28
ENDBRANCH  26  27
ENDBRANCH  21  24
ENDBRANCH  16  20
ENDBRANCH   1   4
TORSDOF 5
ENDMDL
MODEL 7
REMARK VINA RESULT:      -7.6      3.649      5.885
REMARK  5 active torsions:
REMARK  status: ('A' for Active; 'I' for Inactive)
REMARK    1  A    between atoms: C3_5  and  C4_6 
REMARK    2  A    between atoms: C6_9  and  N3_10 
REMARK       I    between atoms: N3_10  and  C7_11 
REMARK    3  A    between atoms: C7_11  and  C8_13 
REMARK    4  A    between atoms: C9_15  and  C10_16 
REMARK    5  A    between atoms: C10_16  and  N4_17 
ROOT
HETATM    1  C4  UNL     1      22.578   2.161  50.010  1.00  0.00     0.058 C 
HETATM    2  C5  UNL     1      21.737   2.550  49.103  1.00  0.00     0.178 C 
HETATM    3 BR1  UNL     1      20.598   3.108  47.724  1.00  0.00    -0.200 Br
ENDROOT
BRANCH   1   4
HETATM    4  C3  UNL     1      23.417   1.734  51.100  1.00  0.00     0.058 C 
HETATM    5  N2  UNL     1      24.627   2.438  51.003  1.00  0.00    -0.341 N 
HETATM    6  C2  UNL     1      25.895   2.423  51.617  1.00  0.00     0.126 C 
HETATM    7  H4  UNL     1      24.605   3.203  50.266  1.00  0.00     0.167 HD
HETATM    8  N1  UNL     1      26.884   2.887  50.924  1.00  0.00    -0.279 NA
HETATM    9  C22 UNL     1      26.384   1.993  52.897  1.00  0.00     0.184 A 
HETATM   10  C1  UNL     1      26.614   3.380  49.591  1.00  0.00     0.179 C 
HETATM   11  C18 UNL     1      25.954   0.731  53.463  1.00  0.00    -0.028 A 
HETATM   12  N5  UNL     1      27.861   2.030  52.978  1.00  0.00    -0.384 N 
HETATM   13  C17 UNL     1      24.598   0.161  53.641  1.00  0.00     0.012 C 
HETATM   14  C19 UNL     1      26.785  -0.207  53.964  1.00  0.00     0.011 A 
HETATM   15  C16 UNL     1      23.443   0.202  53.049  1.00  0.00     0.032 C 
HETATM   16  C6  UNL     1      22.901   0.842  51.890  1.00  0.00     0.061 C 
HETATM   17  C20 UNL     1      28.226  -0.002  53.965  1.00  0.00     0.017 A 
HETATM   18  C21 UNL     1      28.793   1.090  53.486  1.00  0.00     0.084 A 
HETATM   19  H27 UNL     1      28.236   2.934  52.573  1.00  0.00     0.160 HD
BRANCH  16  20
HETATM   20  N3  UNL     1      21.600   0.441  51.543  1.00  0.00    -0.323 N 
HETATM   21  C7  UNL     1      20.327   0.445  52.107  1.00  0.00     0.254 C 
HETATM   22  O1  UNL     1      20.233   0.932  53.254  1.00  0.00    -0.270 OA
HETATM   23  H7  UNL     1      21.495   0.010  50.606  1.00  0.00     0.169 HD
BRANCH  21  24
HETATM   24  C8  UNL     1      19.082  -0.046  51.531  1.00  0.00     0.244 A 
HETATM   25  O2  UNL     1      17.910   0.403  52.095  1.00  0.00    -0.364 OA
HETATM   26  C9  UNL     1      18.109   0.752  50.785  1.00  0.00     0.189 A 
BRANCH  26  27
HETATM   27  C10 UNL     1      18.233   2.184  50.429  1.00  0.00     0.307 C 
BRANCH  27  28
HETATM   28  N4  UNL     1      17.012   2.943  50.394  1.00  0.00     0.091 N 
HETATM   29  C11 UNL     1      16.750   3.766  51.519  1.00  0.00     0.272 C 
HETATM   30  C12 UNL     1      15.292   3.970  51.826  1.00  0.00     0.030 C 
HETATM   31  C13 UNL     1      14.533   4.192  50.561  1.00  0.00     0.003 C 
HETATM   32  C14 UNL     1      14.760   3.090  49.546  1.00  0.00     0.030 C 
HETATM   33  C15 UNL     1      15.878   2.168  49.952  1.00  0.00     0.272 C 
ENDBRANCH  27  28
ENDBRANCH  26  27
ENDBRANCH  21  24
ENDBRANCH  16  20
ENDBRANCH   1   4
TORSDOF 5
ENDMDL
MODEL 8
REMARK VINA RESULT:      -7.5      2.816      5.413
REMARK  5 active torsions:
REMARK  status: ('A' for Active; 'I' for Inactive)
REMARK    1  A    between atoms: C3_5  and  C4_6 
REMARK    2  A    between atoms: C6_9  and  N3_10 
REMARK       I    between atoms: N3_10  and  C7_11 
REMARK    3  A    between atoms: C7_11  and  C8_13 
REMARK    4  A    between atoms: C9_15  and  C10_16 
REMARK    5  A    between atoms: C10_16  and  N4_17 
ROOT
HETATM    1  C4  UNL     1      24.926   0.493  53.260  1.00  0.00     0.058 C 
HETATM    2  C5  UNL     1      26.156   0.232  53.574  1.00  0.00     0.178 C 
HETATM    3 BR1  UNL     1      27.943  -0.049  54.062  1.00  0.00    -0.200 Br
ENDROOT
BRANCH   1   4
HETATM    4  C3  UNL     1      23.550   0.664  52.871  1.00  0.00     0.058 C 
HETATM    5  N2  UNL     1      22.759  -0.032  53.798  1.00  0.00    -0.341 N 
HETATM    6  C2  UNL     1      21.406  -0.397  53.948  1.00  0.00     0.126 C 
HETATM    7  H4  UNL     1      23.314  -0.396  54.628  1.00  0.00     0.167 HD
HETATM    8  N1  UNL     1      21.162  -1.443  54.671  1.00  0.00    -0.279 NA
HETATM    9  C22 UNL     1      20.164   0.138  53.468  1.00  0.00     0.184 A 
HETATM   10  C1  UNL     1      22.282  -2.144  55.261  1.00  0.00     0.179 C 
HETATM   11  C18 UNL     1      20.028   0.558  52.089  1.00  0.00    -0.028 A 
HETATM   12  N5  UNL     1      19.014  -0.743  53.773  1.00  0.00    -0.384 N 
HETATM   13  C17 UNL     1      20.882   1.438  51.255  1.00  0.00     0.012 C 
HETATM   14  C19 UNL     1      19.018   0.191  51.271  1.00  0.00     0.011 A 
HETATM   15  C16 UNL     1      22.137   1.751  51.148  1.00  0.00     0.032 C 
HETATM   16  C6  UNL     1      23.352   1.385  51.809  1.00  0.00     0.061 C 
HETATM   17  C20 UNL     1      17.960  -0.689  51.743  1.00  0.00     0.017 A 
HETATM   18  C21 UNL     1      17.925  -1.170  52.972  1.00  0.00     0.084 A 
HETATM   19  H27 UNL     1      19.062  -1.087  54.774  1.00  0.00     0.160 HD
BRANCH  16  20
HETATM   20  N3  UNL     1      24.525   1.878  51.214  1.00  0.00    -0.323 N 
HETATM   21  C7  UNL     1      25.241   3.071  51.163  1.00  0.00     0.254 C 
HETATM   22  O1  UNL     1      24.765   4.029  51.811  1.00  0.00    -0.270 OA
HETATM   23  H7  UNL     1      25.054   1.203  50.632  1.00  0.00     0.169 HD
BRANCH  21  24
HETATM   24  C8  UNL     1      26.480   3.352  50.450  1.00  0.00     0.244 A 
HETATM   25  O2  UNL     1      26.509   3.060  49.105  1.00  0.00    -0.364 OA
HETATM   26  C9  UNL     1      26.667   4.382  49.429  1.00  0.00     0.189 A 
BRANCH  26  27
HETATM   27  C10 UNL     1      25.656   5.364  48.973  1.00  0.00     0.307 C 
BRANCH  27  28
HETATM   28  N4  UNL     1      26.150   6.656  48.582  1.00  0.00     0.091 N 
HETATM   29  C11 UNL     1      25.373   7.365  47.631  1.00  0.00     0.272 C 
HETATM   30  C12 UNL     1      26.157   8.283  46.734  1.00  0.00     0.030 C 
HETATM   31  C13 UNL     1      27.188   9.011  47.529  1.00  0.00     0.003 C 
HETATM   32  C14 UNL     1      28.080   8.076  48.318  1.00  0.00     0.030 C 
HETATM   33  C15 UNL     1      27.566   6.661  48.309  1.00  0.00     0.272 C 
ENDBRANCH  27  28
ENDBRANCH  26  27
ENDBRANCH  21  24
ENDBRANCH  16  20
ENDBRANCH   1   4
TORSDOF 5
ENDMDL
MODEL 9
REMARK VINA RESULT:      -7.4      2.823      4.741
REMARK  5 active torsions:
REMARK  status: ('A' for Active; 'I' for Inactive)
REMARK    1  A    between atoms: C3_5  and  C4_6 
REMARK    2  A    between atoms: C6_9  and  N3_10 
REMARK       I    between atoms: N3_10  and  C7_11 
REMARK    3  A    between atoms: C7_11  and  C8_13 
REMARK    4  A    between atoms: C9_15  and  C10_16 
REMARK    5  A    between atoms: C10_16  and  N4_17 
ROOT
HETATM    1  C4  UNL     1      25.479   3.727  50.249  1.00  0.00     0.058 C 
HETATM    2  C5  UNL     1      26.422   4.335  49.601  1.00  0.00     0.178 C 
HETATM    3 BR1  UNL     1      27.786   5.136  48.596  1.00  0.00    -0.200 Br
ENDROOT
BRANCH   1   4
HETATM    4  C3  UNL     1      24.431   3.148  51.050  1.00  0.00     0.058 C 
HETATM    5  N2  UNL     1      24.994   2.093  51.785  1.00  0.00    -0.341 N 
HETATM    6  C2  UNL     1      24.550   1.051  52.622  1.00  0.00     0.126 C 
HETATM    7  H4  UNL     1      26.053   2.048  51.702  1.00  0.00     0.167 HD
HETATM    8  N1  UNL     1      25.309   0.006  52.706  1.00  0.00    -0.279 NA
HETATM    9  C22 UNL     1      23.394   0.855  53.451  1.00  0.00     0.184 A 
HETATM   10  C1  UNL     1      26.540  -0.008  51.945  1.00  0.00     0.179 C 
HETATM   11  C18 UNL     1      22.074   1.199  52.966  1.00  0.00    -0.028 A 
HETATM   12  N5  UNL     1      23.317  -0.520  53.995  1.00  0.00    -0.384 N 
HETATM   13  C17 UNL     1      21.569   2.437  52.326  1.00  0.00     0.012 C 
HETATM   14  C19 UNL     1      20.998   0.384  53.025  1.00  0.00     0.011 A 
HETATM   15  C16 UNL     1      22.015   3.382  51.556  1.00  0.00     0.032 C 
HETATM   16  C6  UNL     1      23.261   3.697  50.926  1.00  0.00     0.061 C 
HETATM   17  C20 UNL     1      21.104  -0.948  53.601  1.00  0.00     0.017 A 
HETATM   18  C21 UNL     1      22.232  -1.428  54.089  1.00  0.00     0.084 A 
HETATM   19  H27 UNL     1      24.260  -0.830  54.364  1.00  0.00     0.160 HD
BRANCH  16  20
HETATM   20  N3  UNL     1      23.215   4.771  50.022  1.00  0.00    -0.323 N 
HETATM   21  C7  UNL     1      22.718   6.071  49.978  1.00  0.00     0.254 C 
HETATM   22  O1  UNL     1      22.129   6.471  51.005  1.00  0.00    -0.270 OA
HETATM   23  H7  UNL     1      23.666   4.607  49.104  1.00  0.00     0.169 HD
BRANCH  21  24
HETATM   24  C8  UNL     1      22.797   7.032  48.885  1.00  0.00     0.244 A 
HETATM   25  O2  UNL     1      22.432   8.329  49.165  1.00  0.00    -0.364 OA
HETATM   26  C9  UNL     1      23.738   8.147  48.791  1.00  0.00     0.189 A 
BRANCH  26  27
HETATM   27  C10 UNL     1      24.816   8.473  49.753  1.00  0.00     0.307 C 
BRANCH  27  28
HETATM   28  N4  UNL     1      26.155   8.495  49.229  1.00  0.00     0.091 N 
HETATM   29  C11 UNL     1      27.167   8.957  50.109  1.00  0.00     0.272 C 
HETATM   30  C12 UNL     1      28.330   9.632  49.434  1.00  0.00     0.030 C 
HETATM   31  C13 UNL     1      28.713   8.877  48.207  1.00  0.00     0.003 C 
HETATM   32  C14 UNL     1      27.544   8.666  47.266  1.00  0.00     0.030 C 
HETATM   33  C15 UNL     1      26.233   9.047  47.898  1.00  0.00     0.272 C 
ENDBRANCH  27  28
ENDBRANCH  26  27
ENDBRANCH  21  24
ENDBRANCH  16  20
ENDBRANCH   1   4
TORSDOF 5
ENDMDL
