MODEL 1
REMARK VINA RESULT:      -8.7      0.000      0.000
REMARK  1 active torsions:
REMARK  status: ('A' for Active; 'I' for Inactive)
REMARK    1  A    between atoms: C3_7  and  O3_8 
ROOT
HETATM    1  O1  UNL     1      25.572   5.069  50.343  1.00  0.00    -0.206 OA
HETATM    2  S1  UNL     1      25.768   3.620  50.220  1.00  0.00     0.242 S 
HETATM    3  O2  UNL     1      26.536   3.296  48.989  1.00  0.00    -0.206 OA
HETATM    4  N1  UNL     1      26.566   3.018  51.654  1.00  0.00    -0.212 NA
HETATM    5  C1  UNL     1      26.766   1.571  51.409  1.00  0.00     0.141 C 
HETATM    6  C2  UNL     1      27.298   1.058  52.699  1.00  0.00    -0.030 C 
HETATM    7  C3  UNL     1      27.538   1.961  53.637  1.00  0.00     0.069 C 
HETATM    8  C4  UNL     1      26.112   2.367  54.021  1.00  0.00     0.034 C 
HETATM    9  C5  UNL     1      24.822   2.435  53.511  1.00  0.00    -0.011 C 
HETATM   10  C6  UNL     1      23.988   1.484  52.713  1.00  0.00     0.065 C 
HETATM   11  C7  UNL     1      24.630   0.111  52.642  1.00  0.00    -0.017 C 
HETATM   12  C8  UNL     1      25.743  -0.702  52.692  1.00  0.00    -0.025 C 
HETATM   13  C9  UNL     1      27.268  -0.449  52.581  1.00  0.00     0.065 C 
HETATM   14  C10 UNL     1      23.712   1.955  51.339  1.00  0.00    -0.021 A 
HETATM   15  C11 UNL     1      22.465   1.410  50.988  1.00  0.00     0.052 A 
HETATM   16  C12 UNL     1      21.716   1.516  49.807  1.00  0.00     0.117 A 
HETATM   17  F1  UNL     1      20.529   0.969  49.532  1.00  0.00    -0.206 F 
HETATM   18  C13 UNL     1      22.299   2.290  48.815  1.00  0.00     0.044 A 
HETATM   19  C14 UNL     1      23.516   2.860  49.074  1.00  0.00     0.028 A 
HETATM   20  C15 UNL     1      24.202   2.719  50.249  1.00  0.00     0.082 A 
HETATM   21  H1  UNL     1      27.532   3.427  51.740  1.00  0.00     0.140 HD
ENDROOT
BRANCH   7  22
HETATM   22  O3  UNL     1      28.458   2.650  54.369  1.00  0.00    -0.360 OA
HETATM   23  H4  UNL     1      28.655   2.516  55.336  1.00  0.00     0.217 HD
ENDBRANCH   7  22
TORSDOF 1
ENDMDL
MODEL 2
REMARK VINA RESULT:      -8.0      2.696      5.019
REMARK  1 active torsions:
REMARK  status: ('A' for Active; 'I' for Inactive)
REMARK    1  A    between atoms: C3_7  and  O3_8 
ROOT
HETATM    1  O1  UNL     1      26.175   0.272  52.063  1.00  0.00    -0.206 OA
HETATM    2  S1  UNL     1      25.230   1.174  52.731  1.00  0.00     0.242 S 
HETATM    3  O2  UNL     1      25.838   1.761  53.953  1.00  0.00    -0.206 OA
HETATM    4  N1  UNL     1      24.717   2.412  51.608  1.00  0.00    -0.212 NA
HETATM    5  C1  UNL     1      23.818   3.295  52.386  1.00  0.00     0.141 C 
HETATM    6  C2  UNL     1      23.276   4.239  51.374  1.00  0.00    -0.030 C 
HETATM    7  C3  UNL     1      23.766   4.132  50.148  1.00  0.00     0.069 C 
HETATM    8  C4  UNL     1      23.150   2.802  49.704  1.00  0.00     0.034 C 
HETATM    9  C5  UNL     1      22.665   1.602  50.207  1.00  0.00    -0.011 C 
HETATM   10  C6  UNL     1      21.761   1.264  51.350  1.00  0.00     0.065 C 
HETATM   11  C7  UNL     1      21.102   2.507  51.919  1.00  0.00    -0.017 C 
HETATM   12  C8  UNL     1      21.086   3.869  52.137  1.00  0.00    -0.025 C 
HETATM   13  C9  UNL     1      22.159   4.984  52.070  1.00  0.00     0.065 C 
HETATM   14  C10 UNL     1      22.443   0.541  52.444  1.00  0.00    -0.021 A 
HETATM   15  C11 UNL     1      21.462  -0.273  53.037  1.00  0.00     0.052 A 
HETATM   16  C12 UNL     1      21.538  -1.164  54.118  1.00  0.00     0.117 A 
HETATM   17  F1  UNL     1      20.563  -1.913  54.639  1.00  0.00    -0.206 F 
HETATM   18  C13 UNL     1      22.792  -1.265  54.702  1.00  0.00     0.044 A 
HETATM   19  C14 UNL     1      23.807  -0.505  54.186  1.00  0.00     0.028 A 
HETATM   20  C15 UNL     1      23.672   0.351  53.127  1.00  0.00     0.082 A 
HETATM   21  H1  UNL     1      25.532   3.015  51.324  1.00  0.00     0.140 HD
ENDROOT
BRANCH   7  22
HETATM   22  O3  UNL     1      24.541   4.667  49.164  1.00  0.00    -0.360 OA
HETATM   23  H4  UNL     1      24.423   4.527  48.185  1.00  0.00     0.217 HD
ENDBRANCH   7  22
TORSDOF 1
ENDMDL
MODEL 3
REMARK VINA RESULT:      -7.8      4.122      6.236
REMARK  1 active torsions:
REMARK  status: ('A' for Active; 'I' for Inactive)
REMARK    1  A    between atoms: C3_7  and  O3_8 
ROOT
HETATM    1  O1  UNL     1      21.693   0.023  55.233  1.00  0.00    -0.206 OA
HETATM    2  S1  UNL     1      21.811  -0.259  53.798  1.00  0.00     0.242 S 
HETATM    3  O2  UNL     1      21.464  -1.675  53.510  1.00  0.00    -0.206 OA
HETATM    4  N1  UNL     1      20.796   0.848  52.904  1.00  0.00    -0.212 NA
HETATM    5  C1  UNL     1      20.940   0.449  51.485  1.00  0.00     0.141 C 
HETATM    6  C2  UNL     1      20.197   1.498  50.738  1.00  0.00    -0.030 C 
HETATM    7  C3  UNL     1      19.557   2.398  51.469  1.00  0.00     0.069 C 
HETATM    8  C4  UNL     1      20.733   3.192  52.047  1.00  0.00     0.034 C 
HETATM    9  C5  UNL     1      22.075   3.066  52.382  1.00  0.00    -0.011 C 
HETATM   10  C6  UNL     1      23.250   2.462  51.682  1.00  0.00     0.065 C 
HETATM   11  C7  UNL     1      22.917   2.112  50.244  1.00  0.00    -0.017 C 
HETATM   12  C8  UNL     1      22.001   1.790  49.264  1.00  0.00    -0.025 C 
HETATM   13  C9  UNL     1      20.538   1.280  49.282  1.00  0.00     0.065 C 
HETATM   14  C10 UNL     1      23.779   1.258  52.356  1.00  0.00    -0.021 A 
HETATM   15  C11 UNL     1      25.154   1.226  52.065  1.00  0.00     0.052 A 
HETATM   16  C12 UNL     1      26.151   0.311  52.434  1.00  0.00     0.117 A 
HETATM   17  F1  UNL     1      27.449   0.335  52.121  1.00  0.00    -0.206 F 
HETATM   18  C13 UNL     1      25.711  -0.742  53.222  1.00  0.00     0.044 A 
HETATM   19  C14 UNL     1      24.384  -0.789  53.554  1.00  0.00     0.028 A 
HETATM   20  C15 UNL     1      23.455   0.136  53.162  1.00  0.00     0.082 A 
HETATM   21  H1  UNL     1      19.781   0.694  53.140  1.00  0.00     0.140 HD
ENDROOT
BRANCH   7  22
HETATM   22  O3  UNL     1      18.367   2.897  51.906  1.00  0.00    -0.360 OA
HETATM   23  H4  UNL     1      17.468   2.670  51.543  1.00  0.00     0.217 HD
ENDBRANCH   7  22
TORSDOF 1
ENDMDL
MODEL 4
REMARK VINA RESULT:      -7.7      3.805      5.226
REMARK  1 active torsions:
REMARK  status: ('A' for Active; 'I' for Inactive)
REMARK    1  A    between atoms: C3_7  and  O3_8 
ROOT
HETATM    1  O1  UNL     1      22.957   6.921  49.050  1.00  0.00    -0.206 OA
HETATM    2  S1  UNL     1      23.828   6.442  50.129  1.00  0.00     0.242 S 
HETATM    3  O2  UNL     1      24.025   7.499  51.155  1.00  0.00    -0.206 OA
HETATM    4  N1  UNL     1      23.146   4.990  50.824  1.00  0.00    -0.212 NA
HETATM    5  C1  UNL     1      24.060   4.621  51.929  1.00  0.00     0.141 C 
HETATM    6  C2  UNL     1      23.548   3.306  52.396  1.00  0.00    -0.030 C 
HETATM    7  C3  UNL     1      22.434   2.872  51.826  1.00  0.00     0.069 C 
HETATM    8  C4  UNL     1      22.940   2.535  50.420  1.00  0.00     0.034 C 
HETATM    9  C5  UNL     1      23.929   2.874  49.506  1.00  0.00    -0.011 C 
HETATM   10  C6  UNL     1      25.403   3.093  49.630  1.00  0.00     0.065 C 
HETATM   11  C7  UNL     1      25.915   2.650  50.988  1.00  0.00    -0.017 C 
HETATM   12  C8  UNL     1      25.709   2.389  52.327  1.00  0.00    -0.025 C 
HETATM   13  C9  UNL     1      24.601   2.771  53.340  1.00  0.00     0.065 C 
HETATM   14  C10 UNL     1      25.810   4.495  49.400  1.00  0.00    -0.021 A 
HETATM   15  C11 UNL     1      27.110   4.437  48.870  1.00  0.00     0.052 A 
HETATM   16  C12 UNL     1      27.987   5.457  48.472  1.00  0.00     0.117 A 
HETATM   17  F1  UNL     1      29.221   5.336  47.973  1.00  0.00    -0.206 F 
HETATM   18  C13 UNL     1      27.491   6.742  48.623  1.00  0.00     0.044 A 
HETATM   19  C14 UNL     1      26.229   6.891  49.134  1.00  0.00     0.028 A 
HETATM   20  C15 UNL     1      25.419   5.855  49.506  1.00  0.00     0.082 A 
HETATM   21  H1  UNL     1      22.219   5.197  51.279  1.00  0.00     0.140 HD
ENDROOT
BRANCH   7  22
HETATM   22  O3  UNL     1      21.102   2.611  51.944  1.00  0.00    -0.360 OA
HETATM   23  H4  UNL     1      20.621   1.834  51.549  1.00  0.00     0.217 HD
ENDBRANCH   7  22
TORSDOF 1
ENDMDL
MODEL 5
REMARK VINA RESULT:      -7.6      9.372     10.785
REMARK  1 active torsions:
REMARK  status: ('A' for Active; 'I' for Inactive)
REMARK    1  A    between atoms: C3_7  and  O3_8 
ROOT
HETATM    1  O1  UNL     1      35.174   3.295  47.598  1.00  0.00    -0.206 OA
HETATM    2  S1  UNL     1      33.860   3.657  47.056  1.00  0.00     0.242 S 
HETATM    3  O2  UNL     1      33.154   2.455  46.542  1.00  0.00    -0.206 OA
HETATM    4  N1  UNL     1      32.928   4.474  48.288  1.00  0.00    -0.212 NA
HETATM    5  C1  UNL     1      31.612   4.745  47.666  1.00  0.00     0.141 C 
HETATM    6  C2  UNL     1      30.900   5.574  48.673  1.00  0.00    -0.030 C 
HETATM    7  C3  UNL     1      31.525   5.764  49.825  1.00  0.00     0.069 C 
HETATM    8  C4  UNL     1      32.658   6.698  49.389  1.00  0.00     0.034 C 
HETATM    9  C5  UNL     1      33.428   7.039  48.284  1.00  0.00    -0.011 C 
HETATM   10  C6  UNL     1      33.094   7.307  46.851  1.00  0.00     0.065 C 
HETATM   11  C7  UNL     1      31.596   7.422  46.644  1.00  0.00    -0.017 C 
HETATM   12  C8  UNL     1      30.301   7.139  47.029  1.00  0.00    -0.025 C 
HETATM   13  C9  UNL     1      29.663   6.091  47.974  1.00  0.00     0.065 C 
HETATM   14  C10 UNL     1      33.627   6.287  45.923  1.00  0.00    -0.021 A 
HETATM   15  C11 UNL     1      33.865   6.956  44.710  1.00  0.00     0.052 A 
HETATM   16  C12 UNL     1      34.360   6.488  43.484  1.00  0.00     0.117 A 
HETATM   17  F1  UNL     1      34.563   7.179  42.359  1.00  0.00    -0.206 F 
HETATM   18  C13 UNL     1      34.671   5.137  43.460  1.00  0.00     0.044 A 
HETATM   19  C14 UNL     1      34.470   4.408  44.601  1.00  0.00     0.028 A 
HETATM   20  C15 UNL     1      33.982   4.921  45.771  1.00  0.00     0.082 A 
HETATM   21  H1  UNL     1      32.732   3.826  49.095  1.00  0.00     0.140 HD
ENDROOT
BRANCH   7  22
HETATM   22  O3  UNL     1      31.592   5.502  51.160  1.00  0.00    -0.360 OA
HETATM   23  H4  UNL     1      30.816   5.390  51.774  1.00  0.00     0.217 HD
ENDBRANCH   7  22
TORSDOF 1
ENDMDL
MODEL 6
REMARK VINA RESULT:      -7.6      3.744      5.709
REMARK  1 active torsions:
REMARK  status: ('A' for Active; 'I' for Inactive)
REMARK    1  A    between atoms: C3_7  and  O3_8 
ROOT
HETATM    1  O1  UNL     1      20.965   0.771  53.965  1.00  0.00    -0.206 OA
HETATM    2  S1  UNL     1      21.838   0.690  52.789  1.00  0.00     0.242 S 
HETATM    3  O2  UNL     1      21.540  -0.531  51.995  1.00  0.00    -0.206 OA
HETATM    4  N1  UNL     1      21.657   2.140  51.831  1.00  0.00    -0.212 NA
HETATM    5  C1  UNL     1      22.528   1.939  50.650  1.00  0.00     0.141 C 
HETATM    6  C2  UNL     1      22.478   3.243  49.938  1.00  0.00    -0.030 C 
HETATM    7  C3  UNL     1      21.657   4.154  50.437  1.00  0.00     0.069 C 
HETATM    8  C4  UNL     1      22.387   4.526  51.731  1.00  0.00     0.034 C 
HETATM    9  C5  UNL     1      23.274   4.014  52.669  1.00  0.00    -0.011 C 
HETATM   10  C6  UNL     1      24.551   3.245  52.554  1.00  0.00     0.065 C 
HETATM   11  C7  UNL     1      25.051   3.214  51.122  1.00  0.00    -0.017 C 
HETATM   12  C8  UNL     1      24.820   3.288  49.764  1.00  0.00    -0.025 C 
HETATM   13  C9  UNL     1      23.554   3.169  48.878  1.00  0.00     0.065 C 
HETATM   14  C10 UNL     1      24.449   1.858  53.055  1.00  0.00    -0.021 A 
HETATM   15  C11 UNL     1      25.729   1.523  53.528  1.00  0.00     0.052 A 
HETATM   16  C12 UNL     1      26.217   0.340  54.102  1.00  0.00     0.117 A 
HETATM   17  F1  UNL     1      27.454   0.082  54.533  1.00  0.00    -0.206 F 
HETATM   18  C13 UNL     1      25.280  -0.674  54.229  1.00  0.00     0.044 A 
HETATM   19  C14 UNL     1      24.004  -0.433  53.792  1.00  0.00     0.028 A 
HETATM   20  C15 UNL     1      23.587   0.746  53.237  1.00  0.00     0.082 A 
HETATM   21  H1  UNL     1      20.678   2.215  51.451  1.00  0.00     0.140 HD
ENDROOT
BRANCH   7  22
HETATM   22  O3  UNL     1      20.503   4.865  50.303  1.00  0.00    -0.360 OA
HETATM   23  H4  UNL     1      19.861   4.803  49.544  1.00  0.00     0.217 HD
ENDBRANCH   7  22
TORSDOF 1
ENDMDL
MODEL 7
REMARK VINA RESULT:      -7.5      3.145      4.464
REMARK  1 active torsions:
REMARK  status: ('A' for Active; 'I' for Inactive)
REMARK    1  A    between atoms: C3_7  and  O3_8 
ROOT
HETATM    1  O1  UNL     1      20.264   2.888  50.350  1.00  0.00    -0.206 OA
HETATM    2  S1  UNL     1      21.584   2.313  50.071  1.00  0.00     0.242 S 
HETATM    3  O2  UNL     1      21.534   1.436  48.872  1.00  0.00    -0.206 OA
HETATM    4  N1  UNL     1      22.749   3.602  49.877  1.00  0.00    -0.212 NA
HETATM    5  C1  UNL     1      24.025   2.928  49.547  1.00  0.00     0.141 C 
HETATM    6  C2  UNL     1      25.024   4.028  49.544  1.00  0.00    -0.030 C 
HETATM    7  C3  UNL     1      24.551   5.252  49.722  1.00  0.00     0.069 C 
HETATM    8  C4  UNL     1      24.146   5.195  51.198  1.00  0.00     0.034 C 
HETATM    9  C5  UNL     1      23.749   4.304  52.187  1.00  0.00    -0.011 C 
HETATM   10  C6  UNL     1      24.247   2.959  52.609  1.00  0.00     0.065 C 
HETATM   11  C7  UNL     1      25.568   2.624  51.943  1.00  0.00    -0.017 C 
HETATM   12  C8  UNL     1      26.470   2.779  50.910  1.00  0.00    -0.025 C 
HETATM   13  C9  UNL     1      26.375   3.352  49.474  1.00  0.00     0.065 C 
HETATM   14  C10 UNL     1      23.287   1.867  52.341  1.00  0.00    -0.021 A 
HETATM   15  C11 UNL     1      23.520   0.897  53.332  1.00  0.00     0.052 A 
HETATM   16  C12 UNL     1      22.911  -0.345  53.563  1.00  0.00     0.117 A 
HETATM   17  F1  UNL     1      23.181  -1.229  54.528  1.00  0.00    -0.206 F 
HETATM   18  C13 UNL     1      21.907  -0.677  52.666  1.00  0.00     0.044 A 
HETATM   19  C14 UNL     1      21.614   0.213  51.667  1.00  0.00     0.028 A 
HETATM   20  C15 UNL     1      22.246   1.413  51.491  1.00  0.00     0.082 A 
HETATM   21  H1  UNL     1      22.513   4.191  49.037  1.00  0.00     0.140 HD
ENDROOT
BRANCH   7  22
HETATM   22  O3  UNL     1      24.283   6.476  49.187  1.00  0.00    -0.360 OA
HETATM   23  H4  UNL     1      24.953   7.110  48.810  1.00  0.00     0.217 HD
ENDBRANCH   7  22
TORSDOF 1
ENDMDL
MODEL 8
REMARK VINA RESULT:      -7.2      8.342      9.452
REMARK  1 active torsions:
REMARK  status: ('A' for Active; 'I' for Inactive)
REMARK    1  A    between atoms: C3_7  and  O3_8 
ROOT
HETATM    1  O1  UNL     1      30.793   9.941  49.619  1.00  0.00    -0.206 OA
HETATM    2  S1  UNL     1      30.814   9.275  48.312  1.00  0.00     0.242 S 
HETATM    3  O2  UNL     1      30.284  10.175  47.255  1.00  0.00    -0.206 OA
HETATM    4  N1  UNL     1      32.443   8.750  47.955  1.00  0.00    -0.212 NA
HETATM    5  C1  UNL     1      32.370   8.147  46.604  1.00  0.00     0.141 C 
HETATM    6  C2  UNL     1      33.724   7.571  46.394  1.00  0.00    -0.030 C 
HETATM    7  C3  UNL     1      34.618   7.808  47.341  1.00  0.00     0.069 C 
HETATM    8  C4  UNL     1      34.075   6.935  48.477  1.00  0.00     0.034 C 
HETATM    9  C5  UNL     1      32.897   6.381  48.960  1.00  0.00    -0.011 C 
HETATM   10  C6  UNL     1      31.762   5.663  48.303  1.00  0.00     0.065 C 
HETATM   11  C7  UNL     1      32.091   5.306  46.866  1.00  0.00    -0.017 C 
HETATM   12  C8  UNL     1      32.797   5.528  45.701  1.00  0.00    -0.025 C 
HETATM   13  C9  UNL     1      33.615   6.721  45.148  1.00  0.00     0.065 C 
HETATM   14  C10 UNL     1      30.493   6.420  48.329  1.00  0.00    -0.021 A 
HETATM   15  C11 UNL     1      29.470   5.458  48.353  1.00  0.00     0.052 A 
HETATM   16  C12 UNL     1      28.074   5.600  48.376  1.00  0.00     0.117 A 
HETATM   17  F1  UNL     1      27.147   4.638  48.396  1.00  0.00    -0.206 F 
HETATM   18  C13 UNL     1      27.623   6.911  48.377  1.00  0.00     0.044 A 
HETATM   19  C14 UNL     1      28.555   7.914  48.355  1.00  0.00     0.028 A 
HETATM   20  C15 UNL     1      29.907   7.713  48.332  1.00  0.00     0.082 A 
HETATM   21  H1  UNL     1      33.087   9.578  47.861  1.00  0.00     0.140 HD
ENDROOT
BRANCH   7  22
HETATM   22  O3  UNL     1      35.752   8.460  47.723  1.00  0.00    -0.360 OA
HETATM   23  H4  UNL     1      36.438   8.118  48.359  1.00  0.00     0.217 HD
ENDBRANCH   7  22
TORSDOF 1
ENDMDL
MODEL 9
REMARK VINA RESULT:      -7.2      4.635      5.492
REMARK  1 active torsions:
REMARK  status: ('A' for Active; 'I' for Inactive)
REMARK    1  A    between atoms: C3_7  and  O3_8 
ROOT
HETATM    1  O1  UNL     1      21.560   7.691  48.152  1.00  0.00    -0.206 OA
HETATM    2  S1  UNL     1      22.784   7.085  47.617  1.00  0.00     0.242 S 
HETATM    3  O2  UNL     1      22.956   7.428  46.181  1.00  0.00    -0.206 OA
HETATM    4  N1  UNL     1      24.153   7.603  48.572  1.00  0.00    -0.212 NA
HETATM    5  C1  UNL     1      25.334   6.989  47.924  1.00  0.00     0.141 C 
HETATM    6  C2  UNL     1      26.458   7.312  48.842  1.00  0.00    -0.030 C 
HETATM    7  C3  UNL     1      26.169   8.092  49.873  1.00  0.00     0.069 C 
HETATM    8  C4  UNL     1      25.325   7.141  50.728  1.00  0.00     0.034 C 
HETATM    9  C5  UNL     1      24.497   6.030  50.630  1.00  0.00    -0.011 C 
HETATM   10  C6  UNL     1      24.604   4.740  49.882  1.00  0.00     0.065 C 
HETATM   11  C7  UNL     1      25.989   4.556  49.291  1.00  0.00    -0.017 C 
HETATM   12  C8  UNL     1      27.177   5.077  48.823  1.00  0.00    -0.025 C 
HETATM   13  C9  UNL     1      27.628   6.485  48.361  1.00  0.00     0.065 C 
HETATM   14  C10 UNL     1      23.602   4.601  48.805  1.00  0.00    -0.021 A 
HETATM   15  C11 UNL     1      23.350   3.223  48.688  1.00  0.00     0.052 A 
HETATM   16  C12 UNL     1      22.497   2.514  47.828  1.00  0.00     0.117 A 
HETATM   17  F1  UNL     1      22.302   1.194  47.765  1.00  0.00    -0.206 F 
HETATM   18  C13 UNL     1      21.778   3.302  46.943  1.00  0.00     0.044 A 
HETATM   19  C14 UNL     1      21.963   4.658  46.988  1.00  0.00     0.028 A 
HETATM   20  C15 UNL     1      22.812   5.294  47.851  1.00  0.00     0.082 A 
HETATM   21  H1  UNL     1      24.292   8.643  48.487  1.00  0.00     0.140 HD
ENDROOT
BRANCH   7  22
HETATM   22  O3  UNL     1      26.291   9.310  50.470  1.00  0.00    -0.360 OA
HETATM   23  H4  UNL     1      25.900   9.574  51.347  1.00  0.00     0.217 HD
ENDBRANCH   7  22
TORSDOF 1
ENDMDL
