MODEL 1
REMARK VINA RESULT:      -7.6      0.000      0.000
REMARK  3 active torsions:
REMARK  status: ('A' for Active; 'I' for Inactive)
REMARK    1  A    between atoms: N1_7  and  C6_8 
REMARK    2  A    between atoms: C8_10  and  O1_11 
REMARK    3  A    between atoms: O1_11  and  C9_12 
ROOT
HETATM    1  C6  UNL     1      23.127   1.439  52.596  1.00  0.00     0.136 A 
HETATM    2  C7  UNL     1      24.416   1.174  52.257  1.00  0.00     0.109 A 
HETATM    3  C8  UNL     1      25.296   2.098  51.732  1.00  0.00     0.174 A 
HETATM    4  N2  UNL     1      24.801   3.358  51.553  1.00  0.00    -0.217 NA
HETATM    5  C15 UNL     1      23.513   3.628  51.891  1.00  0.00     0.238 A 
HETATM    6  N3  UNL     1      22.698   2.697  52.398  1.00  0.00    -0.224 NA
ENDROOT
BRANCH   1   7
HETATM    7  N1  UNL     1      22.224   0.455  53.146  1.00  0.00    -0.320 N 
HETATM    8  C1  UNL     1      20.817   0.567  52.813  1.00  0.00     0.211 A 
HETATM    9 CL1  UNL     1      20.655   0.302  51.050  1.00  0.00    -0.098 Cl
HETATM   10  C2  UNL     1      20.093  -0.535  53.480  1.00  0.00     0.014 A 
HETATM   11  C3  UNL     1      20.514  -1.513  54.261  1.00  0.00     0.001 A 
HETATM   12  C4  UNL     1      21.950  -1.518  54.522  1.00  0.00     0.017 A 
HETATM   13  C5  UNL     1      22.720  -0.582  53.984  1.00  0.00     0.094 A 
ENDBRANCH   1   7
BRANCH   3  14
HETATM   14  O1  UNL     1      26.605   1.783  51.399  1.00  0.00    -0.292 OA
BRANCH  14  15
HETATM   15  C9  UNL     1      27.417   1.284  52.414  1.00  0.00     0.077 A 
HETATM   16  C10 UNL     1      28.103   2.239  53.146  1.00  0.00     0.037 A 
HETATM   17  C11 UNL     1      28.929   1.814  54.170  1.00  0.00     0.003 A 
HETATM   18  C12 UNL     1      29.084   0.479  54.478  1.00  0.00     0.000 A 
HETATM   19  C13 UNL     1      28.397  -0.443  53.744  1.00  0.00     0.003 A 
HETATM   20  C14 UNL     1      27.568  -0.067  52.719  1.00  0.00     0.037 A 
ENDBRANCH  14  15
ENDBRANCH   3  14
TORSDOF 3
ENDMDL
MODEL 2
REMARK VINA RESULT:      -7.5      3.345      5.701
REMARK  3 active torsions:
REMARK  status: ('A' for Active; 'I' for Inactive)
REMARK    1  A    between atoms: N1_7  and  C6_8 
REMARK    2  A    between atoms: C8_10  and  O1_11 
REMARK    3  A    between atoms: O1_11  and  C9_12 
ROOT
HETATM    1  C6  UNL     1      25.733   2.443  52.668  1.00  0.00     0.136 A 
HETATM    2  C7  UNL     1      25.854   2.768  51.355  1.00  0.00     0.109 A 
HETATM    3  C8  UNL     1      24.915   3.478  50.633  1.00  0.00     0.174 A 
HETATM    4  N2  UNL     1      23.800   3.862  51.319  1.00  0.00    -0.217 NA
HETATM    5  C15 UNL     1      23.675   3.539  52.633  1.00  0.00     0.238 A 
HETATM    6  N3  UNL     1      24.614   2.849  53.290  1.00  0.00    -0.224 NA
ENDROOT
BRANCH   1   7
HETATM    7  N1  UNL     1      26.729   1.700  53.405  1.00  0.00    -0.320 N 
HETATM    8  C1  UNL     1      26.279   0.588  54.219  1.00  0.00     0.211 A 
HETATM    9 CL1  UNL     1      25.604  -0.652  53.120  1.00  0.00    -0.098 Cl
HETATM   10  C2  UNL     1      27.459  -0.016  54.873  1.00  0.00     0.014 A 
HETATM   11  C3  UNL     1      28.742   0.290  54.819  1.00  0.00     0.001 A 
HETATM   12  C4  UNL     1      29.069   1.427  53.965  1.00  0.00     0.017 A 
HETATM   13  C5  UNL     1      28.102   2.063  53.318  1.00  0.00     0.094 A 
ENDBRANCH   1   7
BRANCH   3  14
HETATM   14  O1  UNL     1      25.080   3.788  49.290  1.00  0.00    -0.292 OA
BRANCH  14  15
HETATM   15  C9  UNL     1      26.037   4.749  48.973  1.00  0.00     0.077 A 
HETATM   16  C10 UNL     1      25.560   6.045  48.863  1.00  0.00     0.037 A 
HETATM   17  C11 UNL     1      26.457   7.050  48.549  1.00  0.00     0.003 A 
HETATM   18  C12 UNL     1      27.796   6.797  48.345  1.00  0.00     0.000 A 
HETATM   19  C13 UNL     1      28.241   5.513  48.458  1.00  0.00     0.003 A 
HETATM   20  C14 UNL     1      27.388   4.485  48.767  1.00  0.00     0.037 A 
ENDBRANCH  14  15
ENDBRANCH   3  14
TORSDOF 3
ENDMDL
MODEL 3
REMARK VINA RESULT:      -7.5      2.865      6.297
REMARK  3 active torsions:
REMARK  status: ('A' for Active; 'I' for Inactive)
REMARK    1  A    between atoms: N1_7  and  C6_8 
REMARK    2  A    between atoms: C8_10  and  O1_11 
REMARK    3  A    between atoms: O1_11  and  C9_12 
ROOT
HETATM    1  C6  UNL     1      25.146   0.441  53.508  1.00  0.00     0.136 A 
HETATM    2  C7  UNL     1      24.393   1.341  52.823  1.00  0.00     0.109 A 
HETATM    3  C8  UNL     1      23.015   1.316  52.749  1.00  0.00     0.174 A 
HETATM    4  N2  UNL     1      22.399   0.301  53.422  1.00  0.00    -0.217 NA
HETATM    5  C15 UNL     1      23.148  -0.602  54.108  1.00  0.00     0.238 A 
HETATM    6  N3  UNL     1      24.484  -0.535  54.151  1.00  0.00    -0.224 NA
ENDROOT
BRANCH   1   7
HETATM    7  N1  UNL     1      26.589   0.487  53.573  1.00  0.00    -0.320 N 
HETATM    8  C1  UNL     1      27.298  -0.767  53.739  1.00  0.00     0.211 A 
HETATM    9 CL1  UNL     1      27.007  -1.754  52.274  1.00  0.00    -0.098 Cl
HETATM   10  C2  UNL     1      28.748  -0.478  53.778  1.00  0.00     0.014 A 
HETATM   11  C3  UNL     1      29.416   0.658  53.690  1.00  0.00     0.001 A 
HETATM   12  C4  UNL     1      28.589   1.849  53.524  1.00  0.00     0.017 A 
HETATM   13  C5  UNL     1      27.270   1.731  53.473  1.00  0.00     0.094 A 
ENDBRANCH   1   7
BRANCH   3  14
HETATM   14  O1  UNL     1      22.285   2.257  52.037  1.00  0.00    -0.292 OA
BRANCH  14  15
HETATM   15  C9  UNL     1      22.229   2.105  50.654  1.00  0.00     0.077 A 
HETATM   16  C10 UNL     1      22.981   3.013  49.928  1.00  0.00     0.037 A 
HETATM   17  C11 UNL     1      22.970   2.920  48.548  1.00  0.00     0.003 A 
HETATM   18  C12 UNL     1      22.239   1.957  47.885  1.00  0.00     0.000 A 
HETATM   19  C13 UNL     1      21.507   1.074  48.623  1.00  0.00     0.003 A 
HETATM   20  C14 UNL     1      21.487   1.129  49.993  1.00  0.00     0.037 A 
ENDBRANCH  14  15
ENDBRANCH   3  14
TORSDOF 3
ENDMDL
MODEL 4
REMARK VINA RESULT:      -7.5      2.430      4.853
REMARK  3 active torsions:
REMARK  status: ('A' for Active; 'I' for Inactive)
REMARK    1  A    between atoms: N1_7  and  C6_8 
REMARK    2  A    between atoms: C8_10  and  O1_11 
REMARK    3  A    between atoms: O1_11  and  C9_12 
ROOT
HETATM    1  C6  UNL     1      24.637   2.091  51.637  1.00  0.00     0.136 A 
HETATM    2  C7  UNL     1      25.409   1.615  52.647  1.00  0.00     0.109 A 
HETATM    3  C8  UNL     1      25.032   0.614  53.520  1.00  0.00     0.174 A 
HETATM    4  N2  UNL     1      23.787   0.089  53.323  1.00  0.00    -0.217 NA
HETATM    5  C15 UNL     1      23.010   0.562  52.314  1.00  0.00     0.238 A 
HETATM    6  N3  UNL     1      23.421   1.535  51.493  1.00  0.00    -0.224 NA
ENDROOT
BRANCH   1   7
HETATM    7  N1  UNL     1      25.053   3.140  50.734  1.00  0.00    -0.320 N 
HETATM    8  C1  UNL     1      24.102   4.193  50.437  1.00  0.00     0.211 A 
HETATM    9 CL1  UNL     1      23.791   5.088  51.955  1.00  0.00    -0.098 Cl
HETATM   10  C2  UNL     1      24.740   5.144  49.503  1.00  0.00     0.014 A 
HETATM   11  C3  UNL     1      25.943   5.161  48.957  1.00  0.00     0.001 A 
HETATM   12  C4  UNL     1      26.807   4.048  49.335  1.00  0.00     0.017 A 
HETATM   13  C5  UNL     1      26.358   3.120  50.169  1.00  0.00     0.094 A 
ENDBRANCH   1   7
BRANCH   3  14
HETATM   14  O1  UNL     1      25.855   0.158  54.540  1.00  0.00    -0.292 OA
BRANCH  14  15
HETATM   15  C9  UNL     1      27.175  -0.133  54.209  1.00  0.00     0.077 A 
HETATM   16  C10 UNL     1      27.356  -1.276  53.447  1.00  0.00     0.037 A 
HETATM   17  C11 UNL     1      28.644  -1.625  53.083  1.00  0.00     0.003 A 
HETATM   18  C12 UNL     1      29.738  -0.874  53.453  1.00  0.00     0.000 A 
HETATM   19  C13 UNL     1      29.534   0.247  54.203  1.00  0.00     0.003 A 
HETATM   20  C14 UNL     1      28.276   0.632  54.588  1.00  0.00     0.037 A 
ENDBRANCH  14  15
ENDBRANCH   3  14
TORSDOF 3
ENDMDL
MODEL 5
REMARK VINA RESULT:      -7.3      3.362      5.902
REMARK  3 active torsions:
REMARK  status: ('A' for Active; 'I' for Inactive)
REMARK    1  A    between atoms: N1_7  and  C6_8 
REMARK    2  A    between atoms: C8_10  and  O1_11 
REMARK    3  A    between atoms: O1_11  and  C9_12 
ROOT
HETATM    1  C6  UNL     1      24.943   3.587  50.038  1.00  0.00     0.136 A 
HETATM    2  C7  UNL     1      25.200   3.027  51.249  1.00  0.00     0.109 A 
HETATM    3  C8  UNL     1      24.402   2.083  51.862  1.00  0.00     0.174 A 
HETATM    4  N2  UNL     1      23.283   1.709  51.174  1.00  0.00    -0.217 NA
HETATM    5  C15 UNL     1      23.022   2.266  49.963  1.00  0.00     0.238 A 
HETATM    6  N3  UNL     1      23.827   3.180  49.409  1.00  0.00    -0.224 NA
ENDROOT
BRANCH   1   7
HETATM    7  N1  UNL     1      25.793   4.574  49.414  1.00  0.00    -0.320 N 
HETATM    8  C1  UNL     1      25.226   5.881  49.143  1.00  0.00     0.211 A 
HETATM    9 CL1  UNL     1      24.839   6.642  50.717  1.00  0.00    -0.098 Cl
HETATM   10  C2  UNL     1      26.269   6.717  48.510  1.00  0.00     0.014 A 
HETATM   11  C3  UNL     1      27.523   6.457  48.190  1.00  0.00     0.001 A 
HETATM   12  C4  UNL     1      27.976   5.108  48.513  1.00  0.00     0.017 A 
HETATM   13  C5  UNL     1      27.139   4.253  49.086  1.00  0.00     0.094 A 
ENDBRANCH   1   7
BRANCH   3  14
HETATM   14  O1  UNL     1      24.703   1.537  53.102  1.00  0.00    -0.292 OA
BRANCH  14  15
HETATM   15  C9  UNL     1      25.905   0.842  53.215  1.00  0.00     0.077 A 
HETATM   16  C10 UNL     1      25.917  -0.416  52.635  1.00  0.00     0.037 A 
HETATM   17  C11 UNL     1      27.079  -1.162  52.711  1.00  0.00     0.003 A 
HETATM   18  C12 UNL     1      28.211  -0.692  53.341  1.00  0.00     0.000 A 
HETATM   19  C13 UNL     1      28.174   0.550  53.905  1.00  0.00     0.003 A 
HETATM   20  C14 UNL     1      27.044   1.325  53.854  1.00  0.00     0.037 A 
ENDBRANCH  14  15
ENDBRANCH   3  14
TORSDOF 3
ENDMDL
MODEL 6
REMARK VINA RESULT:      -7.3      2.729      6.103
REMARK  3 active torsions:
REMARK  status: ('A' for Active; 'I' for Inactive)
REMARK    1  A    between atoms: N1_7  and  C6_8 
REMARK    2  A    between atoms: C8_10  and  O1_11 
REMARK    3  A    between atoms: O1_11  and  C9_12 
ROOT
HETATM    1  C6  UNL     1      26.418   2.466  51.847  1.00  0.00     0.136 A 
HETATM    2  C7  UNL     1      25.089   2.734  51.944  1.00  0.00     0.109 A 
HETATM    3  C8  UNL     1      24.349   3.396  50.986  1.00  0.00     0.174 A 
HETATM    4  N2  UNL     1      25.034   3.796  49.875  1.00  0.00    -0.217 NA
HETATM    5  C15 UNL     1      26.363   3.531  49.772  1.00  0.00     0.238 A 
HETATM    6  N3  UNL     1      27.037   2.885  50.730  1.00  0.00    -0.224 NA
ENDROOT
BRANCH   1   7
HETATM    7  N1  UNL     1      27.173   1.770  52.863  1.00  0.00    -0.320 N 
HETATM    8  C1  UNL     1      26.632   0.526  53.374  1.00  0.00     0.211 A 
HETATM    9 CL1  UNL     1      26.617  -0.653  52.026  1.00  0.00    -0.098 Cl
HETATM   10  C2  UNL     1      27.564  -0.002  54.393  1.00  0.00     0.014 A 
HETATM   11  C3  UNL     1      28.711   0.463  54.854  1.00  0.00     0.001 A 
HETATM   12  C4  UNL     1      29.148   1.723  54.261  1.00  0.00     0.017 A 
HETATM   13  C5  UNL     1      28.404   2.307  53.332  1.00  0.00     0.094 A 
ENDBRANCH   1   7
BRANCH   3  14
HETATM   14  O1  UNL     1      22.992   3.648  51.128  1.00  0.00    -0.292 OA
BRANCH  14  15
HETATM   15  C9  UNL     1      22.152   2.547  51.267  1.00  0.00     0.077 A 
HETATM   16  C10 UNL     1      22.091   1.707  50.166  1.00  0.00     0.037 A 
HETATM   17  C11 UNL     1      21.275   0.593  50.235  1.00  0.00     0.003 A 
HETATM   18  C12 UNL     1      20.530   0.300  51.357  1.00  0.00     0.000 A 
HETATM   19  C13 UNL     1      20.607   1.142  52.428  1.00  0.00     0.003 A 
HETATM   20  C14 UNL     1      21.403   2.259  52.404  1.00  0.00     0.037 A 
ENDBRANCH  14  15
ENDBRANCH   3  14
TORSDOF 3
ENDMDL
MODEL 7
REMARK VINA RESULT:      -7.2      1.839      2.491
REMARK  3 active torsions:
REMARK  status: ('A' for Active; 'I' for Inactive)
REMARK    1  A    between atoms: N1_7  and  C6_8 
REMARK    2  A    between atoms: C8_10  and  O1_11 
REMARK    3  A    between atoms: O1_11  and  C9_12 
ROOT
HETATM    1  C6  UNL     1      22.411   0.763  52.211  1.00  0.00     0.136 A 
HETATM    2  C7  UNL     1      23.353   0.491  53.151  1.00  0.00     0.109 A 
HETATM    3  C8  UNL     1      24.660   0.934  53.105  1.00  0.00     0.174 A 
HETATM    4  N2  UNL     1      24.993   1.697  52.023  1.00  0.00    -0.217 NA
HETATM    5  C15 UNL     1      24.054   1.972  51.080  1.00  0.00     0.238 A 
HETATM    6  N3  UNL     1      22.799   1.519  51.169  1.00  0.00    -0.224 NA
ENDROOT
BRANCH   1   7
HETATM    7  N1  UNL     1      21.048   0.289  52.280  1.00  0.00    -0.320 N 
HETATM    8  C1  UNL     1      20.663  -0.494  53.438  1.00  0.00     0.211 A 
HETATM    9 CL1  UNL     1      20.778   0.569  54.874  1.00  0.00    -0.098 Cl
HETATM   10  C2  UNL     1      19.239  -0.865  53.294  1.00  0.00     0.014 A 
HETATM   11  C3  UNL     1      18.359  -0.605  52.345  1.00  0.00     0.001 A 
HETATM   12  C4  UNL     1      18.868   0.192  51.233  1.00  0.00     0.017 A 
HETATM   13  C5  UNL     1      20.132   0.593  51.236  1.00  0.00     0.094 A 
ENDBRANCH   1   7
BRANCH   3  14
HETATM   14  O1  UNL     1      25.590   0.632  54.089  1.00  0.00    -0.292 OA
BRANCH  14  15
HETATM   15  C9  UNL     1      26.640  -0.210  53.734  1.00  0.00     0.077 A 
HETATM   16  C10 UNL     1      27.883   0.154  54.228  1.00  0.00     0.037 A 
HETATM   17  C11 UNL     1      28.972  -0.638  53.913  1.00  0.00     0.003 A 
HETATM   18  C12 UNL     1      28.855  -1.765  53.129  1.00  0.00     0.000 A 
HETATM   19  C13 UNL     1      27.621  -2.103  52.655  1.00  0.00     0.003 A 
HETATM   20  C14 UNL     1      26.513  -1.347  52.941  1.00  0.00     0.037 A 
ENDBRANCH  14  15
ENDBRANCH   3  14
TORSDOF 3
ENDMDL
MODEL 8
REMARK VINA RESULT:      -7.1      2.712      6.081
REMARK  3 active torsions:
REMARK  status: ('A' for Active; 'I' for Inactive)
REMARK    1  A    between atoms: N1_7  and  C6_8 
REMARK    2  A    between atoms: C8_10  and  O1_11 
REMARK    3  A    between atoms: O1_11  and  C9_12 
ROOT
HETATM    1  C6  UNL     1      26.740   0.733  52.199  1.00  0.00     0.136 A 
HETATM    2  C7  UNL     1      25.409   0.482  52.094  1.00  0.00     0.109 A 
HETATM    3  C8  UNL     1      24.468   1.400  51.673  1.00  0.00     0.174 A 
HETATM    4  N2  UNL     1      24.945   2.637  51.347  1.00  0.00    -0.217 NA
HETATM    5  C15 UNL     1      26.275   2.892  51.449  1.00  0.00     0.238 A 
HETATM    6  N3  UNL     1      27.150   1.968  51.863  1.00  0.00    -0.224 NA
ENDROOT
BRANCH   1   7
HETATM    7  N1  UNL     1      27.708  -0.244  52.641  1.00  0.00    -0.320 N 
HETATM    8  C1  UNL     1      28.967   0.244  53.171  1.00  0.00     0.211 A 
HETATM    9 CL1  UNL     1      28.609   1.146  54.676  1.00  0.00    -0.098 Cl
HETATM   10  C2  UNL     1      29.790  -0.922  53.557  1.00  0.00     0.014 A 
HETATM   11  C3  UNL     1      29.555  -2.219  53.490  1.00  0.00     0.001 A 
HETATM   12  C4  UNL     1      28.254  -2.583  52.939  1.00  0.00     0.017 A 
HETATM   13  C5  UNL     1      27.415  -1.632  52.552  1.00  0.00     0.094 A 
ENDBRANCH   1   7
BRANCH   3  14
HETATM   14  O1  UNL     1      23.116   1.100  51.582  1.00  0.00    -0.292 OA
BRANCH  14  15
HETATM   15  C9  UNL     1      22.535   0.451  52.668  1.00  0.00     0.077 A 
HETATM   16  C10 UNL     1      21.426   1.081  53.209  1.00  0.00     0.037 A 
HETATM   17  C11 UNL     1      20.798   0.492  54.291  1.00  0.00     0.003 A 
HETATM   18  C12 UNL     1      21.243  -0.692  54.839  1.00  0.00     0.000 A 
HETATM   19  C13 UNL     1      22.336  -1.294  54.288  1.00  0.00     0.003 A 
HETATM   20  C14 UNL     1      22.990  -0.746  53.215  1.00  0.00     0.037 A 
ENDBRANCH  14  15
ENDBRANCH   3  14
TORSDOF 3
ENDMDL
MODEL 9
REMARK VINA RESULT:      -7.1      2.179      4.471
REMARK  3 active torsions:
REMARK  status: ('A' for Active; 'I' for Inactive)
REMARK    1  A    between atoms: N1_7  and  C6_8 
REMARK    2  A    between atoms: C8_10  and  O1_11 
REMARK    3  A    between atoms: O1_11  and  C9_12 
ROOT
HETATM    1  C6  UNL     1      22.773   2.000  52.171  1.00  0.00     0.136 A 
HETATM    2  C7  UNL     1      23.567   1.360  53.069  1.00  0.00     0.109 A 
HETATM    3  C8  UNL     1      23.421   0.040  53.445  1.00  0.00     0.174 A 
HETATM    4  N2  UNL     1      22.396  -0.640  52.853  1.00  0.00    -0.217 NA
HETATM    5  C15 UNL     1      21.600  -0.005  51.954  1.00  0.00     0.238 A 
HETATM    6  N3  UNL     1      21.781   1.278  51.621  1.00  0.00    -0.224 NA
ENDROOT
BRANCH   1   7
HETATM    7  N1  UNL     1      22.944   3.383  51.791  1.00  0.00    -0.320 N 
HETATM    8  C1  UNL     1      24.204   3.767  51.185  1.00  0.00     0.211 A 
HETATM    9 CL1  UNL     1      24.334   2.915  49.616  1.00  0.00    -0.098 Cl
HETATM   10  C2  UNL     1      24.151   5.213  50.883  1.00  0.00     0.014 A 
HETATM   11  C3  UNL     1      23.203   6.113  51.072  1.00  0.00     0.001 A 
HETATM   12  C4  UNL     1      21.983   5.603  51.689  1.00  0.00     0.017 A 
HETATM   13  C5  UNL     1      21.897   4.320  52.013  1.00  0.00     0.094 A 
ENDBRANCH   1   7
BRANCH   3  14
HETATM   14  O1  UNL     1      24.257  -0.573  54.368  1.00  0.00    -0.292 OA
BRANCH  14  15
HETATM   15  C9  UNL     1      25.628  -0.456  54.160  1.00  0.00     0.077 A 
HETATM   16  C10 UNL     1      26.109  -1.084  53.023  1.00  0.00     0.037 A 
HETATM   17  C11 UNL     1      27.464  -1.009  52.754  1.00  0.00     0.003 A 
HETATM   18  C12 UNL     1      28.337  -0.334  53.580  1.00  0.00     0.000 A 
HETATM   19  C13 UNL     1      27.839   0.277  54.693  1.00  0.00     0.003 A 
HETATM   20  C14 UNL     1      26.503   0.228  55.000  1.00  0.00     0.037 A 
ENDBRANCH  14  15
ENDBRANCH   3  14
TORSDOF 3
ENDMDL
