MODEL 1
REMARK VINA RESULT:      -8.2      0.000      0.000
REMARK  3 active torsions:
REMARK  status: ('A' for Active; 'I' for Inactive)
REMARK    1  A    between atoms: C13_15  and  C14_16 
REMARK    2  A    between atoms: N2_17  and  C15_18 
REMARK    3  A    between atoms: C20_27  and  O3_28 
ROOT
HETATM    1  C1  UNL     1      21.731  -0.093  54.500  1.00  0.00     0.047 C 
HETATM    2  C2  UNL     1      22.085   0.032  53.202  1.00  0.00     0.123 C 
HETATM    3  O1  UNL     1      23.073  -0.889  53.587  1.00  0.00    -0.374 OA
HETATM    4  C3  UNL     1      24.340  -0.571  54.128  1.00  0.00     0.171 C 
HETATM    5  C4  UNL     1      25.457  -0.814  53.141  1.00  0.00     0.066 C 
HETATM    6  C5  UNL     1      26.697  -0.070  53.248  1.00  0.00     0.253 C 
HETATM    7  N1  UNL     1      26.896   0.317  54.629  1.00  0.00     0.092 N 
HETATM    8  C6  UNL     1      28.268   0.524  54.959  1.00  0.00     0.271 C 
HETATM    9  C7  UNL     1      29.031   1.132  53.845  1.00  0.00     0.034 C 
HETATM   10  C8  UNL     1      28.207   1.890  52.825  1.00  0.00     0.039 C 
HETATM   11  C9  UNL     1      26.968   1.132  52.467  1.00  0.00    -0.030 C 
HETATM   12  C10 UNL     1      26.472   1.846  51.490  1.00  0.00    -0.012 C 
HETATM   13  C11 UNL     1      26.587   2.972  50.647  1.00  0.00     0.051 C 
HETATM   14  C12 UNL     1      25.729   4.109  50.472  1.00  0.00     0.017 C 
HETATM   15  C13 UNL     1      24.362   4.234  49.943  1.00  0.00     0.055 C 
HETATM   16  C16 UNL     1      23.175   3.736  50.639  1.00  0.00     0.280 C 
HETATM   17  N3  UNL     1      22.859   2.341  50.750  1.00  0.00     0.096 N 
HETATM   18  C17 UNL     1      21.882   2.187  51.799  1.00  0.00     0.292 C 
HETATM   19  C18 UNL     1      22.619   2.805  52.975  1.00  0.00     0.128 C 
HETATM   20  N4  UNL     1      23.853   2.439  52.954  1.00  0.00    -0.262 NA
HETATM   21  C19 UNL     1      24.308   1.552  51.885  1.00  0.00     0.333 C 
HETATM   22  N5  UNL     1      25.288   1.153  51.154  1.00  0.00    -0.271 NA
HETATM   23  C20 UNL     1      21.385   0.899  52.246  1.00  0.00     0.196 C 
HETATM   24  H8  UNL     1      26.381  -0.276  55.311  1.00  0.00     0.316 HD
HETATM   25  H24 UNL     1      22.557   1.916  49.850  1.00  0.00     0.316 HD
ENDROOT
BRANCH  15  26
HETATM   26  C14 UNL     1      24.041   5.763  49.895  1.00  0.00     0.099 C 
HETATM   27  N2  UNL     1      23.476   6.487  48.988  1.00  0.00    -0.238 NA
BRANCH  27  28
HETATM   28  C15 UNL     1      23.044   5.824  47.782  1.00  0.00     0.375 C 
HETATM   29  O2  UNL     1      22.497   5.102  46.886  1.00  0.00    -0.281 OA
ENDBRANCH  27  28
ENDBRANCH  15  26
BRANCH  23  30
HETATM   30  O3  UNL     1      20.746   0.144  51.233  1.00  0.00    -0.385 OA
HETATM   31  C21 UNL     1      19.373   0.151  51.378  1.00  0.00     0.202 C 
ENDBRANCH  23  30
TORSDOF 3
ENDMDL
MODEL 2
REMARK VINA RESULT:      -7.9      2.215      6.871
REMARK  3 active torsions:
REMARK  status: ('A' for Active; 'I' for Inactive)
REMARK    1  A    between atoms: C13_15  and  C14_16 
REMARK    2  A    between atoms: N2_17  and  C15_18 
REMARK    3  A    between atoms: C20_27  and  O3_28 
ROOT
HETATM    1  C1  UNL     1      21.794   5.954  49.838  1.00  0.00     0.047 C 
HETATM    2  C2  UNL     1      22.586   4.871  49.669  1.00  0.00     0.123 C 
HETATM    3  O1  UNL     1      21.418   4.355  49.084  1.00  0.00    -0.374 OA
HETATM    4  C3  UNL     1      20.374   3.683  49.763  1.00  0.00     0.171 C 
HETATM    5  C4  UNL     1      20.365   2.203  49.470  1.00  0.00     0.066 C 
HETATM    6  C5  UNL     1      19.797   1.275  50.429  1.00  0.00     0.253 C 
HETATM    7  N1  UNL     1      18.786   1.960  51.205  1.00  0.00     0.092 N 
HETATM    8  C6  UNL     1      17.800   1.080  51.742  1.00  0.00     0.271 C 
HETATM    9  C7  UNL     1      18.371  -0.223  52.154  1.00  0.00     0.034 C 
HETATM   10  C8  UNL     1      19.858  -0.223  52.443  1.00  0.00     0.039 C 
HETATM   11  C9  UNL     1      20.606   0.549  51.402  1.00  0.00    -0.030 C 
HETATM   12  C10 UNL     1      21.853   0.318  51.721  1.00  0.00    -0.012 C 
HETATM   13  C11 UNL     1      22.775  -0.321  52.577  1.00  0.00     0.051 C 
HETATM   14  C12 UNL     1      23.782   0.218  53.447  1.00  0.00     0.017 C 
HETATM   15  C13 UNL     1      25.020   0.964  53.172  1.00  0.00     0.055 C 
HETATM   16  C16 UNL     1      25.043   2.339  52.673  1.00  0.00     0.280 C 
HETATM   17  N3  UNL     1      24.693   2.691  51.327  1.00  0.00     0.096 N 
HETATM   18  C17 UNL     1      24.444   4.111  51.287  1.00  0.00     0.292 C 
HETATM   19  C18 UNL     1      23.343   4.242  52.325  1.00  0.00     0.128 C 
HETATM   20  N4  UNL     1      22.511   3.267  52.200  1.00  0.00    -0.262 NA
HETATM   21  C19 UNL     1      22.742   2.271  51.154  1.00  0.00     0.333 C 
HETATM   22  N5  UNL     1      22.574   1.060  50.759  1.00  0.00    -0.271 NA
HETATM   23  C20 UNL     1      23.987   4.809  50.100  1.00  0.00     0.196 C 
HETATM   24  H8  UNL     1      18.393   2.801  50.736  1.00  0.00     0.316 HD
HETATM   25  H24 UNL     1      25.397   2.384  50.625  1.00  0.00     0.316 HD
ENDROOT
BRANCH  15  26
HETATM   26  C14 UNL     1      25.744   1.149  54.545  1.00  0.00     0.099 C 
HETATM   27  N2  UNL     1      26.846   0.656  55.000  1.00  0.00    -0.238 NA
BRANCH  27  28
HETATM   28  C15 UNL     1      27.585  -0.230  54.134  1.00  0.00     0.375 C 
HETATM   29  O2  UNL     1      28.176  -1.200  53.556  1.00  0.00    -0.281 OA
ENDBRANCH  27  28
ENDBRANCH  15  26
BRANCH  23  30
HETATM   30  O3  UNL     1      24.866   4.706  48.995  1.00  0.00    -0.385 OA
HETATM   31  C21 UNL     1      26.067   5.344  49.234  1.00  0.00     0.202 C 
ENDBRANCH  23  30
TORSDOF 3
ENDMDL
MODEL 3
REMARK VINA RESULT:      -7.8      2.825      6.178
REMARK  3 active torsions:
REMARK  status: ('A' for Active; 'I' for Inactive)
REMARK    1  A    between atoms: C13_15  and  C14_16 
REMARK    2  A    between atoms: N2_17  and  C15_18 
REMARK    3  A    between atoms: C20_27  and  O3_28 
ROOT
HETATM    1  C1  UNL     1      23.156   3.350  48.335  1.00  0.00     0.047 C 
HETATM    2  C2  UNL     1      22.238   3.558  49.306  1.00  0.00     0.123 C 
HETATM    3  O1  UNL     1      23.393   3.700  50.093  1.00  0.00    -0.374 OA
HETATM    4  C3  UNL     1      24.086   2.656  50.750  1.00  0.00     0.171 C 
HETATM    5  C4  UNL     1      23.883   2.693  52.246  1.00  0.00     0.066 C 
HETATM    6  C5  UNL     1      24.004   1.477  53.026  1.00  0.00     0.253 C 
HETATM    7  N1  UNL     1      24.903   0.569  52.346  1.00  0.00     0.092 N 
HETATM    8  C6  UNL     1      25.535  -0.358  53.227  1.00  0.00     0.271 C 
HETATM    9  C7  UNL     1      24.640  -0.796  54.321  1.00  0.00     0.034 C 
HETATM   10  C8  UNL     1      23.156  -0.652  54.051  1.00  0.00     0.039 C 
HETATM   11  C9  UNL     1      22.854   0.667  53.412  1.00  0.00    -0.030 C 
HETATM   12  C10 UNL     1      21.546   0.678  53.393  1.00  0.00    -0.012 C 
HETATM   13  C11 UNL     1      20.335   0.024  53.703  1.00  0.00     0.051 C 
HETATM   14  C12 UNL     1      19.267  -0.430  52.859  1.00  0.00     0.017 C 
HETATM   15  C13 UNL     1      18.303   0.298  52.018  1.00  0.00     0.055 C 
HETATM   16  C16 UNL     1      18.670   0.998  50.787  1.00  0.00     0.280 C 
HETATM   17  N3  UNL     1      19.405   2.230  50.774  1.00  0.00     0.096 N 
HETATM   18  C17 UNL     1      19.925   2.426  49.444  1.00  0.00     0.292 C 
HETATM   19  C18 UNL     1      20.737   1.156  49.258  1.00  0.00     0.128 C 
HETATM   20  N4  UNL     1      21.371   0.884  50.346  1.00  0.00    -0.262 NA
HETATM   21  C19 UNL     1      21.219   1.778  51.493  1.00  0.00     0.333 C 
HETATM   22  N5  UNL     1      21.245   1.910  52.772  1.00  0.00    -0.271 NA
HETATM   23  C20 UNL     1      20.789   3.534  49.078  1.00  0.00     0.196 C 
HETATM   24  H8  UNL     1      25.554   1.038  51.684  1.00  0.00     0.316 HD
HETATM   25  H24 UNL     1      18.853   3.042  51.117  1.00  0.00     0.316 HD
ENDROOT
BRANCH  15  26
HETATM   26  C14 UNL     1      17.310  -0.768  51.452  1.00  0.00     0.099 C 
HETATM   27  N2  UNL     1      16.065  -0.991  51.706  1.00  0.00    -0.238 NA
BRANCH  27  28
HETATM   28  C15 UNL     1      15.421  -0.139  52.676  1.00  0.00     0.375 C 
HETATM   29  O2  UNL     1      14.638   0.453  53.488  1.00  0.00    -0.281 OA
ENDBRANCH  27  28
ENDBRANCH  15  26
BRANCH  23  30
HETATM   30  O3  UNL     1      20.209   4.809  49.282  1.00  0.00    -0.385 OA
HETATM   31  C21 UNL     1      20.681   5.409  50.431  1.00  0.00     0.202 C 
ENDBRANCH  23  30
TORSDOF 3
ENDMDL
MODEL 4
REMARK VINA RESULT:      -7.5      2.115      5.826
REMARK  3 active torsions:
REMARK  status: ('A' for Active; 'I' for Inactive)
REMARK    1  A    between atoms: C13_15  and  C14_16 
REMARK    2  A    between atoms: N2_17  and  C15_18 
REMARK    3  A    between atoms: C20_27  and  O3_28 
ROOT
HETATM    1  C1  UNL     1      21.059   4.857  50.994  1.00  0.00     0.047 C 
HETATM    2  C2  UNL     1      22.044   4.058  50.528  1.00  0.00     0.123 C 
HETATM    3  O1  UNL     1      20.995   3.125  50.481  1.00  0.00    -0.374 OA
HETATM    4  C3  UNL     1      20.588   2.276  51.537  1.00  0.00     0.171 C 
HETATM    5  C4  UNL     1      20.975   0.838  51.291  1.00  0.00     0.066 C 
HETATM    6  C5  UNL     1      21.173  -0.064  52.410  1.00  0.00     0.253 C 
HETATM    7  N1  UNL     1      20.368   0.386  53.525  1.00  0.00     0.092 N 
HETATM    8  C6  UNL     1      20.029  -0.663  54.430  1.00  0.00     0.271 C 
HETATM    9  C7  UNL     1      21.123  -1.649  54.586  1.00  0.00     0.034 C 
HETATM   10  C8  UNL     1      22.509  -1.148  54.238  1.00  0.00     0.039 C 
HETATM   11  C9  UNL     1      22.488  -0.349  52.972  1.00  0.00    -0.030 C 
HETATM   12  C10 UNL     1      23.760  -0.135  52.753  1.00  0.00    -0.012 C 
HETATM   13  C11 UNL     1      25.097  -0.322  53.162  1.00  0.00     0.051 C 
HETATM   14  C12 UNL     1      26.109   0.625  53.535  1.00  0.00     0.017 C 
HETATM   15  C13 UNL     1      26.811   1.665  52.766  1.00  0.00     0.055 C 
HETATM   16  C16 UNL     1      26.169   2.889  52.285  1.00  0.00     0.280 C 
HETATM   17  N3  UNL     1      25.233   2.908  51.198  1.00  0.00     0.096 N 
HETATM   18  C17 UNL     1      24.518   4.159  51.248  1.00  0.00     0.292 C 
HETATM   19  C18 UNL     1      23.925   4.101  52.645  1.00  0.00     0.128 C 
HETATM   20  N4  UNL     1      23.497   2.910  52.884  1.00  0.00    -0.262 NA
HETATM   21  C19 UNL     1      23.637   1.888  51.848  1.00  0.00     0.333 C 
HETATM   22  N5  UNL     1      23.756   0.638  51.571  1.00  0.00    -0.271 NA
HETATM   23  C20 UNL     1      23.433   4.496  50.345  1.00  0.00     0.196 C 
HETATM   24  H8  UNL     1      19.563   0.985  53.248  1.00  0.00     0.316 HD
HETATM   25  H24 UNL     1      25.674   2.730  50.273  1.00  0.00     0.316 HD
ENDROOT
BRANCH  15  26
HETATM   26  C14 UNL     1      27.894   2.269  53.717  1.00  0.00     0.099 C 
HETATM   27  N2  UNL     1      29.022   1.798  54.132  1.00  0.00    -0.238 NA
BRANCH  27  28
HETATM   28  C15 UNL     1      29.404   0.486  53.670  1.00  0.00     0.375 C 
HETATM   29  O2  UNL     1      29.840  -0.701  53.513  1.00  0.00    -0.281 OA
ENDBRANCH  27  28
ENDBRANCH  15  26
BRANCH  23  30
HETATM   30  O3  UNL     1      23.800   4.502  48.978  1.00  0.00    -0.385 OA
HETATM   31  C21 UNL     1      23.170   3.497  48.273  1.00  0.00     0.202 C 
ENDBRANCH  23  30
TORSDOF 3
ENDMDL
MODEL 5
REMARK VINA RESULT:      -7.4      7.536     10.782
REMARK  3 active torsions:
REMARK  status: ('A' for Active; 'I' for Inactive)
REMARK    1  A    between atoms: C13_15  and  C14_16 
REMARK    2  A    between atoms: N2_17  and  C15_18 
REMARK    3  A    between atoms: C20_27  and  O3_28 
ROOT
HETATM    1  C1  UNL     1      32.735  10.976  46.191  1.00  0.00     0.047 C 
HETATM    2  C2  UNL     1      32.154  10.514  47.321  1.00  0.00     0.123 C 
HETATM    3  O1  UNL     1      33.325   9.739  47.370  1.00  0.00    -0.374 OA
HETATM    4  C3  UNL     1      33.514   8.477  46.761  1.00  0.00     0.171 C 
HETATM    5  C4  UNL     1      33.538   7.356  47.773  1.00  0.00     0.066 C 
HETATM    6  C5  UNL     1      33.163   6.012  47.378  1.00  0.00     0.253 C 
HETATM    7  N1  UNL     1      33.430   5.844  45.965  1.00  0.00     0.092 N 
HETATM    8  C6  UNL     1      33.649   4.484  45.595  1.00  0.00     0.271 C 
HETATM    9  C7  UNL     1      32.796   3.546  46.360  1.00  0.00     0.034 C 
HETATM   10  C8  UNL     1      31.538   4.145  46.957  1.00  0.00     0.039 C 
HETATM   11  C9  UNL     1      31.823   5.472  47.586  1.00  0.00    -0.030 C 
HETATM   12  C10 UNL     1      30.687   5.759  48.165  1.00  0.00    -0.012 C 
HETATM   13  C11 UNL     1      29.359   5.382  48.459  1.00  0.00     0.051 C 
HETATM   14  C12 UNL     1      28.108   6.005  48.129  1.00  0.00     0.017 C 
HETATM   15  C13 UNL     1      27.512   7.286  48.539  1.00  0.00     0.055 C 
HETATM   16  C16 UNL     1      28.012   8.589  48.103  1.00  0.00     0.280 C 
HETATM   17  N3  UNL     1      29.236   9.161  48.585  1.00  0.00     0.096 N 
HETATM   18  C17 UNL     1      29.618  10.221  47.686  1.00  0.00     0.292 C 
HETATM   19  C18 UNL     1      29.699   9.470  46.368  1.00  0.00     0.128 C 
HETATM   20  N4  UNL     1      30.256   8.324  46.556  1.00  0.00    -0.262 NA
HETATM   21  C19 UNL     1      30.691   7.963  47.904  1.00  0.00     0.333 C 
HETATM   22  N5  UNL     1      30.933   7.022  48.747  1.00  0.00    -0.271 NA
HETATM   23  C20 UNL     1      30.852  10.974  47.816  1.00  0.00     0.196 C 
HETATM   24  H8  UNL     1      34.139   6.506  45.589  1.00  0.00     0.316 HD
HETATM   25  H24 UNL     1      29.183   9.470  49.576  1.00  0.00     0.316 HD
ENDROOT
BRANCH  15  26
HETATM   26  C14 UNL     1      26.070   7.319  47.937  1.00  0.00     0.099 C 
HETATM   27  N2  UNL     1      24.912   7.193  48.491  1.00  0.00    -0.238 NA
BRANCH  27  28
HETATM   28  C15 UNL     1      24.878   6.980  49.917  1.00  0.00     0.375 C 
HETATM   29  O2  UNL     1      24.593   6.886  51.156  1.00  0.00    -0.281 OA
ENDBRANCH  27  28
ENDBRANCH  15  26
BRANCH  23  30
HETATM   30  O3  UNL     1      30.978  11.667  49.044  1.00  0.00    -0.385 OA
HETATM   31  C21 UNL     1      30.081  12.711  49.139  1.00  0.00     0.202 C 
ENDBRANCH  23  30
TORSDOF 3
ENDMDL
MODEL 6
REMARK VINA RESULT:      -7.4      3.070      4.725
REMARK  3 active torsions:
REMARK  status: ('A' for Active; 'I' for Inactive)
REMARK    1  A    between atoms: C13_15  and  C14_16 
REMARK    2  A    between atoms: N2_17  and  C15_18 
REMARK    3  A    between atoms: C20_27  and  O3_28 
ROOT
HETATM    1  C1  UNL     1      17.481   3.345  50.731  1.00  0.00     0.047 C 
HETATM    2  C2  UNL     1      18.511   3.064  49.901  1.00  0.00     0.123 C 
HETATM    3  O1  UNL     1      18.319   1.773  50.421  1.00  0.00    -0.374 OA
HETATM    4  C3  UNL     1      18.914   1.252  51.593  1.00  0.00     0.171 C 
HETATM    5  C4  UNL     1      19.985   0.234  51.283  1.00  0.00     0.066 C 
HETATM    6  C5  UNL     1      21.063   0.003  52.225  1.00  0.00     0.253 C 
HETATM    7  N1  UNL     1      20.599   0.320  53.559  1.00  0.00     0.092 N 
HETATM    8  C6  UNL     1      21.312  -0.376  54.580  1.00  0.00     0.271 C 
HETATM    9  C7  UNL     1      22.748  -0.537  54.255  1.00  0.00     0.034 C 
HETATM   10  C8  UNL     1      23.308   0.454  53.256  1.00  0.00     0.039 C 
HETATM   11  C9  UNL     1      22.368   0.645  52.107  1.00  0.00    -0.030 C 
HETATM   12  C10 UNL     1      23.066   1.395  51.294  1.00  0.00    -0.012 C 
HETATM   13  C11 UNL     1      24.273   2.074  51.024  1.00  0.00     0.051 C 
HETATM   14  C12 UNL     1      24.541   3.468  50.807  1.00  0.00     0.017 C 
HETATM   15  C13 UNL     1      24.139   4.389  49.733  1.00  0.00     0.055 C 
HETATM   16  C16 UNL     1      22.768   4.860  49.542  1.00  0.00     0.280 C 
HETATM   17  N3  UNL     1      21.715   4.027  49.036  1.00  0.00     0.096 N 
HETATM   18  C17 UNL     1      20.457   4.661  49.343  1.00  0.00     0.292 C 
HETATM   19  C18 UNL     1      20.553   4.781  50.854  1.00  0.00     0.128 C 
HETATM   20  N4  UNL     1      21.059   3.703  51.343  1.00  0.00    -0.262 NA
HETATM   21  C19 UNL     1      21.428   2.620  50.432  1.00  0.00     0.333 C 
HETATM   22  N5  UNL     1      22.183   1.603  50.212  1.00  0.00    -0.271 NA
HETATM   23  C20 UNL     1      19.168   4.063  49.050  1.00  0.00     0.196 C 
HETATM   24  H8  UNL     1      19.564   0.284  53.664  1.00  0.00     0.316 HD
HETATM   25  H24 UNL     1      21.819   3.801  48.026  1.00  0.00     0.316 HD
ENDROOT
BRANCH  15  26
HETATM   26  C14 UNL     1      24.868   5.743  50.011  1.00  0.00     0.099 C 
HETATM   27  N2  UNL     1      26.053   6.151  49.704  1.00  0.00    -0.238 NA
BRANCH  27  28
HETATM   28  C15 UNL     1      26.902   5.240  48.977  1.00  0.00     0.375 C 
HETATM   29  O2  UNL     1      27.736   4.360  48.583  1.00  0.00    -0.281 OA
ENDBRANCH  27  28
ENDBRANCH  15  26
BRANCH  23  30
HETATM   30  O3  UNL     1      18.954   3.796  47.676  1.00  0.00    -0.385 OA
HETATM   31  C21 UNL     1      18.820   4.957  46.942  1.00  0.00     0.202 C 
ENDBRANCH  23  30
TORSDOF 3
ENDMDL
MODEL 7
REMARK VINA RESULT:      -7.3      2.686      6.620
REMARK  3 active torsions:
REMARK  status: ('A' for Active; 'I' for Inactive)
REMARK    1  A    between atoms: C13_15  and  C14_16 
REMARK    2  A    between atoms: N2_17  and  C15_18 
REMARK    3  A    between atoms: C20_27  and  O3_28 
ROOT
HETATM    1  C1  UNL     1      19.226   3.110  47.584  1.00  0.00     0.047 C 
HETATM    2  C2  UNL     1      19.243   3.011  48.931  1.00  0.00     0.123 C 
HETATM    3  O1  UNL     1      19.132   4.408  48.838  1.00  0.00    -0.374 OA
HETATM    4  C3  UNL     1      20.205   5.323  48.733  1.00  0.00     0.171 C 
HETATM    5  C4  UNL     1      20.414   6.103  50.008  1.00  0.00     0.066 C 
HETATM    6  C5  UNL     1      21.722   6.645  50.323  1.00  0.00     0.253 C 
HETATM    7  N1  UNL     1      22.441   6.887  49.091  1.00  0.00     0.092 N 
HETATM    8  C6  UNL     1      23.438   7.900  49.214  1.00  0.00     0.271 C 
HETATM    9  C7  UNL     1      24.109   7.873  50.533  1.00  0.00     0.034 C 
HETATM   10  C8  UNL     1      24.043   6.554  51.274  1.00  0.00     0.039 C 
HETATM   11  C9  UNL     1      22.670   5.964  51.198  1.00  0.00    -0.030 C 
HETATM   12  C10 UNL     1      22.761   4.934  51.998  1.00  0.00    -0.012 C 
HETATM   13  C11 UNL     1      23.548   4.163  52.879  1.00  0.00     0.051 C 
HETATM   14  C12 UNL     1      23.951   2.786  52.822  1.00  0.00     0.017 C 
HETATM   15  C13 UNL     1      23.182   1.534  52.902  1.00  0.00     0.055 C 
HETATM   16  C16 UNL     1      22.275   1.072  51.851  1.00  0.00     0.280 C 
HETATM   17  N3  UNL     1      21.001   1.680  51.592  1.00  0.00     0.096 N 
HETATM   18  C17 UNL     1      20.563   1.257  50.285  1.00  0.00     0.292 C 
HETATM   19  C18 UNL     1      21.722   1.730  49.424  1.00  0.00     0.128 C 
HETATM   20  N4  UNL     1      22.105   2.895  49.814  1.00  0.00    -0.262 NA
HETATM   21  C19 UNL     1      21.412   3.527  50.936  1.00  0.00     0.333 C 
HETATM   22  N5  UNL     1      21.476   4.352  51.920  1.00  0.00    -0.271 NA
HETATM   23  C20 UNL     1      19.348   1.739  49.655  1.00  0.00     0.196 C 
HETATM   24  H8  UNL     1      21.825   6.996  48.259  1.00  0.00     0.316 HD
HETATM   25  H24 UNL     1      20.298   1.492  52.335  1.00  0.00     0.316 HD
ENDROOT
BRANCH  15  26
HETATM   26  C14 UNL     1      24.225   0.370  52.908  1.00  0.00     0.099 C 
HETATM   27  N2  UNL     1      24.303  -0.700  53.626  1.00  0.00    -0.238 NA
BRANCH  27  28
HETATM   28  C15 UNL     1      23.276  -0.912  54.615  1.00  0.00     0.375 C 
HETATM   29  O2  UNL     1      22.299  -1.311  55.331  1.00  0.00    -0.281 OA
ENDBRANCH  27  28
ENDBRANCH  15  26
BRANCH  23  30
HETATM   30  O3  UNL     1      18.169   1.459  50.387  1.00  0.00    -0.385 OA
HETATM   31  C21 UNL     1      17.845   0.118  50.345  1.00  0.00     0.202 C 
ENDBRANCH  23  30
TORSDOF 3
ENDMDL
MODEL 8
REMARK VINA RESULT:      -7.3      2.080      5.302
REMARK  3 active torsions:
REMARK  status: ('A' for Active; 'I' for Inactive)
REMARK    1  A    between atoms: C13_15  and  C14_16 
REMARK    2  A    between atoms: N2_17  and  C15_18 
REMARK    3  A    between atoms: C20_27  and  O3_28 
ROOT
HETATM    1  C1  UNL     1      25.425  -0.769  53.024  1.00  0.00     0.047 C 
HETATM    2  C2  UNL     1      25.242   0.541  53.301  1.00  0.00     0.123 C 
HETATM    3  O1  UNL     1      24.096   0.042  53.942  1.00  0.00    -0.374 OA
HETATM    4  C3  UNL     1      22.833  -0.171  53.342  1.00  0.00     0.171 C 
HETATM    5  C4  UNL     1      21.812   0.848  53.789  1.00  0.00     0.066 C 
HETATM    6  C5  UNL     1      20.686   1.171  52.935  1.00  0.00     0.253 C 
HETATM    7  N1  UNL     1      20.388   0.030  52.096  1.00  0.00     0.092 N 
HETATM    8  C6  UNL     1      19.031  -0.004  51.659  1.00  0.00     0.271 C 
HETATM    9  C7  UNL     1      18.492   1.347  51.383  1.00  0.00     0.034 C 
HETATM   10  C8  UNL     1      19.526   2.415  51.088  1.00  0.00     0.039 C 
HETATM   11  C9  UNL     1      20.677   2.323  52.039  1.00  0.00    -0.030 C 
HETATM   12  C10 UNL     1      21.376   3.387  51.739  1.00  0.00    -0.012 C 
HETATM   13  C11 UNL     1      21.518   4.548  50.951  1.00  0.00     0.051 C 
HETATM   14  C12 UNL     1      22.543   4.938  50.024  1.00  0.00     0.017 C 
HETATM   15  C13 UNL     1      23.965   5.263  50.213  1.00  0.00     0.055 C 
HETATM   16  C16 UNL     1      24.982   4.273  50.566  1.00  0.00     0.280 C 
HETATM   17  N3  UNL     1      25.084   3.683  51.870  1.00  0.00     0.096 N 
HETATM   18  C17 UNL     1      25.904   2.502  51.762  1.00  0.00     0.292 C 
HETATM   19  C18 UNL     1      25.134   1.707  50.721  1.00  0.00     0.128 C 
HETATM   20  N4  UNL     1      23.870   1.801  50.952  1.00  0.00    -0.262 NA
HETATM   21  C19 UNL     1      23.419   2.593  52.095  1.00  0.00     0.333 C 
HETATM   22  N5  UNL     1      22.481   3.302  52.615  1.00  0.00    -0.271 NA
HETATM   23  C20 UNL     1      26.160   1.603  52.872  1.00  0.00     0.196 C 
HETATM   24  H8  UNL     1      20.734  -0.874  52.477  1.00  0.00     0.316 HD
HETATM   25  H24 UNL     1      25.423   4.346  52.596  1.00  0.00     0.316 HD
ENDROOT
BRANCH  15  26
HETATM   26  C14 UNL     1      24.502   5.740  48.825  1.00  0.00     0.099 C 
HETATM   27  N2  UNL     1      25.303   6.700  48.505  1.00  0.00    -0.238 NA
BRANCH  27  28
HETATM   28  C15 UNL     1      25.828   7.512  49.576  1.00  0.00     0.375 C 
HETATM   29  O2  UNL     1      26.501   8.265  50.352  1.00  0.00    -0.281 OA
ENDBRANCH  27  28
ENDBRANCH  15  26
BRANCH  23  30
HETATM   30  O3  UNL     1      26.797   2.217  53.977  1.00  0.00    -0.385 OA
HETATM   31  C21 UNL     1      28.163   2.307  53.796  1.00  0.00     0.202 C 
ENDBRANCH  23  30
TORSDOF 3
ENDMDL
MODEL 9
REMARK VINA RESULT:      -7.3      2.190      3.404
REMARK  3 active torsions:
REMARK  status: ('A' for Active; 'I' for Inactive)
REMARK    1  A    between atoms: C13_15  and  C14_16 
REMARK    2  A    between atoms: N2_17  and  C15_18 
REMARK    3  A    between atoms: C20_27  and  O3_28 
ROOT
HETATM    1  C1  UNL     1      20.259   3.593  52.238  1.00  0.00     0.047 C 
HETATM    2  C2  UNL     1      20.854   3.543  51.025  1.00  0.00     0.123 C 
HETATM    3  O1  UNL     1      21.263   2.285  51.497  1.00  0.00    -0.374 OA
HETATM    4  C3  UNL     1      22.428   2.019  52.256  1.00  0.00     0.171 C 
HETATM    5  C4  UNL     1      23.483   1.305  51.445  1.00  0.00     0.066 C 
HETATM    6  C5  UNL     1      24.883   1.432  51.802  1.00  0.00     0.253 C 
HETATM    7  N1  UNL     1      24.985   1.702  53.220  1.00  0.00     0.092 N 
HETATM    8  C6  UNL     1      26.231   1.290  53.780  1.00  0.00     0.271 C 
HETATM    9  C7  UNL     1      27.363   1.496  52.848  1.00  0.00     0.034 C 
HETATM   10  C8  UNL     1      27.140   2.532  51.766  1.00  0.00     0.039 C 
HETATM   11  C9  UNL     1      25.778   2.389  51.161  1.00  0.00    -0.030 C 
HETATM   12  C10 UNL     1      25.819   3.242  50.170  1.00  0.00    -0.012 C 
HETATM   13  C11 UNL     1      26.555   4.198  49.438  1.00  0.00     0.051 C 
HETATM   14  C12 UNL     1      26.317   5.595  49.209  1.00  0.00     0.017 C 
HETATM   15  C13 UNL     1      25.254   6.303  48.478  1.00  0.00     0.055 C 
HETATM   16  C16 UNL     1      23.867   6.379  48.938  1.00  0.00     0.280 C 
HETATM   17  N3  UNL     1      22.965   5.263  48.898  1.00  0.00     0.096 N 
HETATM   18  C17 UNL     1      21.851   5.559  49.764  1.00  0.00     0.292 C 
HETATM   19  C18 UNL     1      22.564   5.800  51.083  1.00  0.00     0.128 C 
HETATM   20  N4  UNL     1      23.502   4.931  51.234  1.00  0.00    -0.262 NA
HETATM   21  C19 UNL     1      23.708   3.927  50.192  1.00  0.00     0.333 C 
HETATM   22  N5  UNL     1      24.531   3.135  49.601  1.00  0.00    -0.271 NA
HETATM   23  C20 UNL     1      20.777   4.621  50.033  1.00  0.00     0.196 C 
HETATM   24  H8  UNL     1      24.153   1.399  53.767  1.00  0.00     0.316 HD
HETATM   25  H24 UNL     1      22.672   5.007  47.934  1.00  0.00     0.316 HD
ENDROOT
BRANCH  15  26
HETATM   26  C14 UNL     1      25.638   7.818  48.488  1.00  0.00     0.099 C 
HETATM   27  N2  UNL     1      25.686   8.691  47.539  1.00  0.00    -0.238 NA
BRANCH  27  28
HETATM   28  C15 UNL     1      25.333   8.248  46.212  1.00  0.00     0.375 C 
HETATM   29  O2  UNL     1      24.771   7.937  45.111  1.00  0.00    -0.281 OA
ENDBRANCH  27  28
ENDBRANCH  15  26
BRANCH  23  30
HETATM   30  O3  UNL     1      20.062   4.216  48.880  1.00  0.00    -0.385 OA
HETATM   31  C21 UNL     1      19.298   5.243  48.363  1.00  0.00     0.202 C 
ENDBRANCH  23  30
TORSDOF 3
ENDMDL
