MODEL 1
REMARK VINA RESULT:      -7.5      0.000      0.000
REMARK  5 active torsions:
REMARK  status: ('A' for Active; 'I' for Inactive)
REMARK    1  A    between atoms: C2_2  and  C3_3 
REMARK    2  A    between atoms: C3_3  and  C4_4 
REMARK    3  A    between atoms: C4_4  and  C5_5 
REMARK    4  A    between atoms: C5_5  and  C6_6 
REMARK    5  A    between atoms: C11_14  and  N4_15 
ROOT
HETATM    1  C6  UNL     1      24.613   1.681  52.704  1.00  0.00     0.074 C 
HETATM    2  C7  UNL     1      23.082   1.832  52.749  1.00  0.00     0.043 C 
HETATM    3  C8  UNL     1      22.437   0.685  52.050  1.00  0.00     0.272 C 
HETATM    4  N1  UNL     1      21.021   0.572  52.358  1.00  0.00     0.102 N 
HETATM    5  C9  UNL     1      20.872   0.254  53.785  1.00  0.00     0.418 C 
HETATM    6  N2  UNL     1      21.713  -0.802  54.237  1.00  0.00    -0.253 NA
HETATM    7  C10 UNL     1      23.009  -0.810  54.251  1.00  0.00     0.230 C 
HETATM    8  N3  UNL     1      24.380  -0.545  54.150  1.00  0.00    -0.229 NA
HETATM    9  C11 UNL     1      24.898   0.452  53.523  1.00  0.00     0.109 C 
HETATM   10  H9  UNL     1      20.533   1.486  52.239  1.00  0.00     0.318 HD
ENDROOT
BRANCH   9  11
HETATM   11  N4  UNL     1      26.277   0.257  53.707  1.00  0.00    -0.360 N 
HETATM   12  C12 UNL     1      27.120   1.352  54.211  1.00  0.00     0.135 C 
HETATM   13  C13 UNL     1      28.470   0.858  54.629  1.00  0.00     0.044 C 
HETATM   14  C14 UNL     1      29.460   2.005  54.483  1.00  0.00     0.017 C 
HETATM   15  C15 UNL     1      28.971  -0.237  53.733  1.00  0.00     0.015 C 
HETATM   16 CL1  UNL     1      30.705  -0.371  53.436  1.00  0.00    -0.089 Cl
HETATM   17  C16 UNL     1      28.132  -1.107  53.160  1.00  0.00     0.018 C 
HETATM   18  C17 UNL     1      26.652  -1.083  53.344  1.00  0.00     0.106 C 
HETATM   19  C18 UNL     1      26.009  -1.568  52.077  1.00  0.00     0.037 C 
ENDBRANCH   9  11
BRANCH   1  20
HETATM   20  C5  UNL     1      25.141   1.609  51.332  1.00  0.00     0.094 C 
BRANCH  20  21
HETATM   21  C4  UNL     1      25.727   2.661  50.782  1.00  0.00    -0.086 C 
BRANCH  21  22
HETATM   22  C3  UNL     1      26.297   3.537  50.004  1.00  0.00    -0.028 C 
BRANCH  22  23
HETATM   23  C2  UNL     1      26.931   4.326  49.212  1.00  0.00    -0.093 C 
HETATM   24  C1  UNL     1      27.837   5.007  48.561  1.00  0.00     0.107 C 
ENDBRANCH  22  23
ENDBRANCH  21  22
ENDBRANCH  20  21
ENDBRANCH   1  20
TORSDOF 5
ENDMDL
MODEL 2
REMARK VINA RESULT:      -7.0      3.351      6.750
REMARK  5 active torsions:
REMARK  status: ('A' for Active; 'I' for Inactive)
REMARK    1  A    between atoms: C2_2  and  C3_3 
REMARK    2  A    between atoms: C3_3  and  C4_4 
REMARK    3  A    between atoms: C4_4  and  C5_5 
REMARK    4  A    between atoms: C5_5  and  C6_6 
REMARK    5  A    between atoms: C11_14  and  N4_15 
ROOT
HETATM    1  C6  UNL     1      24.690   0.729  53.683  1.00  0.00     0.074 C 
HETATM    2  C7  UNL     1      25.951   0.375  54.492  1.00  0.00     0.043 C 
HETATM    3  C8  UNL     1      26.914  -0.370  53.633  1.00  0.00     0.272 C 
HETATM    4  N1  UNL     1      28.248  -0.419  54.208  1.00  0.00     0.102 N 
HETATM    5  C9  UNL     1      28.791   0.946  54.259  1.00  0.00     0.418 C 
HETATM    6  N2  UNL     1      28.642   1.678  53.048  1.00  0.00    -0.253 NA
HETATM    7  C10 UNL     1      27.529   2.018  52.478  1.00  0.00     0.230 C 
HETATM    8  N3  UNL     1      26.201   2.243  52.095  1.00  0.00    -0.229 NA
HETATM    9  C11 UNL     1      25.171   1.689  52.630  1.00  0.00     0.109 C 
HETATM   10  H9  UNL     1      28.220  -0.730  55.204  1.00  0.00     0.318 HD
ENDROOT
BRANCH   9  11
HETATM   11  N4  UNL     1      24.105   2.229  51.891  1.00  0.00    -0.360 N 
HETATM   12  C12 UNL     1      23.908   1.843  50.485  1.00  0.00     0.135 C 
HETATM   13  C13 UNL     1      22.565   2.273  49.982  1.00  0.00     0.044 C 
HETATM   14  C14 UNL     1      22.667   2.475  48.476  1.00  0.00     0.017 C 
HETATM   15  C15 UNL     1      22.148   3.598  50.550  1.00  0.00     0.015 C 
HETATM   16 CL1  UNL     1      21.164   4.680  49.562  1.00  0.00    -0.089 Cl
HETATM   17  C16 UNL     1      22.506   3.970  51.784  1.00  0.00     0.018 C 
HETATM   18  C17 UNL     1      23.334   3.134  52.700  1.00  0.00     0.106 C 
HETATM   19  C18 UNL     1      24.170   4.047  53.549  1.00  0.00     0.037 C 
ENDBRANCH   9  11
BRANCH   1  20
HETATM   20  C5  UNL     1      24.012  -0.456  53.133  1.00  0.00     0.094 C 
BRANCH  20  21
HETATM   21  C4  UNL     1      22.690  -0.506  53.073  1.00  0.00    -0.086 C 
BRANCH  21  22
HETATM   22  C3  UNL     1      21.413  -0.276  52.956  1.00  0.00    -0.028 C 
BRANCH  22  23
HETATM   23  C2  UNL     1      20.162  -0.079  52.738  1.00  0.00    -0.093 C 
HETATM   24  C1  UNL     1      18.922  -0.147  52.331  1.00  0.00     0.107 C 
ENDBRANCH  22  23
ENDBRANCH  21  22
ENDBRANCH  20  21
ENDBRANCH   1  20
TORSDOF 5
ENDMDL
MODEL 3
REMARK VINA RESULT:      -7.0      3.101      5.453
REMARK  5 active torsions:
REMARK  status: ('A' for Active; 'I' for Inactive)
REMARK    1  A    between atoms: C2_2  and  C3_3 
REMARK    2  A    between atoms: C3_3  and  C4_4 
REMARK    3  A    between atoms: C4_4  and  C5_5 
REMARK    4  A    between atoms: C5_5  and  C6_6 
REMARK    5  A    between atoms: C11_14  and  N4_15 
ROOT
HETATM    1  C6  UNL     1      23.536   0.624  52.143  1.00  0.00     0.074 C 
HETATM    2  C7  UNL     1      22.724  -0.501  52.810  1.00  0.00     0.043 C 
HETATM    3  C8  UNL     1      22.262  -0.065  54.158  1.00  0.00     0.272 C 
HETATM    4  N1  UNL     1      21.209  -0.915  54.686  1.00  0.00     0.102 N 
HETATM    5  C9  UNL     1      20.019  -0.778  53.835  1.00  0.00     0.418 C 
HETATM    6  N2  UNL     1      19.666   0.569  53.539  1.00  0.00    -0.253 NA
HETATM    7  C10 UNL     1      20.378   1.432  52.884  1.00  0.00     0.230 C 
HETATM    8  N3  UNL     1      21.344   2.138  52.157  1.00  0.00    -0.229 NA
HETATM    9  C11 UNL     1      22.544   1.733  51.928  1.00  0.00     0.109 C 
HETATM   10  H9  UNL     1      21.467  -1.924  54.619  1.00  0.00     0.318 HD
ENDROOT
BRANCH   9  11
HETATM   11  N4  UNL     1      23.096   2.790  51.185  1.00  0.00    -0.360 N 
HETATM   12  C12 UNL     1      23.405   4.071  51.839  1.00  0.00     0.135 C 
HETATM   13  C13 UNL     1      24.260   4.938  50.968  1.00  0.00     0.044 C 
HETATM   14  C14 UNL     1      23.991   6.390  51.336  1.00  0.00     0.017 C 
HETATM   15  C15 UNL     1      23.902   4.807  49.516  1.00  0.00     0.015 C 
HETATM   16 CL1  UNL     1      24.074   6.212  48.463  1.00  0.00    -0.089 Cl
HETATM   17  C16 UNL     1      23.458   3.651  49.011  1.00  0.00     0.018 C 
HETATM   18  C17 UNL     1      23.275   2.406  49.812  1.00  0.00     0.106 C 
HETATM   19  C18 UNL     1      22.116   1.641  49.241  1.00  0.00     0.037 C 
ENDBRANCH   9  11
BRANCH   1  20
HETATM   20  C5  UNL     1      24.709   1.030  52.935  1.00  0.00     0.094 C 
BRANCH  20  21
HETATM   21  C4  UNL     1      25.853   0.373  52.825  1.00  0.00    -0.086 C 
BRANCH  21  22
HETATM   22  C3  UNL     1      27.008  -0.206  52.992  1.00  0.00    -0.028 C 
BRANCH  22  23
HETATM   23  C2  UNL     1      28.181  -0.687  53.207  1.00  0.00    -0.093 C 
HETATM   24  C1  UNL     1      29.387  -0.934  53.644  1.00  0.00     0.107 C 
ENDBRANCH  22  23
ENDBRANCH  21  22
ENDBRANCH  20  21
ENDBRANCH   1  20
TORSDOF 5
ENDMDL
MODEL 4
REMARK VINA RESULT:      -6.9      2.979      6.113
REMARK  5 active torsions:
REMARK  status: ('A' for Active; 'I' for Inactive)
REMARK    1  A    between atoms: C2_2  and  C3_3 
REMARK    2  A    between atoms: C3_3  and  C4_4 
REMARK    3  A    between atoms: C4_4  and  C5_5 
REMARK    4  A    between atoms: C5_5  and  C6_6 
REMARK    5  A    between atoms: C11_14  and  N4_15 
ROOT
HETATM    1  C6  UNL     1      23.676   1.782  52.440  1.00  0.00     0.074 C 
HETATM    2  C7  UNL     1      23.801   0.800  53.618  1.00  0.00     0.043 C 
HETATM    3  C8  UNL     1      24.781  -0.273  53.286  1.00  0.00     0.272 C 
HETATM    4  N1  UNL     1      25.214  -1.013  54.458  1.00  0.00     0.102 N 
HETATM    5  C9  UNL     1      25.960  -0.105  55.341  1.00  0.00     0.418 C 
HETATM    6  N2  UNL     1      26.947   0.674  54.675  1.00  0.00    -0.253 NA
HETATM    7  C10 UNL     1      26.744   1.556  53.747  1.00  0.00     0.230 C 
HETATM    8  N3  UNL     1      26.236   2.434  52.783  1.00  0.00    -0.229 NA
HETATM    9  C11 UNL     1      25.027   2.436  52.344  1.00  0.00     0.109 C 
HETATM   10  H9  UNL     1      24.399  -1.327  55.031  1.00  0.00     0.318 HD
ENDROOT
BRANCH   9  11
HETATM   11  N4  UNL     1      25.036   3.477  51.400  1.00  0.00    -0.360 N 
HETATM   12  C12 UNL     1      26.106   3.555  50.394  1.00  0.00     0.135 C 
HETATM   13  C13 UNL     1      25.769   4.531  49.310  1.00  0.00     0.044 C 
HETATM   14  C14 UNL     1      27.072   5.065  48.732  1.00  0.00     0.017 C 
HETATM   15  C15 UNL     1      25.031   5.727  49.838  1.00  0.00     0.015 C 
HETATM   16 CL1  UNL     1      25.279   7.294  49.065  1.00  0.00    -0.089 Cl
HETATM   17  C16 UNL     1      24.193   5.625  50.876  1.00  0.00     0.018 C 
HETATM   18  C17 UNL     1      23.912   4.352  51.599  1.00  0.00     0.106 C 
HETATM   19  C18 UNL     1      23.646   4.675  53.042  1.00  0.00     0.037 C 
ENDBRANCH   9  11
BRANCH   1  20
HETATM   20  C5  UNL     1      23.250   1.126  51.192  1.00  0.00     0.094 C 
BRANCH  20  21
HETATM   21  C4  UNL     1      21.993   0.741  51.032  1.00  0.00    -0.086 C 
BRANCH  21  22
HETATM   22  C3  UNL     1      20.720   0.484  51.130  1.00  0.00    -0.028 C 
BRANCH  22  23
HETATM   23  C2  UNL     1      19.474   0.242  51.333  1.00  0.00    -0.093 C 
HETATM   24  C1  UNL     1      18.276   0.110  51.838  1.00  0.00     0.107 C 
ENDBRANCH  22  23
ENDBRANCH  21  22
ENDBRANCH  20  21
ENDBRANCH   1  20
TORSDOF 5
ENDMDL
MODEL 5
REMARK VINA RESULT:      -6.9      7.212     10.582
REMARK  5 active torsions:
REMARK  status: ('A' for Active; 'I' for Inactive)
REMARK    1  A    between atoms: C2_2  and  C3_3 
REMARK    2  A    between atoms: C3_3  and  C4_4 
REMARK    3  A    between atoms: C4_4  and  C5_5 
REMARK    4  A    between atoms: C5_5  and  C6_6 
REMARK    5  A    between atoms: C11_14  and  N4_15 
ROOT
HETATM    1  C6  UNL     1      29.817   6.966  47.454  1.00  0.00     0.074 C 
HETATM    2  C7  UNL     1      29.014   8.235  47.788  1.00  0.00     0.043 C 
HETATM    3  C8  UNL     1      29.327   8.685  49.174  1.00  0.00     0.272 C 
HETATM    4  N1  UNL     1      28.894  10.049  49.426  1.00  0.00     0.102 N 
HETATM    5  C9  UNL     1      29.669  10.957  48.569  1.00  0.00     0.418 C 
HETATM    6  N2  UNL     1      31.072  10.717  48.585  1.00  0.00    -0.253 NA
HETATM    7  C10 UNL     1      31.679   9.641  48.194  1.00  0.00     0.230 C 
HETATM    8  N3  UNL     1      32.059   8.384  47.710  1.00  0.00    -0.229 NA
HETATM    9  C11 UNL     1      31.253   7.412  47.456  1.00  0.00     0.109 C 
HETATM   10  H9  UNL     1      27.902  10.192  49.133  1.00  0.00     0.318 HD
ENDROOT
BRANCH   9  11
HETATM   11  N4  UNL     1      32.117   6.394  47.019  1.00  0.00    -0.360 N 
HETATM   12  C12 UNL     1      32.997   5.707  47.977  1.00  0.00     0.135 C 
HETATM   13  C13 UNL     1      33.593   4.469  47.383  1.00  0.00     0.044 C 
HETATM   14  C14 UNL     1      34.920   4.202  48.080  1.00  0.00     0.017 C 
HETATM   15  C15 UNL     1      33.918   4.642  45.928  1.00  0.00     0.015 C 
HETATM   16 CL1  UNL     1      35.309   3.791  45.256  1.00  0.00    -0.089 Cl
HETATM   17  C16 UNL     1      33.174   5.424  45.137  1.00  0.00     0.018 C 
HETATM   18  C17 UNL     1      31.980   6.186  45.603  1.00  0.00     0.106 C 
HETATM   19  C18 UNL     1      31.891   7.459  44.810  1.00  0.00     0.037 C 
ENDBRANCH   9  11
BRANCH   1  20
HETATM   20  C5  UNL     1      29.546   5.856  48.382  1.00  0.00     0.094 C 
BRANCH  20  21
HETATM   21  C4  UNL     1      28.324   5.356  48.491  1.00  0.00    -0.086 C 
BRANCH  21  22
HETATM   22  C3  UNL     1      27.229   4.737  48.830  1.00  0.00    -0.028 C 
BRANCH  22  23
HETATM   23  C2  UNL     1      26.208   4.070  49.236  1.00  0.00    -0.093 C 
HETATM   24  C1  UNL     1      25.014   3.674  49.588  1.00  0.00     0.107 C 
ENDBRANCH  22  23
ENDBRANCH  21  22
ENDBRANCH  20  21
ENDBRANCH   1  20
TORSDOF 5
ENDMDL
MODEL 6
REMARK VINA RESULT:      -6.8      3.578      5.468
REMARK  5 active torsions:
REMARK  status: ('A' for Active; 'I' for Inactive)
REMARK    1  A    between atoms: C2_2  and  C3_3 
REMARK    2  A    between atoms: C3_3  and  C4_4 
REMARK    3  A    between atoms: C4_4  and  C5_5 
REMARK    4  A    between atoms: C5_5  and  C6_6 
REMARK    5  A    between atoms: C11_14  and  N4_15 
ROOT
HETATM    1  C6  UNL     1      23.684   0.810  51.939  1.00  0.00     0.074 C 
HETATM    2  C7  UNL     1      23.474  -0.433  52.822  1.00  0.00     0.043 C 
HETATM    3  C8  UNL     1      23.288  -0.023  54.242  1.00  0.00     0.272 C 
HETATM    4  N1  UNL     1      22.736  -1.089  55.061  1.00  0.00     0.102 N 
HETATM    5  C9  UNL     1      21.376  -1.389  54.591  1.00  0.00     0.418 C 
HETATM    6  N2  UNL     1      20.559  -0.239  54.401  1.00  0.00    -0.253 NA
HETATM    7  C10 UNL     1      20.762   0.726  53.560  1.00  0.00     0.230 C 
HETATM    8  N3  UNL     1      21.224   1.610  52.578  1.00  0.00    -0.229 NA
HETATM    9  C11 UNL     1      22.379   1.554  52.013  1.00  0.00     0.109 C 
HETATM   10  H9  UNL     1      23.263  -1.980  54.929  1.00  0.00     0.318 HD
ENDROOT
BRANCH   9  11
HETATM   11  N4  UNL     1      22.352   2.650  51.134  1.00  0.00    -0.360 N 
HETATM   12  C12 UNL     1      22.293   4.021  51.662  1.00  0.00     0.135 C 
HETATM   13  C13 UNL     1      22.587   5.032  50.597  1.00  0.00     0.044 C 
HETATM   14  C14 UNL     1      21.882   6.329  50.969  1.00  0.00     0.017 C 
HETATM   15  C15 UNL     1      22.028   4.626  49.265  1.00  0.00     0.015 C 
HETATM   16 CL1  UNL     1      21.468   5.878  48.155  1.00  0.00    -0.089 Cl
HETATM   17  C16 UNL     1      21.948   3.339  48.907  1.00  0.00     0.018 C 
HETATM   18  C17 UNL     1      22.391   2.205  49.767  1.00  0.00     0.106 C 
HETATM   19  C18 UNL     1      21.504   1.025  49.490  1.00  0.00     0.037 C 
ENDBRANCH   9  11
BRANCH   1  20
HETATM   20  C5  UNL     1      24.844   1.616  52.352  1.00  0.00     0.094 C 
BRANCH  20  21
HETATM   21  C4  UNL     1      25.645   2.155  51.445  1.00  0.00    -0.086 C 
BRANCH  21  22
HETATM   22  C3  UNL     1      26.226   2.881  50.533  1.00  0.00    -0.028 C 
BRANCH  22  23
HETATM   23  C2  UNL     1      26.703   3.643  49.614  1.00  0.00    -0.093 C 
HETATM   24  C1  UNL     1      27.209   4.632  48.926  1.00  0.00     0.107 C 
ENDBRANCH  22  23
ENDBRANCH  21  22
ENDBRANCH  20  21
ENDBRANCH   1  20
TORSDOF 5
ENDMDL
MODEL 7
REMARK VINA RESULT:      -6.7      3.260      6.011
REMARK  5 active torsions:
REMARK  status: ('A' for Active; 'I' for Inactive)
REMARK    1  A    between atoms: C2_2  and  C3_3 
REMARK    2  A    between atoms: C3_3  and  C4_4 
REMARK    3  A    between atoms: C4_4  and  C5_5 
REMARK    4  A    between atoms: C5_5  and  C6_6 
REMARK    5  A    between atoms: C11_14  and  N4_15 
ROOT
HETATM    1  C6  UNL     1      25.493   2.035  50.806  1.00  0.00     0.074 C 
HETATM    2  C7  UNL     1      26.784   1.390  51.341  1.00  0.00     0.043 C 
HETATM    3  C8  UNL     1      27.210   2.070  52.597  1.00  0.00     0.272 C 
HETATM    4  N1  UNL     1      28.194   1.301  53.340  1.00  0.00     0.102 N 
HETATM    5  C9  UNL     1      27.568   0.053  53.800  1.00  0.00     0.418 C 
HETATM    6  N2  UNL     1      26.298   0.231  54.415  1.00  0.00    -0.253 NA
HETATM    7  C10 UNL     1      25.225   0.700  53.859  1.00  0.00     0.230 C 
HETATM    8  N3  UNL     1      24.241   1.229  53.016  1.00  0.00    -0.229 NA
HETATM    9  C11 UNL     1      24.453   1.725  51.847  1.00  0.00     0.109 C 
HETATM   10  H9  UNL     1      28.977   0.991  52.723  1.00  0.00     0.318 HD
ENDROOT
BRANCH   9  11
HETATM   11  N4  UNL     1      23.169   2.120  51.436  1.00  0.00    -0.360 N 
HETATM   12  C12 UNL     1      22.595   1.591  50.190  1.00  0.00     0.135 C 
HETATM   13  C13 UNL     1      21.129   1.880  50.095  1.00  0.00     0.044 C 
HETATM   14  C14 UNL     1      20.754   1.946  48.621  1.00  0.00     0.017 C 
HETATM   15  C15 UNL     1      20.781   3.223  50.670  1.00  0.00     0.015 C 
HETATM   16 CL1  UNL     1      19.451   4.138  49.960  1.00  0.00    -0.089 Cl
HETATM   17  C16 UNL     1      21.458   3.733  51.705  1.00  0.00     0.018 C 
HETATM   18  C17 UNL     1      22.597   3.045  52.378  1.00  0.00     0.106 C 
HETATM   19  C18 UNL     1      23.562   4.088  52.863  1.00  0.00     0.037 C 
ENDBRANCH   9  11
BRANCH   1  20
HETATM   20  C5  UNL     1      25.642   3.474  50.535  1.00  0.00     0.094 C 
BRANCH  20  21
HETATM   21  C4  UNL     1      26.546   3.903  49.667  1.00  0.00    -0.086 C 
BRANCH  21  22
HETATM   22  C3  UNL     1      27.399   4.575  48.948  1.00  0.00    -0.028 C 
BRANCH  22  23
HETATM   23  C2  UNL     1      28.237   5.315  48.313  1.00  0.00    -0.093 C 
HETATM   24  C1  UNL     1      29.170   6.163  47.970  1.00  0.00     0.107 C 
ENDBRANCH  22  23
ENDBRANCH  21  22
ENDBRANCH  20  21
ENDBRANCH   1  20
TORSDOF 5
ENDMDL
MODEL 8
REMARK VINA RESULT:      -6.6      7.758     11.563
REMARK  5 active torsions:
REMARK  status: ('A' for Active; 'I' for Inactive)
REMARK    1  A    between atoms: C2_2  and  C3_3 
REMARK    2  A    between atoms: C3_3  and  C4_4 
REMARK    3  A    between atoms: C4_4  and  C5_5 
REMARK    4  A    between atoms: C5_5  and  C6_6 
REMARK    5  A    between atoms: C11_14  and  N4_15 
ROOT
HETATM    1  C6  UNL     1      31.369   6.446  48.890  1.00  0.00     0.074 C 
HETATM    2  C7  UNL     1      32.526   5.535  49.340  1.00  0.00     0.043 C 
HETATM    3  C8  UNL     1      33.357   5.149  48.165  1.00  0.00     0.272 C 
HETATM    4  N1  UNL     1      34.646   4.601  48.553  1.00  0.00     0.102 N 
HETATM    5  C9  UNL     1      35.427   5.655  49.216  1.00  0.00     0.418 C 
HETATM    6  N2  UNL     1      35.442   6.895  48.519  1.00  0.00    -0.253 NA
HETATM    7  C10 UNL     1      34.422   7.652  48.260  1.00  0.00     0.230 C 
HETATM    8  N3  UNL     1      33.167   8.257  48.125  1.00  0.00    -0.229 NA
HETATM    9  C11 UNL     1      32.041   7.698  48.397  1.00  0.00     0.109 C 
HETATM   10  H9  UNL     1      34.539   3.856  49.276  1.00  0.00     0.318 HD
ENDROOT
BRANCH   9  11
HETATM   11  N4  UNL     1      31.108   8.701  48.083  1.00  0.00    -0.360 N 
HETATM   12  C12 UNL     1      30.079   9.086  49.060  1.00  0.00     0.135 C 
HETATM   13  C13 UNL     1      29.399  10.361  48.667  1.00  0.00     0.044 C 
HETATM   14  C14 UNL     1      27.996  10.351  49.257  1.00  0.00     0.017 C 
HETATM   15  C15 UNL     1      29.222  10.470  47.181  1.00  0.00     0.015 C 
HETATM   16 CL1  UNL     1      27.806  11.311  46.548  1.00  0.00    -0.089 Cl
HETATM   17  C16 UNL     1      30.113   9.944  46.333  1.00  0.00     0.018 C 
HETATM   18  C17 UNL     1      31.342   9.215  46.761  1.00  0.00     0.106 C 
HETATM   19  C18 UNL     1      31.640   8.151  45.743  1.00  0.00     0.037 C 
ENDBRANCH   9  11
BRANCH   1  20
HETATM   20  C5  UNL     1      30.500   5.811  47.886  1.00  0.00     0.094 C 
BRANCH  20  21
HETATM   21  C4  UNL     1      29.234   5.543  48.167  1.00  0.00    -0.086 C 
BRANCH  21  22
HETATM   22  C3  UNL     1      28.096   5.038  48.552  1.00  0.00    -0.028 C 
BRANCH  22  23
HETATM   23  C2  UNL     1      26.937   4.640  48.940  1.00  0.00    -0.093 C 
HETATM   24  C1  UNL     1      25.936   4.030  49.516  1.00  0.00     0.107 C 
ENDBRANCH  22  23
ENDBRANCH  21  22
ENDBRANCH  20  21
ENDBRANCH   1  20
TORSDOF 5
ENDMDL
MODEL 9
REMARK VINA RESULT:      -6.6      3.006      5.554
REMARK  5 active torsions:
REMARK  status: ('A' for Active; 'I' for Inactive)
REMARK    1  A    between atoms: C2_2  and  C3_3 
REMARK    2  A    between atoms: C3_3  and  C4_4 
REMARK    3  A    between atoms: C4_4  and  C5_5 
REMARK    4  A    between atoms: C5_5  and  C6_6 
REMARK    5  A    between atoms: C11_14  and  N4_15 
ROOT
HETATM    1  C6  UNL     1      22.682   1.662  50.487  1.00  0.00     0.074 C 
HETATM    2  C7  UNL     1      21.974   2.282  49.268  1.00  0.00     0.043 C 
HETATM    3  C8  UNL     1      21.532   3.669  49.587  1.00  0.00     0.272 C 
HETATM    4  N1  UNL     1      21.188   4.430  48.399  1.00  0.00     0.102 N 
HETATM    5  C9  UNL     1      22.400   4.615  47.589  1.00  0.00     0.418 C 
HETATM    6  N2  UNL     1      23.532   5.060  48.328  1.00  0.00    -0.253 NA
HETATM    7  C10 UNL     1      24.130   4.427  49.288  1.00  0.00     0.230 C 
HETATM    8  N3  UNL     1      24.567   3.533  50.273  1.00  0.00    -0.229 NA
HETATM    9  C11 UNL     1      23.926   2.489  50.665  1.00  0.00     0.109 C 
HETATM   10  H9  UNL     1      20.538   3.895  47.781  1.00  0.00     0.318 HD
ENDROOT
BRANCH   9  11
HETATM   11  N4  UNL     1      24.768   1.956  51.656  1.00  0.00    -0.360 N 
HETATM   12  C12 UNL     1      25.248   0.570  51.553  1.00  0.00     0.135 C 
HETATM   13  C13 UNL     1      26.362   0.303  52.518  1.00  0.00     0.044 C 
HETATM   14  C14 UNL     1      26.349  -1.182  52.855  1.00  0.00     0.017 C 
HETATM   15  C15 UNL     1      26.165   1.024  53.819  1.00  0.00     0.015 C 
HETATM   16 CL1  UNL     1      26.747   0.275  55.307  1.00  0.00    -0.089 Cl
HETATM   17  C16 UNL     1      25.562   2.216  53.870  1.00  0.00     0.018 C 
HETATM   18  C17 UNL     1      25.034   2.936  52.675  1.00  0.00     0.106 C 
HETATM   19  C18 UNL     1      23.822   3.720  53.090  1.00  0.00     0.037 C 
ENDBRANCH   9  11
BRANCH   1  20
HETATM   20  C5  UNL     1      21.827   1.621  51.684  1.00  0.00     0.094 C 
BRANCH  20  21
HETATM   21  C4  UNL     1      21.958   0.643  52.568  1.00  0.00    -0.086 C 
BRANCH  21  22
HETATM   22  C3  UNL     1      22.285  -0.148  53.550  1.00  0.00    -0.028 C 
BRANCH  22  23
HETATM   23  C2  UNL     1      22.707  -0.886  54.514  1.00  0.00    -0.093 C 
HETATM   24  C1  UNL     1      23.342  -1.388  55.540  1.00  0.00     0.107 C 
ENDBRANCH  22  23
ENDBRANCH  21  22
ENDBRANCH  20  21
ENDBRANCH   1  20
TORSDOF 5
ENDMDL
