MODEL 1
REMARK VINA RESULT:      -8.1      0.000      0.000
REMARK  1 active torsions:
REMARK  status: ('A' for Active; 'I' for Inactive)
REMARK    1  A    between atoms: N2_7  and  C6_8 
ROOT
HETATM    1  C1  UNL     1      20.679   6.948  49.104  1.00  0.00     0.043 C 
HETATM    2  C2  UNL     1      21.250   5.677  49.669  1.00  0.00    -0.083 C 
HETATM    3  C3  UNL     1      21.412   5.613  51.013  1.00  0.00     0.014 C 
HETATM    4  C4  UNL     1      21.983   4.367  51.675  1.00  0.00     0.202 C 
HETATM    5  C5  UNL     1      22.966   4.717  52.654  1.00  0.00     0.009 C 
HETATM    6  N1  UNL     1      23.806   4.994  53.493  1.00  0.00    -0.099 N 
HETATM    7  N2  UNL     1      22.626   3.576  50.635  1.00  0.00    -0.345 N 
HETATM    8  C19 UNL     1      21.744   3.306  49.480  1.00  0.00     0.130 C 
HETATM    9  C20 UNL     1      21.595   4.609  48.679  1.00  0.00     0.053 C 
ENDROOT
BRANCH   7  10
HETATM   10  C6  UNL     1      24.011   3.127  50.529  1.00  0.00     0.138 C 
HETATM   11  N3  UNL     1      24.982   3.458  49.762  1.00  0.00    -0.224 NA
HETATM   12  C7  UNL     1      26.347   2.950  49.733  1.00  0.00     0.229 C 
HETATM   13  N4  UNL     1      27.062   2.517  50.736  1.00  0.00    -0.278 NA
HETATM   14  C8  UNL     1      26.735   2.410  52.185  1.00  0.00     0.189 C 
HETATM   15  C9  UNL     1      25.419   1.808  52.305  1.00  0.00    -0.025 A 
HETATM   16  C10 UNL     1      25.429   0.806  53.325  1.00  0.00     0.018 A 
HETATM   17  C14 UNL     1      24.285   2.119  51.559  1.00  0.00     0.035 A 
HETATM   18  C11 UNL     1      24.136   0.338  53.309  1.00  0.00    -0.036 A 
HETATM   19  C12 UNL     1      23.024   0.353  52.877  1.00  0.00     0.051 A 
HETATM   20  O2  UNL     1      23.373  -0.669  54.075  1.00  0.00     0.000 OA
HETATM   21  C13 UNL     1      23.060   1.401  51.815  1.00  0.00     0.142 A 
HETATM   22  O3  UNL     1      21.843   0.470  52.315  1.00  0.00     0.000 OA
HETATM   23  C17 UNL     1      21.964  -0.712  53.594  1.00  0.00    -0.007 A 
HETATM   24  O1  UNL     1      21.774   1.480  51.208  1.00  0.00    -0.369 OA
HETATM   25  C15 UNL     1      20.721   0.628  51.722  1.00  0.00     0.181 A 
HETATM   26  C16 UNL     1      20.894  -0.318  52.775  1.00  0.00     0.013 A 
HETATM   27  C18 UNL     1      21.011  -1.678  54.281  1.00  0.00     0.018 C 
ENDBRANCH   7  10
TORSDOF 1
ENDMDL
MODEL 2
REMARK VINA RESULT:      -8.1      1.981      4.255
REMARK  1 active torsions:
REMARK  status: ('A' for Active; 'I' for Inactive)
REMARK    1  A    between atoms: N2_7  and  C6_8 
ROOT
HETATM    1  C1  UNL     1      23.942   7.165  48.200  1.00  0.00     0.043 C 
HETATM    2  C2  UNL     1      23.642   6.030  49.138  1.00  0.00    -0.083 C 
HETATM    3  C3  UNL     1      23.801   4.771  48.663  1.00  0.00     0.014 C 
HETATM    4  C4  UNL     1      23.521   3.559  49.541  1.00  0.00     0.202 C 
HETATM    5  C5  UNL     1      22.761   2.580  48.826  1.00  0.00     0.009 C 
HETATM    6  N1  UNL     1      22.114   1.732  48.236  1.00  0.00    -0.099 N 
HETATM    7  N2  UNL     1      22.734   4.017  50.678  1.00  0.00    -0.345 N 
HETATM    8  C19 UNL     1      23.348   5.159  51.387  1.00  0.00     0.130 C 
HETATM    9  C20 UNL     1      23.183   6.411  50.512  1.00  0.00     0.053 C 
ENDROOT
BRANCH   7  10
HETATM   10  C6  UNL     1      21.412   3.592  51.126  1.00  0.00     0.138 C 
HETATM   11  N3  UNL     1      20.258   4.148  51.102  1.00  0.00    -0.224 NA
HETATM   12  C7  UNL     1      18.979   3.637  51.577  1.00  0.00     0.229 C 
HETATM   13  N4  UNL     1      18.571   2.399  51.600  1.00  0.00    -0.278 NA
HETATM   14  C8  UNL     1      19.246   1.146  51.161  1.00  0.00     0.189 C 
HETATM   15  C9  UNL     1      20.602   1.161  51.681  1.00  0.00    -0.025 A 
HETATM   16  C10 UNL     1      20.930  -0.118  52.230  1.00  0.00     0.018 A 
HETATM   17  C14 UNL     1      21.488   2.234  51.677  1.00  0.00     0.035 A 
HETATM   18  C11 UNL     1      22.219   0.061  52.677  1.00  0.00    -0.036 A 
HETATM   19  C12 UNL     1      23.188   0.740  52.830  1.00  0.00     0.051 A 
HETATM   20  O2  UNL     1      23.233  -0.792  53.329  1.00  0.00     0.000 OA
HETATM   21  C13 UNL     1      22.800   2.062  52.253  1.00  0.00     0.142 A 
HETATM   22  O3  UNL     1      24.182   1.591  52.937  1.00  0.00     0.000 OA
HETATM   23  C17 UNL     1      24.482  -0.013  53.556  1.00  0.00    -0.007 A 
HETATM   24  O1  UNL     1      23.888   2.966  52.413  1.00  0.00    -0.369 OA
HETATM   25  C15 UNL     1      25.108   2.470  53.017  1.00  0.00     0.181 A 
HETATM   26  C16 UNL     1      25.282   1.139  53.500  1.00  0.00     0.013 A 
HETATM   27  C18 UNL     1      25.658  -0.731  54.200  1.00  0.00     0.018 C 
ENDBRANCH   7  10
TORSDOF 1
ENDMDL
MODEL 3
REMARK VINA RESULT:      -7.8      7.965     10.519
REMARK  1 active torsions:
REMARK  status: ('A' for Active; 'I' for Inactive)
REMARK    1  A    between atoms: N2_7  and  C6_8 
ROOT
HETATM    1  C1  UNL     1      29.417  14.068  47.148  1.00  0.00     0.043 C 
HETATM    2  C2  UNL     1      29.569  12.615  47.499  1.00  0.00    -0.083 C 
HETATM    3  C3  UNL     1      29.534  11.722  46.482  1.00  0.00     0.014 C 
HETATM    4  C4  UNL     1      29.680  10.228  46.742  1.00  0.00     0.202 C 
HETATM    5  C5  UNL     1      28.707   9.487  46.001  1.00  0.00     0.009 C 
HETATM    6  N1  UNL     1      27.887   8.835  45.377  1.00  0.00    -0.099 N 
HETATM    7  N2  UNL     1      29.446  10.009  48.163  1.00  0.00    -0.345 N 
HETATM    8  C19 UNL     1      30.282  10.867  49.029  1.00  0.00     0.130 C 
HETATM    9  C20 UNL     1      29.734  12.300  48.954  1.00  0.00     0.053 C 
ENDROOT
BRANCH   7  10
HETATM   10  C6  UNL     1      28.452   9.170  48.824  1.00  0.00     0.138 C 
HETATM   11  N3  UNL     1      27.379   9.431  49.475  1.00  0.00    -0.224 NA
HETATM   12  C7  UNL     1      26.438   8.514  50.103  1.00  0.00     0.229 C 
HETATM   13  N4  UNL     1      26.115   7.310  49.719  1.00  0.00    -0.278 NA
HETATM   14  C8  UNL     1      26.578   6.507  48.552  1.00  0.00     0.189 C 
HETATM   15  C9  UNL     1      28.026   6.605  48.487  1.00  0.00    -0.025 A 
HETATM   16  C10 UNL     1      28.594   5.315  48.243  1.00  0.00     0.018 A 
HETATM   17  C14 UNL     1      28.794   7.756  48.638  1.00  0.00     0.035 A 
HETATM   18  C11 UNL     1      29.944   5.575  48.216  1.00  0.00    -0.036 A 
HETATM   19  C12 UNL     1      30.866   6.329  48.289  1.00  0.00     0.051 A 
HETATM   20  O2  UNL     1      31.164   4.772  47.994  1.00  0.00     0.000 OA
HETATM   21  C13 UNL     1      30.231   7.655  48.550  1.00  0.00     0.142 A 
HETATM   22  O3  UNL     1      31.786   7.260  48.391  1.00  0.00     0.000 OA
HETATM   23  C17 UNL     1      32.368   5.646  48.069  1.00  0.00    -0.007 A 
HETATM   24  O1  UNL     1      31.257   8.633  48.686  1.00  0.00    -0.369 OA
HETATM   25  C15 UNL     1      32.632   8.212  48.510  1.00  0.00     0.181 A 
HETATM   26  C16 UNL     1      33.034   6.869  48.246  1.00  0.00     0.013 A 
HETATM   27  C18 UNL     1      33.727   5.001  47.844  1.00  0.00     0.018 C 
ENDBRANCH   7  10
TORSDOF 1
ENDMDL
MODEL 4
REMARK VINA RESULT:      -7.8      1.848      3.018
REMARK  1 active torsions:
REMARK  status: ('A' for Active; 'I' for Inactive)
REMARK    1  A    between atoms: N2_7  and  C6_8 
ROOT
HETATM    1  C1  UNL     1      26.093   7.294  49.517  1.00  0.00     0.043 C 
HETATM    2  C2  UNL     1      25.408   5.986  49.801  1.00  0.00    -0.083 C 
HETATM    3  C3  UNL     1      24.504   5.963  50.808  1.00  0.00     0.014 C 
HETATM    4  C4  UNL     1      23.761   4.683  51.167  1.00  0.00     0.202 C 
HETATM    5  C5  UNL     1      23.740   4.489  52.584  1.00  0.00     0.009 C 
HETATM    6  N1  UNL     1      23.710   4.305  53.789  1.00  0.00    -0.099 N 
HETATM    7  N2  UNL     1      24.483   3.575  50.558  1.00  0.00    -0.345 N 
HETATM    8  C19 UNL     1      24.720   3.761  49.111  1.00  0.00     0.130 C 
HETATM    9  C20 UNL     1      25.810   4.829  48.938  1.00  0.00     0.053 C 
ENDROOT
BRANCH   7  10
HETATM   10  C6  UNL     1      25.084   2.401  51.182  1.00  0.00     0.138 C 
HETATM   11  N3  UNL     1      26.298   2.031  51.366  1.00  0.00    -0.224 NA
HETATM   12  C7  UNL     1      26.806   0.828  52.010  1.00  0.00     0.229 C 
HETATM   13  N4  UNL     1      26.274   0.164  52.999  1.00  0.00    -0.278 NA
HETATM   14  C8  UNL     1      25.024   0.409  53.771  1.00  0.00     0.189 C 
HETATM   15  C9  UNL     1      23.961   0.694  52.824  1.00  0.00    -0.025 A 
HETATM   16  C10 UNL     1      22.777  -0.024  53.186  1.00  0.00     0.018 A 
HETATM   17  C14 UNL     1      24.032   1.527  51.712  1.00  0.00     0.035 A 
HETATM   18  C11 UNL     1      21.885   0.343  52.206  1.00  0.00    -0.036 A 
HETATM   19  C12 UNL     1      21.607   0.955  51.220  1.00  0.00     0.051 A 
HETATM   20  O2  UNL     1      20.468   0.044  51.909  1.00  0.00     0.000 OA
HETATM   21  C13 UNL     1      22.866   1.679  50.875  1.00  0.00     0.142 A 
HETATM   22  O3  UNL     1      21.433   1.677  50.138  1.00  0.00     0.000 OA
HETATM   23  C17 UNL     1      20.041   0.775  50.685  1.00  0.00    -0.007 A 
HETATM   24  O1  UNL     1      22.650   2.426  49.682  1.00  0.00    -0.369 OA
HETATM   25  C15 UNL     1      21.330   2.395  49.084  1.00  0.00     0.181 A 
HETATM   26  C16 UNL     1      20.236   1.633  49.590  1.00  0.00     0.013 A 
HETATM   27  C18 UNL     1      18.599   0.612  50.229  1.00  0.00     0.018 C 
ENDBRANCH   7  10
TORSDOF 1
ENDMDL
MODEL 5
REMARK VINA RESULT:      -7.5      2.493      3.391
REMARK  1 active torsions:
REMARK  status: ('A' for Active; 'I' for Inactive)
REMARK    1  A    between atoms: N2_7  and  C6_8 
ROOT
HETATM    1  C1  UNL     1      15.702   3.589  50.414  1.00  0.00     0.043 C 
HETATM    2  C2  UNL     1      17.018   2.900  50.645  1.00  0.00    -0.083 C 
HETATM    3  C3  UNL     1      17.849   3.438  51.568  1.00  0.00     0.014 C 
HETATM    4  C4  UNL     1      19.203   2.809  51.869  1.00  0.00     0.202 C 
HETATM    5  C5  UNL     1      20.223   3.809  51.938  1.00  0.00     0.009 C 
HETATM    6  N1  UNL     1      21.109   4.644  52.002  1.00  0.00    -0.099 N 
HETATM    7  N2  UNL     1      19.515   1.903  50.772  1.00  0.00    -0.345 N 
HETATM    8  C19 UNL     1      18.435   0.932  50.495  1.00  0.00     0.130 C 
HETATM    9  C20 UNL     1      17.281   1.683  49.812  1.00  0.00     0.053 C 
ENDROOT
BRANCH   7  10
HETATM   10  C6  UNL     1      20.659   1.897  49.867  1.00  0.00     0.138 C 
HETATM   11  N3  UNL     1      20.784   2.123  48.611  1.00  0.00    -0.224 NA
HETATM   12  C7  UNL     1      21.983   2.096  47.786  1.00  0.00     0.229 C 
HETATM   13  N4  UNL     1      23.203   2.401  48.135  1.00  0.00    -0.278 NA
HETATM   14  C8  UNL     1      23.750   2.865  49.441  1.00  0.00     0.189 C 
HETATM   15  C9  UNL     1      23.205   2.015  50.484  1.00  0.00    -0.025 A 
HETATM   16  C10 UNL     1      24.237   1.636  51.398  1.00  0.00     0.018 A 
HETATM   17  C14 UNL     1      21.884   1.597  50.617  1.00  0.00     0.035 A 
HETATM   18  C11 UNL     1      23.570   0.844  52.303  1.00  0.00    -0.036 A 
HETATM   19  C12 UNL     1      22.573   0.325  52.704  1.00  0.00     0.051 A 
HETATM   20  O2  UNL     1      23.940   0.113  53.533  1.00  0.00     0.000 OA
HETATM   21  C13 UNL     1      21.528   0.739  51.721  1.00  0.00     0.142 A 
HETATM   22  O3  UNL     1      21.411  -0.186  53.036  1.00  0.00     0.000 OA
HETATM   23  C17 UNL     1      22.743  -0.567  54.099  1.00  0.00    -0.007 A 
HETATM   24  O1  UNL     1      20.290   0.143  52.095  1.00  0.00    -0.369 OA
HETATM   25  C15 UNL     1      20.252  -0.660  53.300  1.00  0.00     0.181 A 
HETATM   26  C16 UNL     1      21.386  -0.928  54.123  1.00  0.00     0.013 A 
HETATM   27  C18 UNL     1      22.919  -1.357  55.387  1.00  0.00     0.018 C 
ENDBRANCH   7  10
TORSDOF 1
ENDMDL
MODEL 6
REMARK VINA RESULT:      -7.5      3.758      6.289
REMARK  1 active torsions:
REMARK  status: ('A' for Active; 'I' for Inactive)
REMARK    1  A    between atoms: N2_7  and  C6_8 
ROOT
HETATM    1  C1  UNL     1      19.319   8.379  48.538  1.00  0.00     0.043 C 
HETATM    2  C2  UNL     1      20.668   7.766  48.791  1.00  0.00    -0.083 C 
HETATM    3  C3  UNL     1      21.132   6.884  47.873  1.00  0.00     0.014 C 
HETATM    4  C4  UNL     1      22.488   6.213  48.044  1.00  0.00     0.202 C 
HETATM    5  C5  UNL     1      22.400   4.813  47.763  1.00  0.00     0.009 C 
HETATM    6  N1  UNL     1      22.348   3.618  47.527  1.00  0.00    -0.099 N 
HETATM    7  N2  UNL     1      22.885   6.382  49.435  1.00  0.00    -0.345 N 
HETATM    8  C19 UNL     1      22.836   7.789  49.887  1.00  0.00     0.130 C 
HETATM    9  C20 UNL     1      21.361   8.188  50.049  1.00  0.00     0.053 C 
ENDROOT
BRANCH   7  10
HETATM   10  C6  UNL     1      23.203   5.374  50.442  1.00  0.00     0.138 C 
HETATM   11  N3  UNL     1      22.571   4.927  51.463  1.00  0.00    -0.224 NA
HETATM   12  C7  UNL     1      22.973   3.905  52.419  1.00  0.00     0.229 C 
HETATM   13  N4  UNL     1      23.712   2.852  52.202  1.00  0.00    -0.278 NA
HETATM   14  C8  UNL     1      24.359   2.362  50.953  1.00  0.00     0.189 C 
HETATM   15  C9  UNL     1      25.020   3.488  50.319  1.00  0.00    -0.025 A 
HETATM   16  C10 UNL     1      26.325   3.106  49.878  1.00  0.00     0.018 A 
HETATM   17  C14 UNL     1      24.506   4.770  50.145  1.00  0.00     0.035 A 
HETATM   18  C11 UNL     1      26.811   4.264  49.315  1.00  0.00    -0.036 A 
HETATM   19  C12 UNL     1      26.687   5.410  49.012  1.00  0.00     0.051 A 
HETATM   20  O2  UNL     1      28.061   4.656  48.633  1.00  0.00     0.000 OA
HETATM   21  C13 UNL     1      25.320   5.769  49.495  1.00  0.00     0.142 A 
HETATM   22  O3  UNL     1      26.422   6.666  48.735  1.00  0.00     0.000 OA
HETATM   23  C17 UNL     1      27.986   6.085  48.219  1.00  0.00    -0.007 A 
HETATM   24  O1  UNL     1      25.080   7.142  49.206  1.00  0.00    -0.369 OA
HETATM   25  C15 UNL     1      26.106   7.884  48.502  1.00  0.00     0.181 A 
HETATM   26  C16 UNL     1      27.365   7.339  48.109  1.00  0.00     0.013 A 
HETATM   27  C18 UNL     1      29.177   6.671  47.477  1.00  0.00     0.018 C 
ENDBRANCH   7  10
TORSDOF 1
ENDMDL
MODEL 7
REMARK VINA RESULT:      -7.4      7.239      9.116
REMARK  1 active torsions:
REMARK  status: ('A' for Active; 'I' for Inactive)
REMARK    1  A    between atoms: N2_7  and  C6_8 
ROOT
HETATM    1  C1  UNL     1      27.900  13.989  47.648  1.00  0.00     0.043 C 
HETATM    2  C2  UNL     1      27.989  12.489  47.595  1.00  0.00    -0.083 C 
HETATM    3  C3  UNL     1      28.443  11.854  48.701  1.00  0.00     0.014 C 
HETATM    4  C4  UNL     1      28.567  10.337  48.740  1.00  0.00     0.202 C 
HETATM    5  C5  UNL     1      29.818   9.944  49.312  1.00  0.00     0.009 C 
HETATM    6  N1  UNL     1      30.878   9.588  49.797  1.00  0.00    -0.099 N 
HETATM    7  N2  UNL     1      28.517   9.860  47.364  1.00  0.00    -0.345 N 
HETATM    8  C19 UNL     1      27.342  10.360  46.619  1.00  0.00     0.130 C 
HETATM    9  C20 UNL     1      27.572  11.847  46.307  1.00  0.00     0.053 C 
ENDROOT
BRANCH   7  10
HETATM   10  C6  UNL     1      29.493   9.077  46.614  1.00  0.00     0.138 C 
HETATM   11  N3  UNL     1      30.312   9.368  45.672  1.00  0.00    -0.224 NA
HETATM   12  C7  UNL     1      31.262   8.508  44.980  1.00  0.00     0.229 C 
HETATM   13  N4  UNL     1      31.912   7.484  45.459  1.00  0.00    -0.278 NA
HETATM   14  C8  UNL     1      31.904   6.881  46.822  1.00  0.00     0.189 C 
HETATM   15  C9  UNL     1      30.521   6.749  47.245  1.00  0.00    -0.025 A 
HETATM   16  C10 UNL     1      30.310   5.464  47.837  1.00  0.00     0.018 A 
HETATM   17  C14 UNL     1      29.511   7.697  47.113  1.00  0.00     0.035 A 
HETATM   18  C11 UNL     1      28.977   5.496  48.173  1.00  0.00    -0.036 A 
HETATM   19  C12 UNL     1      27.923   6.053  48.220  1.00  0.00     0.051 A 
HETATM   20  O2  UNL     1      28.037   4.567  48.834  1.00  0.00     0.000 OA
HETATM   21  C13 UNL     1      28.186   7.380  47.588  1.00  0.00     0.142 A 
HETATM   22  O3  UNL     1      26.827   6.775  48.209  1.00  0.00     0.000 OA
HETATM   23  C17 UNL     1      26.690   5.192  48.933  1.00  0.00    -0.007 A 
HETATM   24  O1  UNL     1      26.971   8.123  47.566  1.00  0.00    -0.369 OA
HETATM   25  C15 UNL     1      25.792   7.526  48.161  1.00  0.00     0.181 A 
HETATM   26  C16 UNL     1      25.755   6.222  48.737  1.00  0.00     0.013 A 
HETATM   27  C18 UNL     1      25.585   4.393  49.608  1.00  0.00     0.018 C 
ENDBRANCH   7  10
TORSDOF 1
ENDMDL
MODEL 8
REMARK VINA RESULT:      -7.4      2.551      5.767
REMARK  1 active torsions:
REMARK  status: ('A' for Active; 'I' for Inactive)
REMARK    1  A    between atoms: N2_7  and  C6_8 
ROOT
HETATM    1  C1  UNL     1      19.241   0.067  51.703  1.00  0.00     0.043 C 
HETATM    2  C2  UNL     1      20.188   1.204  51.435  1.00  0.00    -0.083 C 
HETATM    3  C3  UNL     1      20.391   1.553  50.142  1.00  0.00     0.014 C 
HETATM    4  C4  UNL     1      21.333   2.691  49.775  1.00  0.00     0.202 C 
HETATM    5  C5  UNL     1      22.181   2.318  48.685  1.00  0.00     0.009 C 
HETATM    6  N1  UNL     1      22.913   2.020  47.758  1.00  0.00    -0.099 N 
HETATM    7  N2  UNL     1      22.165   2.962  50.939  1.00  0.00    -0.345 N 
HETATM    8  C19 UNL     1      21.383   3.186  52.173  1.00  0.00     0.130 C 
HETATM    9  C20 UNL     1      20.823   1.833  52.637  1.00  0.00     0.053 C 
ENDROOT
BRANCH   7  10
HETATM   10  C6  UNL     1      23.618   2.928  51.072  1.00  0.00     0.138 C 
HETATM   11  N3  UNL     1      24.425   2.119  51.652  1.00  0.00    -0.224 NA
HETATM   12  C7  UNL     1      25.879   2.168  51.729  1.00  0.00     0.229 C 
HETATM   13  N4  UNL     1      26.713   2.633  50.840  1.00  0.00    -0.278 NA
HETATM   14  C8  UNL     1      26.466   3.240  49.503  1.00  0.00     0.189 C 
HETATM   15  C9  UNL     1      25.399   4.215  49.642  1.00  0.00    -0.025 A 
HETATM   16  C10 UNL     1      25.736   5.415  48.941  1.00  0.00     0.018 A 
HETATM   17  C14 UNL     1      24.209   4.057  50.346  1.00  0.00     0.035 A 
HETATM   18  C11 UNL     1      24.647   6.222  49.172  1.00  0.00    -0.036 A 
HETATM   19  C12 UNL     1      23.574   6.417  49.656  1.00  0.00     0.051 A 
HETATM   20  O2  UNL     1      24.244   7.584  48.767  1.00  0.00     0.000 OA
HETATM   21  C13 UNL     1      23.266   5.149  50.381  1.00  0.00     0.142 A 
HETATM   22  O3  UNL     1      22.402   6.503  50.240  1.00  0.00     0.000 OA
HETATM   23  C17 UNL     1      22.905   7.907  49.333  1.00  0.00    -0.007 A 
HETATM   24  O1  UNL     1      22.004   5.289  51.027  1.00  0.00    -0.369 OA
HETATM   25  C15 UNL     1      21.272   6.525  50.840  1.00  0.00     0.181 A 
HETATM   26  C16 UNL     1      21.748   7.634  50.080  1.00  0.00     0.013 A 
HETATM   27  C18 UNL     1      22.307   9.267  49.006  1.00  0.00     0.018 C 
ENDBRANCH   7  10
TORSDOF 1
ENDMDL
MODEL 9
REMARK VINA RESULT:      -7.2      2.066      4.697
REMARK  1 active torsions:
REMARK  status: ('A' for Active; 'I' for Inactive)
REMARK    1  A    between atoms: N2_7  and  C6_8 
ROOT
HETATM    1  C1  UNL     1      26.226   5.335  49.011  1.00  0.00     0.043 C 
HETATM    2  C2  UNL     1      25.040   4.660  49.641  1.00  0.00    -0.083 C 
HETATM    3  C3  UNL     1      24.651   3.472  49.121  1.00  0.00     0.014 C 
HETATM    4  C4  UNL     1      23.461   2.715  49.694  1.00  0.00     0.202 C 
HETATM    5  C5  UNL     1      22.616   2.229  48.647  1.00  0.00     0.009 C 
HETATM    6  N1  UNL     1      21.882   1.806  47.771  1.00  0.00    -0.099 N 
HETATM    7  N2  UNL     1      22.699   3.653  50.508  1.00  0.00    -0.345 N 
HETATM    8  C19 UNL     1      23.525   4.352  51.515  1.00  0.00     0.130 C 
HETATM    9  C20 UNL     1      24.399   5.384  50.785  1.00  0.00     0.053 C 
ENDROOT
BRANCH   7  10
HETATM   10  C6  UNL     1      21.305   4.067  50.391  1.00  0.00     0.138 C 
HETATM   11  N3  UNL     1      20.743   5.156  50.018  1.00  0.00    -0.224 NA
HETATM   12  C7  UNL     1      19.325   5.478  49.931  1.00  0.00     0.229 C 
HETATM   13  N4  UNL     1      18.337   4.673  49.653  1.00  0.00    -0.278 NA
HETATM   14  C8  UNL     1      18.331   3.217  49.338  1.00  0.00     0.189 C 
HETATM   15  C9  UNL     1      19.172   2.544  50.312  1.00  0.00    -0.025 A 
HETATM   16  C10 UNL     1      18.525   1.358  50.782  1.00  0.00     0.018 A 
HETATM   17  C14 UNL     1      20.425   2.953  50.760  1.00  0.00     0.035 A 
HETATM   18  C11 UNL     1      19.432   0.851  51.684  1.00  0.00    -0.036 A 
HETATM   19  C12 UNL     1      20.475   0.903  52.259  1.00  0.00     0.051 A 
HETATM   20  O2  UNL     1      19.496  -0.345  52.549  1.00  0.00     0.000 OA
HETATM   21  C13 UNL     1      21.110   2.154  51.747  1.00  0.00     0.142 A 
HETATM   22  O3  UNL     1      21.648   1.080  52.822  1.00  0.00     0.000 OA
HETATM   23  C17 UNL     1      20.778  -0.355  53.306  1.00  0.00    -0.007 A 
HETATM   24  O1  UNL     1      22.364   2.329  52.400  1.00  0.00    -0.369 OA
HETATM   25  C15 UNL     1      22.795   1.313  53.340  1.00  0.00     0.181 A 
HETATM   26  C16 UNL     1      22.028   0.162  53.686  1.00  0.00     0.013 A 
HETATM   27  C18 UNL     1      21.041  -1.527  54.240  1.00  0.00     0.018 C 
ENDBRANCH   7  10
TORSDOF 1
ENDMDL
