MODEL 1
REMARK VINA RESULT:      -7.9      0.000      0.000
REMARK  7 active torsions:
REMARK  status: ('A' for Active; 'I' for Inactive)
REMARK    1  A    between atoms: O1_2  and  C2_3 
REMARK    2  A    between atoms: C3_4  and  C4_5 
REMARK    3  A    between atoms: C7_9  and  N1_10 
REMARK    4  A    between atoms: N1_10  and  C8_11 
REMARK    5  A    between atoms: C11_16  and  N4_17 
REMARK    6  A    between atoms: N4_17  and  C12_18 
REMARK    7  A    between atoms: C18_25  and  O2_26 
ROOT
HETATM    1  C8  UNL     1      23.317   5.455  51.584  1.00  0.00     0.096 A 
HETATM    2  C9  UNL     1      22.261   6.035  50.923  1.00  0.00     0.151 A 
HETATM    3  N2  UNL     1      21.062   5.457  50.964  1.00  0.00    -0.252 NA
HETATM    4  C10 UNL     1      20.911   4.324  51.646  1.00  0.00     0.235 A 
HETATM    5  N3  UNL     1      21.961   3.784  52.280  1.00  0.00    -0.222 NA
HETATM    6  C11 UNL     1      23.205   4.284  52.301  1.00  0.00     0.157 A 
ENDROOT
BRANCH   1   7
HETATM    7  N1  UNL     1      24.552   6.135  51.488  1.00  0.00    -0.353 N 
HETATM    8  H10 UNL     1      25.158   6.684  52.118  1.00  0.00     0.166 HD
BRANCH   7   9
HETATM    9  C7  UNL     1      25.287   6.171  50.271  1.00  0.00     0.045 C 
HETATM   10  C6  UNL     1      25.229   5.040  49.297  1.00  0.00     0.087 C 
HETATM   11  C5  UNL     1      26.658   4.678  49.002  1.00  0.00    -0.014 C 
HETATM   12  C3  UNL     1      27.418   5.711  48.650  1.00  0.00    -0.035 C 
HETATM   13  C2  UNL     1      26.760   7.051  48.598  1.00  0.00     0.209 C 
HETATM   14  C18 UNL     1      26.067   7.195  49.915  1.00  0.00     0.099 C 
BRANCH  12  15
HETATM   15  C4  UNL     1      28.875   5.636  48.303  1.00  0.00     0.151 C 
HETATM   16 CL1  UNL     1      29.345   7.036  47.327  1.00  0.00    -0.126 Cl
ENDBRANCH  12  15
BRANCH  13  17
HETATM   17  O1  UNL     1      25.876   7.108  47.530  1.00  0.00    -0.380 OA
HETATM   18  C1  UNL     1      25.844   8.423  47.013  1.00  0.00     0.202 C 
ENDBRANCH  13  17
BRANCH  14  19
HETATM   19  O2  UNL     1      26.155   8.274  50.788  1.00  0.00    -0.360 OA
HETATM   20  H18 UNL     1      25.699   8.332  51.680  1.00  0.00     0.217 HD
ENDBRANCH  14  19
ENDBRANCH   7   9
ENDBRANCH   1   7
BRANCH   6  21
HETATM   21  N4  UNL     1      24.329   3.734  52.960  1.00  0.00    -0.339 N 
HETATM   22  H13 UNL     1      24.759   4.323  53.707  1.00  0.00     0.167 HD
BRANCH  21  23
HETATM   23  C12 UNL     1      24.945   2.476  52.731  1.00  0.00     0.033 A 
HETATM   24  C13 UNL     1      26.060   2.380  51.899  1.00  0.00     0.032 A 
HETATM   25  C14 UNL     1      26.691   1.186  51.646  1.00  0.00     0.044 A 
HETATM   26  C15 UNL     1      26.240   0.015  52.215  1.00  0.00     0.116 A 
HETATM   27  F1  UNL     1      26.862  -1.162  51.967  1.00  0.00    -0.206 F 
HETATM   28  C16 UNL     1      25.141   0.063  53.046  1.00  0.00     0.044 A 
HETATM   29  C17 UNL     1      24.545   1.283  53.266  1.00  0.00     0.032 A 
ENDBRANCH  21  23
ENDBRANCH   6  21
TORSDOF 7
ENDMDL
MODEL 2
REMARK VINA RESULT:      -7.8      4.297      7.110
REMARK  7 active torsions:
REMARK  status: ('A' for Active; 'I' for Inactive)
REMARK    1  A    between atoms: O1_2  and  C2_3 
REMARK    2  A    between atoms: C3_4  and  C4_5 
REMARK    3  A    between atoms: C7_9  and  N1_10 
REMARK    4  A    between atoms: N1_10  and  C8_11 
REMARK    5  A    between atoms: C11_16  and  N4_17 
REMARK    6  A    between atoms: N4_17  and  C12_18 
REMARK    7  A    between atoms: C18_25  and  O2_26 
ROOT
HETATM    1  C8  UNL     1      25.068   3.364  51.515  1.00  0.00     0.096 A 
HETATM    2  C9  UNL     1      24.167   3.290  52.550  1.00  0.00     0.151 A 
HETATM    3  N2  UNL     1      22.925   3.740  52.374  1.00  0.00    -0.252 NA
HETATM    4  C10 UNL     1      22.583   4.256  51.196  1.00  0.00     0.235 A 
HETATM    5  N3  UNL     1      23.485   4.314  50.207  1.00  0.00    -0.222 NA
HETATM    6  C11 UNL     1      24.756   3.890  50.281  1.00  0.00     0.157 A 
ENDROOT
BRANCH   1   7
HETATM    7  N1  UNL     1      26.360   2.864  51.788  1.00  0.00    -0.353 N 
HETATM    8  H10 UNL     1      27.333   3.147  51.591  1.00  0.00     0.166 HD
BRANCH   7   9
HETATM    9  C7  UNL     1      26.551   1.658  52.518  1.00  0.00     0.045 C 
HETATM   10  C6  UNL     1      26.034   0.353  52.007  1.00  0.00     0.087 C 
HETATM   11  C5  UNL     1      25.243  -0.247  53.136  1.00  0.00    -0.014 C 
HETATM   12  C3  UNL     1      25.900  -0.294  54.292  1.00  0.00    -0.035 C 
HETATM   13  C2  UNL     1      27.293   0.243  54.305  1.00  0.00     0.209 C 
HETATM   14  C18 UNL     1      27.192   1.601  53.688  1.00  0.00     0.099 C 
BRANCH  12  15
HETATM   15  C4  UNL     1      25.352  -0.839  55.577  1.00  0.00     0.151 C 
HETATM   16 CL1  UNL     1      23.633  -1.221  55.396  1.00  0.00    -0.126 Cl
ENDBRANCH  12  15
BRANCH  13  17
HETATM   17  O1  UNL     1      28.135  -0.597  53.588  1.00  0.00    -0.380 OA
HETATM   18  C1  UNL     1      29.479  -0.317  53.924  1.00  0.00     0.202 C 
ENDBRANCH  13  17
BRANCH  14  19
HETATM   19  O2  UNL     1      27.693   2.790  54.208  1.00  0.00    -0.360 OA
HETATM   20  H18 UNL     1      27.450   3.176  55.101  1.00  0.00     0.217 HD
ENDBRANCH  14  19
ENDBRANCH   7   9
ENDBRANCH   1   7
BRANCH   6  21
HETATM   21  N4  UNL     1      25.727   3.940  49.254  1.00  0.00    -0.339 N 
HETATM   22  H13 UNL     1      25.833   3.076  48.678  1.00  0.00     0.167 HD
BRANCH  21  23
HETATM   23  C12 UNL     1      26.575   5.024  48.909  1.00  0.00     0.033 A 
HETATM   24  C13 UNL     1      27.910   4.794  48.575  1.00  0.00     0.032 A 
HETATM   25  C14 UNL     1      28.771   5.808  48.234  1.00  0.00     0.044 A 
HETATM   26  C15 UNL     1      28.343   7.118  48.207  1.00  0.00     0.116 A 
HETATM   27  F1  UNL     1      29.191   8.119  47.871  1.00  0.00    -0.206 F 
HETATM   28  C16 UNL     1      27.031   7.393  48.529  1.00  0.00     0.044 A 
HETATM   29  C17 UNL     1      26.210   6.341  48.864  1.00  0.00     0.032 A 
ENDBRANCH  21  23
ENDBRANCH   6  21
TORSDOF 7
ENDMDL
MODEL 3
REMARK VINA RESULT:      -7.7      2.050      2.661
REMARK  7 active torsions:
REMARK  status: ('A' for Active; 'I' for Inactive)
REMARK    1  A    between atoms: O1_2  and  C2_3 
REMARK    2  A    between atoms: C3_4  and  C4_5 
REMARK    3  A    between atoms: C7_9  and  N1_10 
REMARK    4  A    between atoms: N1_10  and  C8_11 
REMARK    5  A    between atoms: C11_16  and  N4_17 
REMARK    6  A    between atoms: N4_17  and  C12_18 
REMARK    7  A    between atoms: C18_25  and  O2_26 
ROOT
HETATM    1  C8  UNL     1      23.757   3.193  52.490  1.00  0.00     0.096 A 
HETATM    2  C9  UNL     1      22.421   2.970  52.259  1.00  0.00     0.151 A 
HETATM    3  N2  UNL     1      21.913   1.755  52.463  1.00  0.00    -0.252 NA
HETATM    4  C10 UNL     1      22.712   0.780  52.887  1.00  0.00     0.235 A 
HETATM    5  N3  UNL     1      24.011   1.031  53.104  1.00  0.00    -0.222 NA
HETATM    6  C11 UNL     1      24.619   2.213  52.930  1.00  0.00     0.157 A 
ENDROOT
BRANCH   1   7
HETATM    7  N1  UNL     1      24.211   4.509  52.249  1.00  0.00    -0.353 N 
HETATM    8  H10 UNL     1      24.378   5.360  52.808  1.00  0.00     0.166 HD
BRANCH   7   9
HETATM    9  C7  UNL     1      24.576   4.941  50.944  1.00  0.00     0.045 C 
HETATM   10  C6  UNL     1      24.950   3.962  49.880  1.00  0.00     0.087 C 
HETATM   11  C5  UNL     1      26.271   4.430  49.335  1.00  0.00    -0.014 C 
HETATM   12  C3  UNL     1      26.285   5.711  48.978  1.00  0.00    -0.035 C 
HETATM   13  C2  UNL     1      25.020   6.483  49.164  1.00  0.00     0.209 C 
HETATM   14  C18 UNL     1      24.613   6.225  50.579  1.00  0.00     0.099 C 
BRANCH  12  15
HETATM   15  C4  UNL     1      27.466   6.437  48.406  1.00  0.00     0.151 C 
HETATM   16 CL1  UNL     1      28.838   5.332  48.231  1.00  0.00    -0.126 Cl
ENDBRANCH  12  15
BRANCH  13  17
HETATM   17  O1  UNL     1      24.062   6.057  48.255  1.00  0.00    -0.380 OA
HETATM   18  C1  UNL     1      23.706   7.129  47.406  1.00  0.00     0.202 C 
ENDBRANCH  13  17
BRANCH  14  19
HETATM   19  O2  UNL     1      24.273   7.177  51.534  1.00  0.00    -0.360 OA
HETATM   20  H18 UNL     1      24.882   7.903  51.867  1.00  0.00     0.217 HD
ENDBRANCH  14  19
ENDBRANCH   7   9
ENDBRANCH   1   7
BRANCH   6  21
HETATM   21  N4  UNL     1      25.986   2.504  53.149  1.00  0.00    -0.339 N 
HETATM   22  H13 UNL     1      26.238   3.515  53.206  1.00  0.00     0.167 HD
BRANCH  21  23
HETATM   23  C12 UNL     1      27.059   1.587  53.303  1.00  0.00     0.033 A 
HETATM   24  C13 UNL     1      28.277   2.014  53.831  1.00  0.00     0.032 A 
HETATM   25  C14 UNL     1      29.345   1.166  54.000  1.00  0.00     0.044 A 
HETATM   26  C15 UNL     1      29.253  -0.163  53.650  1.00  0.00     0.116 A 
HETATM   27  F1  UNL     1      30.305  -1.000  53.816  1.00  0.00    -0.206 F 
HETATM   28  C16 UNL     1      28.067  -0.629  53.124  1.00  0.00     0.044 A 
HETATM   29  C17 UNL     1      27.028   0.261  52.975  1.00  0.00     0.032 A 
ENDBRANCH  21  23
ENDBRANCH   6  21
TORSDOF 7
ENDMDL
MODEL 4
REMARK VINA RESULT:      -7.6      4.098      6.126
REMARK  7 active torsions:
REMARK  status: ('A' for Active; 'I' for Inactive)
REMARK    1  A    between atoms: O1_2  and  C2_3 
REMARK    2  A    between atoms: C3_4  and  C4_5 
REMARK    3  A    between atoms: C7_9  and  N1_10 
REMARK    4  A    between atoms: N1_10  and  C8_11 
REMARK    5  A    between atoms: C11_16  and  N4_17 
REMARK    6  A    between atoms: N4_17  and  C12_18 
REMARK    7  A    between atoms: C18_25  and  O2_26 
ROOT
HETATM    1  C8  UNL     1      27.270   1.351  52.875  1.00  0.00     0.096 A 
HETATM    2  C9  UNL     1      28.244   2.216  53.311  1.00  0.00     0.151 A 
HETATM    3  N2  UNL     1      28.987   1.890  54.367  1.00  0.00    -0.252 NA
HETATM    4  C10 UNL     1      28.769   0.730  54.981  1.00  0.00     0.235 A 
HETATM    5  N3  UNL     1      27.811  -0.092  54.530  1.00  0.00    -0.222 NA
HETATM    6  C11 UNL     1      27.011   0.141  53.479  1.00  0.00     0.157 A 
ENDROOT
BRANCH   1   7
HETATM    7  N1  UNL     1      26.529   1.776  51.748  1.00  0.00    -0.353 N 
HETATM    8  H10 UNL     1      26.562   1.625  50.728  1.00  0.00     0.166 HD
BRANCH   7   9
HETATM    9  C7  UNL     1      25.411   2.645  51.879  1.00  0.00     0.045 C 
HETATM   10  C6  UNL     1      24.737   2.848  53.197  1.00  0.00     0.087 C 
HETATM   11  C5  UNL     1      23.274   2.608  52.952  1.00  0.00    -0.014 C 
HETATM   12  C3  UNL     1      22.775   3.299  51.931  1.00  0.00    -0.035 C 
HETATM   13  C2  UNL     1      23.715   4.193  51.191  1.00  0.00     0.209 C 
HETATM   14  C18 UNL     1      24.890   3.330  50.858  1.00  0.00     0.099 C 
BRANCH  12  15
HETATM   15  C4  UNL     1      21.350   3.250  51.467  1.00  0.00     0.151 C 
HETATM   16 CL1  UNL     1      20.340   2.440  52.674  1.00  0.00    -0.126 Cl
ENDBRANCH  12  15
BRANCH  13  17
HETATM   17  O1  UNL     1      24.068   5.276  51.984  1.00  0.00    -0.380 OA
HETATM   18  C1  UNL     1      24.062   6.454  51.203  1.00  0.00     0.202 C 
ENDBRANCH  13  17
BRANCH  14  19
HETATM   19  O2  UNL     1      25.481   3.175  49.609  1.00  0.00    -0.360 OA
HETATM   20  H18 UNL     1      25.332   2.398  48.992  1.00  0.00     0.217 HD
ENDBRANCH  14  19
ENDBRANCH   7   9
ENDBRANCH   1   7
BRANCH   6  21
HETATM   21  N4  UNL     1      25.993  -0.708  52.984  1.00  0.00    -0.339 N 
HETATM   22  H13 UNL     1      26.249  -1.305  52.168  1.00  0.00     0.167 HD
BRANCH  21  23
HETATM   23  C12 UNL     1      24.664  -0.847  53.463  1.00  0.00     0.033 A 
HETATM   24  C13 UNL     1      24.425  -1.061  54.821  1.00  0.00     0.032 A 
HETATM   25  C14 UNL     1      23.159  -1.203  55.333  1.00  0.00     0.044 A 
HETATM   26  C15 UNL     1      22.054  -1.137  54.512  1.00  0.00     0.116 A 
HETATM   27  F1  UNL     1      20.805  -1.276  55.017  1.00  0.00    -0.206 F 
HETATM   28  C16 UNL     1      22.243  -0.926  53.164  1.00  0.00     0.044 A 
HETATM   29  C17 UNL     1      23.532  -0.791  52.700  1.00  0.00     0.032 A 
ENDBRANCH  21  23
ENDBRANCH   6  21
TORSDOF 7
ENDMDL
MODEL 5
REMARK VINA RESULT:      -7.6      3.251      4.961
REMARK  7 active torsions:
REMARK  status: ('A' for Active; 'I' for Inactive)
REMARK    1  A    between atoms: O1_2  and  C2_3 
REMARK    2  A    between atoms: C3_4  and  C4_5 
REMARK    3  A    between atoms: C7_9  and  N1_10 
REMARK    4  A    between atoms: N1_10  and  C8_11 
REMARK    5  A    between atoms: C11_16  and  N4_17 
REMARK    6  A    between atoms: N4_17  and  C12_18 
REMARK    7  A    between atoms: C18_25  and  O2_26 
ROOT
HETATM    1  C8  UNL     1      26.204   1.236  52.705  1.00  0.00     0.096 A 
HETATM    2  C9  UNL     1      27.415   0.604  52.556  1.00  0.00     0.151 A 
HETATM    3  N2  UNL     1      27.500  -0.710  52.758  1.00  0.00    -0.252 NA
HETATM    4  C10 UNL     1      26.406  -1.386  53.103  1.00  0.00     0.235 A 
HETATM    5  N3  UNL     1      25.240  -0.739  53.240  1.00  0.00    -0.222 NA
HETATM    6  C11 UNL     1      25.048   0.576  53.060  1.00  0.00     0.157 A 
ENDROOT
BRANCH   1   7
HETATM    7  N1  UNL     1      26.205   2.629  52.471  1.00  0.00    -0.353 N 
HETATM    8  H10 UNL     1      26.454   3.480  53.001  1.00  0.00     0.166 HD
BRANCH   7   9
HETATM    9  C7  UNL     1      25.779   3.174  51.228  1.00  0.00     0.045 C 
HETATM   10  C6  UNL     1      26.475   2.828  49.952  1.00  0.00     0.087 C 
HETATM   11  C5  UNL     1      26.800   4.139  49.292  1.00  0.00    -0.014 C 
HETATM   12  C3  UNL     1      25.761   4.963  49.184  1.00  0.00    -0.035 C 
HETATM   13  C2  UNL     1      24.453   4.482  49.720  1.00  0.00     0.209 C 
HETATM   14  C18 UNL     1      24.751   4.017  51.109  1.00  0.00     0.099 C 
BRANCH  12  15
HETATM   15  C4  UNL     1      25.802   6.331  48.570  1.00  0.00     0.151 C 
HETATM   16 CL1  UNL     1      27.464   6.757  48.133  1.00  0.00    -0.126 Cl
ENDBRANCH  12  15
BRANCH  13  17
HETATM   17  O1  UNL     1      23.955   3.463  48.920  1.00  0.00    -0.380 OA
HETATM   18  C1  UNL     1      22.573   3.665  48.704  1.00  0.00     0.202 C 
ENDBRANCH  13  17
BRANCH  14  19
HETATM   19  O2  UNL     1      24.069   4.371  52.269  1.00  0.00    -0.360 OA
HETATM   20  H18 UNL     1      23.272   3.887  52.640  1.00  0.00     0.217 HD
ENDBRANCH  14  19
ENDBRANCH   7   9
ENDBRANCH   1   7
BRANCH   6  21
HETATM   21  N4  UNL     1      23.831   1.282  53.199  1.00  0.00    -0.339 N 
HETATM   22  H13 UNL     1      23.871   2.164  53.756  1.00  0.00     0.167 HD
BRANCH  21  23
HETATM   23  C12 UNL     1      22.558   0.938  52.673  1.00  0.00     0.033 A 
HETATM   24  C13 UNL     1      22.318   1.020  51.302  1.00  0.00     0.032 A 
HETATM   25  C14 UNL     1      21.105   0.699  50.744  1.00  0.00     0.044 A 
HETATM   26  C15 UNL     1      20.057   0.274  51.532  1.00  0.00     0.116 A 
HETATM   27  F1  UNL     1      18.860  -0.043  50.983  1.00  0.00    -0.206 F 
HETATM   28  C16 UNL     1      20.248   0.177  52.893  1.00  0.00     0.044 A 
HETATM   29  C17 UNL     1      21.483   0.512  53.402  1.00  0.00     0.032 A 
ENDBRANCH  21  23
ENDBRANCH   6  21
TORSDOF 7
ENDMDL
MODEL 6
REMARK VINA RESULT:      -7.4      4.398      7.030
REMARK  7 active torsions:
REMARK  status: ('A' for Active; 'I' for Inactive)
REMARK    1  A    between atoms: O1_2  and  C2_3 
REMARK    2  A    between atoms: C3_4  and  C4_5 
REMARK    3  A    between atoms: C7_9  and  N1_10 
REMARK    4  A    between atoms: N1_10  and  C8_11 
REMARK    5  A    between atoms: C11_16  and  N4_17 
REMARK    6  A    between atoms: N4_17  and  C12_18 
REMARK    7  A    between atoms: C18_25  and  O2_26 
ROOT
HETATM    1  C8  UNL     1      22.745   1.718  51.178  1.00  0.00     0.096 A 
HETATM    2  C9  UNL     1      21.842   0.758  50.790  1.00  0.00     0.151 A 
HETATM    3  N2  UNL     1      21.428   0.719  49.525  1.00  0.00    -0.252 NA
HETATM    4  C10 UNL     1      21.899   1.613  48.660  1.00  0.00     0.235 A 
HETATM    5  N3  UNL     1      22.780   2.537  49.070  1.00  0.00    -0.222 NA
HETATM    6  C11 UNL     1      23.259   2.662  50.317  1.00  0.00     0.157 A 
ENDROOT
BRANCH   1   7
HETATM    7  N1  UNL     1      23.130   1.687  52.538  1.00  0.00    -0.353 N 
HETATM    8  H10 UNL     1      22.818   2.128  53.417  1.00  0.00     0.166 HD
BRANCH   7   9
HETATM    9  C7  UNL     1      24.217   0.885  52.984  1.00  0.00     0.045 C 
HETATM   10  C6  UNL     1      25.626   1.375  52.900  1.00  0.00     0.087 C 
HETATM   11  C5  UNL     1      26.398   0.290  52.201  1.00  0.00    -0.014 C 
HETATM   12  C3  UNL     1      26.232  -0.919  52.731  1.00  0.00    -0.035 C 
HETATM   13  C2  UNL     1      25.327  -1.025  53.914  1.00  0.00     0.209 C 
HETATM   14  C18 UNL     1      24.066  -0.337  53.500  1.00  0.00     0.099 C 
BRANCH  12  15
HETATM   15  C4  UNL     1      26.880  -2.177  52.235  1.00  0.00     0.151 C 
HETATM   16 CL1  UNL     1      28.492  -2.357  52.944  1.00  0.00    -0.126 Cl
ENDBRANCH  12  15
BRANCH  13  17
HETATM   17  O1  UNL     1      25.914  -0.425  55.020  1.00  0.00    -0.380 OA
HETATM   18  C1  UNL     1      25.237  -0.831  56.192  1.00  0.00     0.202 C 
ENDBRANCH  13  17
BRANCH  14  19
HETATM   19  O2  UNL     1      22.773  -0.839  53.600  1.00  0.00    -0.360 OA
HETATM   20  H18 UNL     1      22.238  -1.212  52.837  1.00  0.00     0.217 HD
ENDBRANCH  14  19
ENDBRANCH   7   9
ENDBRANCH   1   7
BRANCH   6  21
HETATM   21  N4  UNL     1      24.186   3.627  50.775  1.00  0.00    -0.339 N 
HETATM   22  H13 UNL     1      24.141   3.861  51.792  1.00  0.00     0.167 HD
BRANCH  21  23
HETATM   23  C12 UNL     1      25.172   4.315  50.023  1.00  0.00     0.033 A 
HETATM   24  C13 UNL     1      26.363   3.678  49.675  1.00  0.00     0.032 A 
HETATM   25  C14 UNL     1      27.348   4.301  48.948  1.00  0.00     0.044 A 
HETATM   26  C15 UNL     1      27.196   5.603  48.525  1.00  0.00     0.116 A 
HETATM   27  F1  UNL     1      28.167   6.219  47.808  1.00  0.00    -0.206 F 
HETATM   28  C16 UNL     1      26.035   6.273  48.846  1.00  0.00     0.044 A 
HETATM   29  C17 UNL     1      25.080   5.604  49.576  1.00  0.00     0.032 A 
ENDBRANCH  21  23
ENDBRANCH   6  21
TORSDOF 7
ENDMDL
MODEL 7
REMARK VINA RESULT:      -7.4      4.900      7.434
REMARK  7 active torsions:
REMARK  status: ('A' for Active; 'I' for Inactive)
REMARK    1  A    between atoms: O1_2  and  C2_3 
REMARK    2  A    between atoms: C3_4  and  C4_5 
REMARK    3  A    between atoms: C7_9  and  N1_10 
REMARK    4  A    between atoms: N1_10  and  C8_11 
REMARK    5  A    between atoms: C11_16  and  N4_17 
REMARK    6  A    between atoms: N4_17  and  C12_18 
REMARK    7  A    between atoms: C18_25  and  O2_26 
ROOT
HETATM    1  C8  UNL     1      29.856   8.943  48.893  1.00  0.00     0.096 A 
HETATM    2  C9  UNL     1      30.160  10.220  49.300  1.00  0.00     0.151 A 
HETATM    3  N2  UNL     1      29.541  11.254  48.732  1.00  0.00    -0.252 NA
HETATM    4  C10 UNL     1      28.639  11.029  47.780  1.00  0.00     0.235 A 
HETATM    5  N3  UNL     1      28.366   9.771  47.407  1.00  0.00    -0.222 NA
HETATM    6  C11 UNL     1      28.931   8.664  47.913  1.00  0.00     0.157 A 
ENDROOT
BRANCH   1   7
HETATM    7  N1  UNL     1      30.559   7.906  49.548  1.00  0.00    -0.353 N 
HETATM    8  H10 UNL     1      30.544   7.460  50.479  1.00  0.00     0.166 HD
BRANCH   7   9
HETATM    9  C7  UNL     1      31.594   7.183  48.895  1.00  0.00     0.045 C 
HETATM   10  C6  UNL     1      32.242   7.707  47.655  1.00  0.00     0.087 C 
HETATM   11  C5  UNL     1      32.176   6.588  46.652  1.00  0.00    -0.014 C 
HETATM   12  C3  UNL     1      32.640   5.427  47.105  1.00  0.00    -0.035 C 
HETATM   13  C2  UNL     1      33.148   5.399  48.509  1.00  0.00     0.209 C 
HETATM   14  C18 UNL     1      32.056   6.007  49.329  1.00  0.00     0.099 C 
BRANCH  12  15
HETATM   15  C4  UNL     1      32.692   4.150  46.320  1.00  0.00     0.151 C 
HETATM   16 CL1  UNL     1      34.371   3.635  46.099  1.00  0.00    -0.126 Cl
ENDBRANCH  12  15
BRANCH  13  17
HETATM   17  O1  UNL     1      34.335   6.113  48.603  1.00  0.00    -0.380 OA
HETATM   18  C1  UNL     1      35.323   5.308  49.213  1.00  0.00     0.202 C 
ENDBRANCH  13  17
BRANCH  14  19
HETATM   19  O2  UNL     1      31.485   5.476  50.481  1.00  0.00    -0.360 OA
HETATM   20  H18 UNL     1      30.895   5.979  51.117  1.00  0.00     0.217 HD
ENDBRANCH  14  19
ENDBRANCH   7   9
ENDBRANCH   1   7
BRANCH   6  21
HETATM   21  N4  UNL     1      28.662   7.327  47.536  1.00  0.00    -0.339 N 
HETATM   22  H13 UNL     1      29.211   6.957  46.730  1.00  0.00     0.167 HD
BRANCH  21  23
HETATM   23  C12 UNL     1      27.735   6.426  48.122  1.00  0.00     0.033 A 
HETATM   24  C13 UNL     1      26.411   6.812  48.326  1.00  0.00     0.032 A 
HETATM   25  C14 UNL     1      25.477   5.977  48.889  1.00  0.00     0.044 A 
HETATM   26  C15 UNL     1      25.817   4.701  49.281  1.00  0.00     0.116 A 
HETATM   27  F1  UNL     1      24.897   3.876  49.836  1.00  0.00    -0.206 F 
HETATM   28  C16 UNL     1      27.116   4.276  49.099  1.00  0.00     0.044 A 
HETATM   29  C17 UNL     1      28.013   5.151  48.531  1.00  0.00     0.032 A 
ENDBRANCH  21  23
ENDBRANCH   6  21
TORSDOF 7
ENDMDL
MODEL 8
REMARK VINA RESULT:      -7.3      2.105      2.982
REMARK  7 active torsions:
REMARK  status: ('A' for Active; 'I' for Inactive)
REMARK    1  A    between atoms: O1_2  and  C2_3 
REMARK    2  A    between atoms: C3_4  and  C4_5 
REMARK    3  A    between atoms: C7_9  and  N1_10 
REMARK    4  A    between atoms: N1_10  and  C8_11 
REMARK    5  A    between atoms: C11_16  and  N4_17 
REMARK    6  A    between atoms: N4_17  and  C12_18 
REMARK    7  A    between atoms: C18_25  and  O2_26 
ROOT
HETATM    1  C8  UNL     1      21.269   2.727  51.694  1.00  0.00     0.096 A 
HETATM    2  C9  UNL     1      20.081   2.599  51.016  1.00  0.00     0.151 A 
HETATM    3  N2  UNL     1      19.511   1.400  50.909  1.00  0.00    -0.252 NA
HETATM    4  C10 UNL     1      20.107   0.347  51.463  1.00  0.00     0.235 A 
HETATM    5  N3  UNL     1      21.265   0.506  52.118  1.00  0.00    -0.222 NA
HETATM    6  C11 UNL     1      21.920   1.665  52.283  1.00  0.00     0.157 A 
ENDROOT
BRANCH   1   7
HETATM    7  N1  UNL     1      21.803   4.034  51.759  1.00  0.00    -0.353 N 
HETATM    8  H10 UNL     1      21.628   4.891  52.308  1.00  0.00     0.166 HD
BRANCH   7   9
HETATM    9  C7  UNL     1      22.869   4.445  50.911  1.00  0.00     0.045 C 
HETATM   10  C6  UNL     1      22.891   4.080  49.462  1.00  0.00     0.087 C 
HETATM   11  C5  UNL     1      24.240   3.465  49.213  1.00  0.00    -0.014 C 
HETATM   12  C3  UNL     1      25.259   4.203  49.644  1.00  0.00    -0.035 C 
HETATM   13  C2  UNL     1      24.929   5.505  50.296  1.00  0.00     0.209 C 
HETATM   14  C18 UNL     1      23.907   5.169  51.335  1.00  0.00     0.099 C 
BRANCH  12  15
HETATM   15  C4  UNL     1      26.707   3.831  49.525  1.00  0.00     0.151 C 
HETATM   16 CL1  UNL     1      27.574   5.041  48.567  1.00  0.00    -0.126 Cl
ENDBRANCH  12  15
BRANCH  13  17
HETATM   17  O1  UNL     1      24.445   6.402  49.354  1.00  0.00    -0.380 OA
HETATM   18  C1  UNL     1      24.515   7.715  49.873  1.00  0.00     0.202 C 
ENDBRANCH  13  17
BRANCH  14  19
HETATM   19  O2  UNL     1      23.934   5.535  52.677  1.00  0.00    -0.360 OA
HETATM   20  H18 UNL     1      24.568   6.199  53.081  1.00  0.00     0.217 HD
ENDBRANCH  14  19
ENDBRANCH   7   9
ENDBRANCH   1   7
BRANCH   6  21
HETATM   21  N4  UNL     1      23.142   1.859  52.967  1.00  0.00    -0.339 N 
HETATM   22  H13 UNL     1      23.171   2.658  53.639  1.00  0.00     0.167 HD
BRANCH  21  23
HETATM   23  C12 UNL     1      24.335   1.100  52.854  1.00  0.00     0.033 A 
HETATM   24  C13 UNL     1      24.541  -0.012  53.670  1.00  0.00     0.032 A 
HETATM   25  C14 UNL     1      25.678  -0.779  53.599  1.00  0.00     0.044 A 
HETATM   26  C15 UNL     1      26.679  -0.476  52.702  1.00  0.00     0.116 A 
HETATM   27  F1  UNL     1      27.801  -1.232  52.631  1.00  0.00    -0.206 F 
HETATM   28  C16 UNL     1      26.518   0.614  51.874  1.00  0.00     0.044 A 
HETATM   29  C17 UNL     1      25.361   1.350  51.985  1.00  0.00     0.032 A 
ENDBRANCH  21  23
ENDBRANCH   6  21
TORSDOF 7
ENDMDL
MODEL 9
REMARK VINA RESULT:      -7.2      3.144      4.682
REMARK  7 active torsions:
REMARK  status: ('A' for Active; 'I' for Inactive)
REMARK    1  A    between atoms: O1_2  and  C2_3 
REMARK    2  A    between atoms: C3_4  and  C4_5 
REMARK    3  A    between atoms: C7_9  and  N1_10 
REMARK    4  A    between atoms: N1_10  and  C8_11 
REMARK    5  A    between atoms: C11_16  and  N4_17 
REMARK    6  A    between atoms: N4_17  and  C12_18 
REMARK    7  A    between atoms: C18_25  and  O2_26 
ROOT
HETATM    1  C8  UNL     1      22.387   0.541  52.654  1.00  0.00     0.096 A 
HETATM    2  C9  UNL     1      21.145   1.043  52.961  1.00  0.00     0.151 A 
HETATM    3  N2  UNL     1      20.543   0.662  54.086  1.00  0.00    -0.252 NA
HETATM    4  C10 UNL     1      21.157  -0.200  54.892  1.00  0.00     0.235 A 
HETATM    5  N3  UNL     1      22.368  -0.672  54.563  1.00  0.00    -0.222 NA
HETATM    6  C11 UNL     1      23.059  -0.353  53.458  1.00  0.00     0.157 A 
ENDROOT
BRANCH   1   7
HETATM    7  N1  UNL     1      22.953   0.998  51.443  1.00  0.00    -0.353 N 
HETATM    8  H10 UNL     1      23.131   0.610  50.503  1.00  0.00     0.166 HD
BRANCH   7   9
HETATM    9  C7  UNL     1      23.460   2.321  51.312  1.00  0.00     0.045 C 
HETATM   10  C6  UNL     1      24.042   3.046  52.481  1.00  0.00     0.087 C 
HETATM   11  C5  UNL     1      23.342   4.375  52.531  1.00  0.00    -0.014 C 
HETATM   12  C3  UNL     1      23.348   5.034  51.375  1.00  0.00    -0.035 C 
HETATM   13  C2  UNL     1      24.032   4.377  50.222  1.00  0.00     0.209 C 
HETATM   14  C18 UNL     1      23.454   2.999  50.162  1.00  0.00     0.099 C 
BRANCH  12  15
HETATM   15  C4  UNL     1      22.724   6.378  51.142  1.00  0.00     0.151 C 
HETATM   16 CL1  UNL     1      23.978   7.620  51.005  1.00  0.00    -0.126 Cl
ENDBRANCH  12  15
BRANCH  13  17
HETATM   17  O1  UNL     1      25.405   4.363  50.426  1.00  0.00    -0.380 OA
HETATM   18  C1  UNL     1      26.046   5.043  49.365  1.00  0.00     0.202 C 
ENDBRANCH  13  17
BRANCH  14  19
HETATM   19  O2  UNL     1      22.923   2.368  49.043  1.00  0.00    -0.360 OA
HETATM   20  H18 UNL     1      23.426   1.746  48.438  1.00  0.00     0.217 HD
ENDBRANCH  14  19
ENDBRANCH   7   9
ENDBRANCH   1   7
BRANCH   6  21
HETATM   21  N4  UNL     1      24.335  -0.836  53.088  1.00  0.00    -0.339 N 
HETATM   22  H13 UNL     1      24.348  -1.702  52.505  1.00  0.00     0.167 HD
BRANCH  21  23
HETATM   23  C12 UNL     1      25.603  -0.286  53.411  1.00  0.00     0.033 A 
HETATM   24  C13 UNL     1      26.450   0.168  52.401  1.00  0.00     0.032 A 
HETATM   25  C14 UNL     1      27.687   0.707  52.661  1.00  0.00     0.044 A 
HETATM   26  C15 UNL     1      28.146   0.824  53.955  1.00  0.00     0.116 A 
HETATM   27  F1  UNL     1      29.365   1.356  54.213  1.00  0.00    -0.206 F 
HETATM   28  C16 UNL     1      27.342   0.389  54.986  1.00  0.00     0.044 A 
HETATM   29  C17 UNL     1      26.113  -0.144  54.671  1.00  0.00     0.032 A 
ENDBRANCH  21  23
ENDBRANCH   6  21
TORSDOF 7
ENDMDL
