MODEL 1
REMARK VINA RESULT:      -8.9      0.000      0.000
REMARK  5 active torsions:
REMARK  status: ('A' for Active; 'I' for Inactive)
REMARK    1  A    between atoms: C5_6  and  C6_7 
REMARK    2  A    between atoms: C11_13  and  C12_14 
REMARK    3  A    between atoms: C12_14  and  C13_15 
REMARK    4  A    between atoms: C13_15  and  S1_16 
REMARK    5  A    between atoms: S1_16  and  C14_18 
ROOT
HETATM    1  C6  UNL     1      24.950  -0.524  54.339  1.00  0.00    -0.001 A 
HETATM    2  C7  UNL     1      24.256  -1.169  55.329  1.00  0.00     0.017 A 
HETATM    3  C8  UNL     1      22.908  -1.330  55.410  1.00  0.00     0.039 A 
HETATM    4  C9  UNL     1      22.101  -0.812  54.423  1.00  0.00     0.085 A 
HETATM    5  O2  UNL     1      20.825  -0.787  54.201  1.00  0.00    -0.321 OA
HETATM    6  C10 UNL     1      20.510  -0.160  53.098  1.00  0.00     0.150 A 
HETATM    7  C11 UNL     1      21.719   0.264  52.553  1.00  0.00    -0.022 A 
HETATM    8  C20 UNL     1      22.721  -0.151  53.396  1.00  0.00     0.007 A 
HETATM    9  C21 UNL     1      24.089  -0.020  53.366  1.00  0.00     0.029 A 
ENDROOT
BRANCH   7  10
HETATM   10  C12 UNL     1      21.902   1.017  51.306  1.00  0.00     0.054 C 
BRANCH  10  11
HETATM   11  C13 UNL     1      21.504   2.475  51.425  1.00  0.00     0.119 C 
BRANCH  11  12
HETATM   12  S1  UNL     1      22.860   3.390  52.173  1.00  0.00     0.050 S 
HETATM   13  O3  UNL     1      22.492   4.857  52.343  1.00  0.00    -0.253 OA
BRANCH  12  14
HETATM   14  C14 UNL     1      24.307   3.347  51.155  1.00  0.00     0.032 C 
HETATM   15  C15 UNL     1      24.336   4.204  50.133  1.00  0.00     0.022 C 
HETATM   16  C16 UNL     1      25.536   4.144  49.316  1.00  0.00     0.014 C 
HETATM   17  C17 UNL     1      26.538   3.332  49.595  1.00  0.00    -0.014 C 
HETATM   18  C18 UNL     1      26.556   2.856  50.786  1.00  0.00    -0.013 C 
HETATM   19  C19 UNL     1      25.439   2.448  51.366  1.00  0.00     0.034 C 
ENDBRANCH  12  14
ENDBRANCH  11  12
ENDBRANCH  10  11
ENDBRANCH   7  10
BRANCH   1  20
HETATM   20  C5  UNL     1      26.369  -0.323  54.200  1.00  0.00     0.091 A 
HETATM   21  C2  UNL     1      27.313  -0.894  53.389  1.00  0.00    -0.025 A 
HETATM   22  C1  UNL     1      27.073  -1.947  52.379  1.00  0.00     0.051 C 
HETATM   23  C3  UNL     1      28.558  -0.354  53.637  1.00  0.00     0.034 A 
HETATM   24  C4  UNL     1      28.294   0.561  54.630  1.00  0.00     0.143 A 
HETATM   25  O1  UNL     1      27.024   0.534  54.911  1.00  0.00    -0.321 OA
ENDBRANCH   1  20
TORSDOF 5
ENDMDL
MODEL 2
REMARK VINA RESULT:      -8.7      1.929      5.087
REMARK  5 active torsions:
REMARK  status: ('A' for Active; 'I' for Inactive)
REMARK    1  A    between atoms: C5_6  and  C6_7 
REMARK    2  A    between atoms: C11_13  and  C12_14 
REMARK    3  A    between atoms: C12_14  and  C13_15 
REMARK    4  A    between atoms: C13_15  and  S1_16 
REMARK    5  A    between atoms: S1_16  and  C14_18 
ROOT
HETATM    1  C6  UNL     1      21.537   0.386  52.250  1.00  0.00    -0.001 A 
HETATM    2  C7  UNL     1      20.636  -0.041  53.190  1.00  0.00     0.017 A 
HETATM    3  C8  UNL     1      20.915  -0.654  54.371  1.00  0.00     0.039 A 
HETATM    4  C9  UNL     1      22.224  -0.901  54.716  1.00  0.00     0.085 A 
HETATM    5  O2  UNL     1      22.818  -1.447  55.729  1.00  0.00    -0.321 OA
HETATM    6  C10 UNL     1      24.120  -1.460  55.613  1.00  0.00     0.150 A 
HETATM    7  C11 UNL     1      24.390  -0.854  54.389  1.00  0.00    -0.022 A 
HETATM    8  C20 UNL     1      23.187  -0.504  53.827  1.00  0.00     0.007 A 
HETATM    9  C21 UNL     1      22.845   0.114  52.646  1.00  0.00     0.029 A 
ENDROOT
BRANCH   7  10
HETATM   10  C12 UNL     1      25.714  -0.627  53.798  1.00  0.00     0.054 C 
BRANCH  10  11
HETATM   11  C13 UNL     1      26.569   0.336  54.597  1.00  0.00     0.119 C 
BRANCH  11  12
HETATM   12  S1  UNL     1      27.290   1.544  53.477  1.00  0.00     0.050 S 
HETATM   13  O3  UNL     1      27.990   2.650  54.254  1.00  0.00    -0.253 OA
BRANCH  12  14
HETATM   14  C14 UNL     1      26.050   2.328  52.488  1.00  0.00     0.032 C 
HETATM   15  C15 UNL     1      25.014   2.852  53.145  1.00  0.00     0.022 C 
HETATM   16  C16 UNL     1      24.013   3.489  52.306  1.00  0.00     0.014 C 
HETATM   17  C17 UNL     1      24.146   3.578  50.997  1.00  0.00    -0.014 C 
HETATM   18  C18 UNL     1      25.330   3.390  50.541  1.00  0.00    -0.013 C 
HETATM   19  C19 UNL     1      26.096   2.430  51.031  1.00  0.00     0.034 C 
ENDBRANCH  12  14
ENDBRANCH  11  12
ENDBRANCH  10  11
ENDBRANCH   7  10
BRANCH   1  20
HETATM   20  C5  UNL     1      21.303   1.038  50.988  1.00  0.00     0.091 A 
HETATM   21  C2  UNL     1      20.789   2.262  50.657  1.00  0.00    -0.025 A 
HETATM   22  C1  UNL     1      20.310   3.292  51.604  1.00  0.00     0.051 C 
HETATM   23  C3  UNL     1      20.768   2.427  49.287  1.00  0.00     0.034 A 
HETATM   24  C4  UNL     1      21.296   1.239  48.836  1.00  0.00     0.143 A 
HETATM   25  O1  UNL     1      21.584   0.484  49.855  1.00  0.00    -0.321 OA
ENDBRANCH   1  20
TORSDOF 5
ENDMDL
MODEL 3
REMARK VINA RESULT:      -8.4      1.893      2.318
REMARK  5 active torsions:
REMARK  status: ('A' for Active; 'I' for Inactive)
REMARK    1  A    between atoms: C5_6  and  C6_7 
REMARK    2  A    between atoms: C11_13  and  C12_14 
REMARK    3  A    between atoms: C12_14  and  C13_15 
REMARK    4  A    between atoms: C13_15  and  S1_16 
REMARK    5  A    between atoms: S1_16  and  C14_18 
ROOT
HETATM    1  C6  UNL     1      25.059  -0.625  54.246  1.00  0.00    -0.001 A 
HETATM    2  C7  UNL     1      24.584  -1.189  55.401  1.00  0.00     0.017 A 
HETATM    3  C8  UNL     1      23.287  -1.459  55.704  1.00  0.00     0.039 A 
HETATM    4  C9  UNL     1      22.298  -1.156  54.796  1.00  0.00     0.085 A 
HETATM    5  O2  UNL     1      21.009  -1.277  54.769  1.00  0.00    -0.321 OA
HETATM    6  C10 UNL     1      20.477  -0.839  53.658  1.00  0.00     0.150 A 
HETATM    7  C11 UNL     1      21.545  -0.385  52.888  1.00  0.00    -0.022 A 
HETATM    8  C20 UNL     1      22.693  -0.589  53.613  1.00  0.00     0.007 A 
HETATM    9  C21 UNL     1      24.022  -0.339  53.361  1.00  0.00     0.029 A 
ENDROOT
BRANCH   7  10
HETATM   10  C12 UNL     1      21.469   0.204  51.546  1.00  0.00     0.054 C 
BRANCH  10  11
HETATM   11  C13 UNL     1      20.201   1.002  51.314  1.00  0.00     0.119 C 
BRANCH  11  12
HETATM   12  S1  UNL     1      20.204   2.430  52.408  1.00  0.00     0.050 S 
HETATM   13  O3  UNL     1      18.943   3.260  52.214  1.00  0.00    -0.253 OA
BRANCH  12  14
HETATM   14  C14 UNL     1      21.571   3.501  52.068  1.00  0.00     0.032 C 
HETATM   15  C15 UNL     1      21.288   4.631  51.417  1.00  0.00     0.022 C 
HETATM   16  C16 UNL     1      22.431   5.488  51.154  1.00  0.00     0.014 C 
HETATM   17  C17 UNL     1      23.647   5.189  51.568  1.00  0.00    -0.014 C 
HETATM   18  C18 UNL     1      23.720   4.300  52.490  1.00  0.00    -0.013 C 
HETATM   19  C19 UNL     1      22.953   3.223  52.450  1.00  0.00     0.034 C 
ENDBRANCH  12  14
ENDBRANCH  11  12
ENDBRANCH  10  11
ENDBRANCH   7  10
BRANCH   1  20
HETATM   20  C5  UNL     1      26.414  -0.317  53.869  1.00  0.00     0.091 A 
HETATM   21  C2  UNL     1      27.075   0.865  53.665  1.00  0.00    -0.025 A 
HETATM   22  C1  UNL     1      26.499   2.221  53.794  1.00  0.00     0.051 C 
HETATM   23  C3  UNL     1      28.388   0.632  53.310  1.00  0.00     0.034 A 
HETATM   24  C4  UNL     1      28.461  -0.742  53.319  1.00  0.00     0.143 A 
HETATM   25  O1  UNL     1      27.300  -1.230  53.646  1.00  0.00    -0.321 OA
ENDBRANCH   1  20
TORSDOF 5
ENDMDL
MODEL 4
REMARK VINA RESULT:      -8.4      1.125      1.470
REMARK  5 active torsions:
REMARK  status: ('A' for Active; 'I' for Inactive)
REMARK    1  A    between atoms: C5_6  and  C6_7 
REMARK    2  A    between atoms: C11_13  and  C12_14 
REMARK    3  A    between atoms: C12_14  and  C13_15 
REMARK    4  A    between atoms: C13_15  and  S1_16 
REMARK    5  A    between atoms: S1_16  and  C14_18 
ROOT
HETATM    1  C6  UNL     1      25.094  -0.463  54.314  1.00  0.00    -0.001 A 
HETATM    2  C7  UNL     1      24.326  -1.133  55.230  1.00  0.00     0.017 A 
HETATM    3  C8  UNL     1      22.969  -1.213  55.256  1.00  0.00     0.039 A 
HETATM    4  C9  UNL     1      22.232  -0.574  54.285  1.00  0.00     0.085 A 
HETATM    5  O2  UNL     1      20.969  -0.451  54.025  1.00  0.00    -0.321 OA
HETATM    6  C10 UNL     1      20.733   0.274  52.963  1.00  0.00     0.150 A 
HETATM    7  C11 UNL     1      21.985   0.658  52.490  1.00  0.00    -0.022 A 
HETATM    8  C20 UNL     1      22.928   0.119  53.331  1.00  0.00     0.007 A 
HETATM    9  C21 UNL     1      24.302   0.164  53.355  1.00  0.00     0.029 A 
ENDROOT
BRANCH   7  10
HETATM   10  C12 UNL     1      22.259   1.487  51.310  1.00  0.00     0.054 C 
BRANCH  10  11
HETATM   11  C13 UNL     1      22.400   2.961  51.635  1.00  0.00     0.119 C 
BRANCH  11  12
HETATM   12  S1  UNL     1      22.619   3.877  50.102  1.00  0.00     0.050 S 
HETATM   13  O3  UNL     1      22.075   3.088  48.920  1.00  0.00    -0.253 OA
BRANCH  12  14
HETATM   14  C14 UNL     1      24.331   4.173  49.766  1.00  0.00     0.032 C 
HETATM   15  C15 UNL     1      25.125   3.101  49.754  1.00  0.00     0.022 C 
HETATM   16  C16 UNL     1      26.524   3.377  49.475  1.00  0.00     0.014 C 
HETATM   17  C17 UNL     1      26.963   4.592  49.212  1.00  0.00    -0.014 C 
HETATM   18  C18 UNL     1      26.069   5.449  48.879  1.00  0.00    -0.013 C 
HETATM   19  C19 UNL     1      24.907   5.491  49.510  1.00  0.00     0.034 C 
ENDBRANCH  12  14
ENDBRANCH  11  12
ENDBRANCH  10  11
ENDBRANCH   7  10
BRANCH   1  20
HETATM   20  C5  UNL     1      26.527  -0.343  54.236  1.00  0.00     0.091 A 
HETATM   21  C2  UNL     1      27.472  -0.986  53.483  1.00  0.00    -0.025 A 
HETATM   22  C1  UNL     1      27.219  -2.049  52.486  1.00  0.00     0.051 C 
HETATM   23  C3  UNL     1      28.734  -0.508  53.775  1.00  0.00     0.034 A 
HETATM   24  C4  UNL     1      28.477   0.445  54.734  1.00  0.00     0.143 A 
HETATM   25  O1  UNL     1      27.196   0.494  54.957  1.00  0.00    -0.321 OA
ENDBRANCH   1  20
TORSDOF 5
ENDMDL
MODEL 5
REMARK VINA RESULT:      -8.4      1.722      5.071
REMARK  5 active torsions:
REMARK  status: ('A' for Active; 'I' for Inactive)
REMARK    1  A    between atoms: C5_6  and  C6_7 
REMARK    2  A    between atoms: C11_13  and  C12_14 
REMARK    3  A    between atoms: C12_14  and  C13_15 
REMARK    4  A    between atoms: C13_15  and  S1_16 
REMARK    5  A    between atoms: S1_16  and  C14_18 
ROOT
HETATM    1  C6  UNL     1      26.347   2.566  51.382  1.00  0.00    -0.001 A 
HETATM    2  C7  UNL     1      26.578   2.970  50.093  1.00  0.00     0.017 A 
HETATM    3  C8  UNL     1      25.706   3.608  49.268  1.00  0.00     0.039 A 
HETATM    4  C9  UNL     1      24.440   3.908  49.717  1.00  0.00     0.085 A 
HETATM    5  O2  UNL     1      23.400   4.488  49.208  1.00  0.00    -0.321 OA
HETATM    6  C10 UNL     1      22.391   4.548  50.036  1.00  0.00     0.150 A 
HETATM    7  C11 UNL     1      22.834   3.939  51.207  1.00  0.00    -0.022 A 
HETATM    8  C20 UNL     1      24.130   3.536  50.998  1.00  0.00     0.007 A 
HETATM    9  C21 UNL     1      25.055   2.893  51.788  1.00  0.00     0.029 A 
ENDROOT
BRANCH   7  10
HETATM   10  C12 UNL     1      22.066   3.755  52.444  1.00  0.00     0.054 C 
BRANCH  10  11
HETATM   11  C13 UNL     1      20.592   3.499  52.200  1.00  0.00     0.119 C 
BRANCH  11  12
HETATM   12  S1  UNL     1      20.363   1.766  51.778  1.00  0.00     0.050 S 
HETATM   13  O3  UNL     1      18.901   1.366  51.915  1.00  0.00    -0.253 OA
BRANCH  12  14
HETATM   14  C14 UNL     1      21.279   0.711  52.863  1.00  0.00     0.032 C 
HETATM   15  C15 UNL     1      20.686   0.388  54.014  1.00  0.00     0.022 C 
HETATM   16  C16 UNL     1      21.464  -0.479  54.882  1.00  0.00     0.014 C 
HETATM   17  C17 UNL     1      22.647  -0.945  54.535  1.00  0.00    -0.014 C 
HETATM   18  C18 UNL     1      22.927  -0.883  53.285  1.00  0.00    -0.013 C 
HETATM   19  C19 UNL     1      22.613   0.188  52.576  1.00  0.00     0.034 C 
ENDBRANCH  12  14
ENDBRANCH  11  12
ENDBRANCH  10  11
ENDBRANCH   7  10
BRANCH   1  20
HETATM   20  C5  UNL     1      27.226   1.890  52.300  1.00  0.00     0.091 A 
HETATM   21  C2  UNL     1      27.327   0.584  52.698  1.00  0.00    -0.025 A 
HETATM   22  C1  UNL     1      26.478  -0.537  52.236  1.00  0.00     0.051 C 
HETATM   23  C3  UNL     1      28.348   0.432  53.613  1.00  0.00     0.034 A 
HETATM   24  C4  UNL     1      28.838   1.712  53.728  1.00  0.00     0.143 A 
HETATM   25  O1  UNL     1      28.157   2.503  52.953  1.00  0.00    -0.321 OA
ENDBRANCH   1  20
TORSDOF 5
ENDMDL
MODEL 6
REMARK VINA RESULT:      -8.2      2.015      5.057
REMARK  5 active torsions:
REMARK  status: ('A' for Active; 'I' for Inactive)
REMARK    1  A    between atoms: C5_6  and  C6_7 
REMARK    2  A    between atoms: C11_13  and  C12_14 
REMARK    3  A    between atoms: C12_14  and  C13_15 
REMARK    4  A    between atoms: C13_15  and  S1_16 
REMARK    5  A    between atoms: S1_16  and  C14_18 
ROOT
HETATM    1  C6  UNL     1      22.089   0.628  52.847  1.00  0.00    -0.001 A 
HETATM    2  C7  UNL     1      22.016  -0.176  53.955  1.00  0.00     0.017 A 
HETATM    3  C8  UNL     1      23.051  -0.790  54.588  1.00  0.00     0.039 A 
HETATM    4  C9  UNL     1      24.332  -0.626  54.113  1.00  0.00     0.085 A 
HETATM    5  O2  UNL     1      25.503  -1.053  54.466  1.00  0.00    -0.321 OA
HETATM    6  C10 UNL     1      26.461  -0.620  53.690  1.00  0.00     0.150 A 
HETATM    7  C11 UNL     1      25.835   0.174  52.733  1.00  0.00    -0.022 A 
HETATM    8  C20 UNL     1      24.489   0.166  53.006  1.00  0.00     0.007 A 
HETATM    9  C21 UNL     1      23.404   0.763  52.408  1.00  0.00     0.029 A 
ENDROOT
BRANCH   7  10
HETATM   10  C12 UNL     1      26.484   0.893  51.630  1.00  0.00     0.054 C 
BRANCH  10  11
HETATM   11  C13 UNL     1      26.492   2.396  51.819  1.00  0.00     0.119 C 
BRANCH  11  12
HETATM   12  S1  UNL     1      25.714   3.168  50.392  1.00  0.00     0.050 S 
HETATM   13  O3  UNL     1      26.613   4.246  49.805  1.00  0.00    -0.253 OA
BRANCH  12  14
HETATM   14  C14 UNL     1      24.197   3.962  50.836  1.00  0.00     0.032 C 
HETATM   15  C15 UNL     1      23.335   4.187  49.842  1.00  0.00     0.022 C 
HETATM   16  C16 UNL     1      22.100   4.841  50.238  1.00  0.00     0.014 C 
HETATM   17  C17 UNL     1      21.836   5.147  51.493  1.00  0.00    -0.014 C 
HETATM   18  C18 UNL     1      22.547   4.547  52.376  1.00  0.00    -0.013 C 
HETATM   19  C19 UNL     1      23.846   4.376  52.192  1.00  0.00     0.034 C 
ENDBRANCH  12  14
ENDBRANCH  11  12
ENDBRANCH  10  11
ENDBRANCH   7  10
BRANCH   1  20
HETATM   20  C5  UNL     1      21.034   1.302  52.136  1.00  0.00     0.091 A 
HETATM   21  C2  UNL     1      20.738   1.417  50.805  1.00  0.00    -0.025 A 
HETATM   22  C1  UNL     1      21.502   0.823  49.687  1.00  0.00     0.051 C 
HETATM   23  C3  UNL     1      19.603   2.181  50.624  1.00  0.00     0.034 A 
HETATM   24  C4  UNL     1      19.252   2.504  51.914  1.00  0.00     0.143 A 
HETATM   25  O1  UNL     1      20.107   1.973  52.737  1.00  0.00    -0.321 OA
ENDBRANCH   1  20
TORSDOF 5
ENDMDL
MODEL 7
REMARK VINA RESULT:      -8.1      1.978      5.279
REMARK  5 active torsions:
REMARK  status: ('A' for Active; 'I' for Inactive)
REMARK    1  A    between atoms: C5_6  and  C6_7 
REMARK    2  A    between atoms: C11_13  and  C12_14 
REMARK    3  A    between atoms: C12_14  and  C13_15 
REMARK    4  A    between atoms: C13_15  and  S1_16 
REMARK    5  A    between atoms: S1_16  and  C14_18 
ROOT
HETATM    1  C6  UNL     1      20.771  -0.418  53.286  1.00  0.00    -0.001 A 
HETATM    2  C7  UNL     1      21.065  -1.209  54.366  1.00  0.00     0.017 A 
HETATM    3  C8  UNL     1      22.290  -1.414  54.919  1.00  0.00     0.039 A 
HETATM    4  C9  UNL     1      23.392  -0.787  54.382  1.00  0.00     0.085 A 
HETATM    5  O2  UNL     1      24.658  -0.765  54.656  1.00  0.00    -0.321 OA
HETATM    6  C10 UNL     1      25.343  -0.001  53.846  1.00  0.00     0.150 A 
HETATM    7  C11 UNL     1      24.412   0.524  52.954  1.00  0.00    -0.022 A 
HETATM    8  C20 UNL     1      23.181   0.023  53.299  1.00  0.00     0.007 A 
HETATM    9  C21 UNL     1      21.917   0.193  52.782  1.00  0.00     0.029 A 
ENDROOT
BRANCH   7  10
HETATM   10  C12 UNL     1      24.685   1.446  51.845  1.00  0.00     0.054 C 
BRANCH  10  11
HETATM   11  C13 UNL     1      24.687   2.902  52.264  1.00  0.00     0.119 C 
BRANCH  11  12
HETATM   12  S1  UNL     1      24.058   3.901  50.908  1.00  0.00     0.050 S 
HETATM   13  O3  UNL     1      23.295   3.039  49.912  1.00  0.00    -0.253 OA
BRANCH  12  14
HETATM   14  C14 UNL     1      25.373   4.670  50.007  1.00  0.00     0.032 C 
HETATM   15  C15 UNL     1      26.354   3.866  49.594  1.00  0.00     0.022 C 
HETATM   16  C16 UNL     1      27.419   4.527  48.858  1.00  0.00     0.014 C 
HETATM   17  C17 UNL     1      27.390   5.816  48.583  1.00  0.00    -0.014 C 
HETATM   18  C18 UNL     1      26.245   6.385  48.690  1.00  0.00    -0.013 C 
HETATM   19  C19 UNL     1      25.441   6.096  49.700  1.00  0.00     0.034 C 
ENDBRANCH  12  14
ENDBRANCH  11  12
ENDBRANCH  10  11
ENDBRANCH   7  10
BRANCH   1  20
HETATM   20  C5  UNL     1      19.501  -0.164  52.658  1.00  0.00     0.091 A 
HETATM   21  C2  UNL     1      18.294  -0.809  52.709  1.00  0.00    -0.025 A 
HETATM   22  C1  UNL     1      17.988  -2.027  53.490  1.00  0.00     0.051 C 
HETATM   23  C3  UNL     1      17.366  -0.165  51.916  1.00  0.00     0.034 A 
HETATM   24  C4  UNL     1      18.089   0.886  51.402  1.00  0.00     0.143 A 
HETATM   25  O1  UNL     1      19.305   0.835  51.862  1.00  0.00    -0.321 OA
ENDBRANCH   1  20
TORSDOF 5
ENDMDL
MODEL 8
REMARK VINA RESULT:      -8.0      2.125      4.621
REMARK  5 active torsions:
REMARK  status: ('A' for Active; 'I' for Inactive)
REMARK    1  A    between atoms: C5_6  and  C6_7 
REMARK    2  A    between atoms: C11_13  and  C12_14 
REMARK    3  A    between atoms: C12_14  and  C13_15 
REMARK    4  A    between atoms: C13_15  and  S1_16 
REMARK    5  A    between atoms: S1_16  and  C14_18 
ROOT
HETATM    1  C6  UNL     1      24.561   2.463  51.979  1.00  0.00    -0.001 A 
HETATM    2  C7  UNL     1      25.517   1.565  52.374  1.00  0.00     0.017 A 
HETATM    3  C8  UNL     1      25.318   0.410  53.062  1.00  0.00     0.039 A 
HETATM    4  C9  UNL     1      24.042   0.048  53.429  1.00  0.00     0.085 A 
HETATM    5  O2  UNL     1      23.519  -0.951  54.068  1.00  0.00    -0.321 OA
HETATM    6  C10 UNL     1      22.220  -0.863  54.180  1.00  0.00     0.150 A 
HETATM    7  C11 UNL     1      21.871   0.325  53.542  1.00  0.00    -0.022 A 
HETATM    8  C20 UNL     1      23.027   0.896  53.070  1.00  0.00     0.007 A 
HETATM    9  C21 UNL     1      23.289   2.052  52.373  1.00  0.00     0.029 A 
ENDROOT
BRANCH   7  10
HETATM   10  C12 UNL     1      20.518   0.875  53.395  1.00  0.00     0.054 C 
BRANCH  10  11
HETATM   11  C13 UNL     1      19.619   0.025  52.520  1.00  0.00     0.119 C 
BRANCH  11  12
HETATM   12  S1  UNL     1      18.935   1.054  51.213  1.00  0.00     0.050 S 
HETATM   13  O3  UNL     1      18.077   0.225  50.268  1.00  0.00    -0.253 OA
BRANCH  12  14
HETATM   14  C14 UNL     1      20.212   1.782  50.229  1.00  0.00     0.032 C 
HETATM   15  C15 UNL     1      20.345   3.106  50.318  1.00  0.00     0.022 C 
HETATM   16  C16 UNL     1      21.402   3.673  49.499  1.00  0.00     0.014 C 
HETATM   17  C17 UNL     1      22.196   2.926  48.758  1.00  0.00    -0.014 C 
HETATM   18  C18 UNL     1      22.221   1.677  49.050  1.00  0.00    -0.013 C 
HETATM   19  C19 UNL     1      21.105   1.033  49.348  1.00  0.00     0.034 C 
ENDBRANCH  12  14
ENDBRANCH  11  12
ENDBRANCH  10  11
ENDBRANCH   7  10
BRANCH   1  20
HETATM   20  C5  UNL     1      24.710   3.698  51.252  1.00  0.00     0.091 A 
HETATM   21  C2  UNL     1      25.512   4.069  50.207  1.00  0.00    -0.025 A 
HETATM   22  C1  UNL     1      26.503   3.212  49.521  1.00  0.00     0.051 C 
HETATM   23  C3  UNL     1      25.280   5.384  49.860  1.00  0.00     0.034 A 
HETATM   24  C4  UNL     1      24.303   5.761  50.752  1.00  0.00     0.143 A 
HETATM   25  O1  UNL     1      24.017   4.754  51.524  1.00  0.00    -0.321 OA
ENDBRANCH   1  20
TORSDOF 5
ENDMDL
MODEL 9
REMARK VINA RESULT:      -7.9      3.923      8.188
REMARK  5 active torsions:
REMARK  status: ('A' for Active; 'I' for Inactive)
REMARK    1  A    between atoms: C5_6  and  C6_7 
REMARK    2  A    between atoms: C11_13  and  C12_14 
REMARK    3  A    between atoms: C12_14  and  C13_15 
REMARK    4  A    between atoms: C13_15  and  S1_16 
REMARK    5  A    between atoms: S1_16  and  C14_18 
ROOT
HETATM    1  C6  UNL     1      28.830   6.063  48.064  1.00  0.00    -0.001 A 
HETATM    2  C7  UNL     1      27.985   7.090  47.734  1.00  0.00     0.017 A 
HETATM    3  C8  UNL     1      26.647   7.152  47.965  1.00  0.00     0.039 A 
HETATM    4  C9  UNL     1      26.015   6.103  48.592  1.00  0.00     0.085 A 
HETATM    5  O2  UNL     1      24.796   5.849  48.951  1.00  0.00    -0.321 OA
HETATM    6  C10 UNL     1      24.667   4.687  49.536  1.00  0.00     0.150 A 
HETATM    7  C11 UNL     1      25.946   4.136  49.553  1.00  0.00    -0.022 A 
HETATM    8  C20 UNL     1      26.793   5.036  48.955  1.00  0.00     0.007 A 
HETATM    9  C21 UNL     1      28.143   5.028  48.696  1.00  0.00     0.029 A 
ENDROOT
BRANCH   7  10
HETATM   10  C12 UNL     1      26.330   2.832  50.107  1.00  0.00     0.054 C 
BRANCH  10  11
HETATM   11  C13 UNL     1      26.024   2.697  51.586  1.00  0.00     0.119 C 
BRANCH  11  12
HETATM   12  S1  UNL     1      25.852   0.952  51.988  1.00  0.00     0.050 S 
HETATM   13  O3  UNL     1      24.720   0.737  52.983  1.00  0.00    -0.253 OA
BRANCH  12  14
HETATM   14  C14 UNL     1      27.319   0.317  52.748  1.00  0.00     0.032 C 
HETATM   15  C15 UNL     1      27.500  -1.002  52.672  1.00  0.00     0.022 C 
HETATM   16  C16 UNL     1      28.713  -1.492  53.304  1.00  0.00     0.014 C 
HETATM   17  C17 UNL     1      29.587  -0.684  53.872  1.00  0.00    -0.014 C 
HETATM   18  C18 UNL     1      29.496   0.554  53.548  1.00  0.00    -0.013 C 
HETATM   19  C19 UNL     1      28.314   1.136  53.436  1.00  0.00     0.034 C 
ENDBRANCH  12  14
ENDBRANCH  11  12
ENDBRANCH  10  11
ENDBRANCH   7  10
BRANCH   1  20
HETATM   20  C5  UNL     1      30.248   5.940  47.847  1.00  0.00     0.091 A 
HETATM   21  C2  UNL     1      31.124   6.607  47.034  1.00  0.00    -0.025 A 
HETATM   22  C1  UNL     1      30.787   7.707  46.104  1.00  0.00     0.051 C 
HETATM   23  C3  UNL     1      32.404   6.113  47.189  1.00  0.00     0.034 A 
HETATM   24  C4  UNL     1      32.230   5.127  48.132  1.00  0.00     0.143 A 
HETATM   25  O1  UNL     1      30.976   5.074  48.472  1.00  0.00    -0.321 OA
ENDBRANCH   1  20
TORSDOF 5
ENDMDL
