MODEL 1
REMARK VINA RESULT:      -7.7      0.000      0.000
REMARK  5 active torsions:
REMARK  status: ('A' for Active; 'I' for Inactive)
REMARK    1  A    between atoms: N1_5  and  C4_6 
REMARK    2  A    between atoms: C4_6  and  C5_7 
REMARK    3  A    between atoms: C5_7  and  C6_8 
REMARK    4  A    between atoms: C6_8  and  N2_9 
REMARK    5  A    between atoms: N2_9  and  C7_10 
ROOT
HETATM    1  C7  UNL     1      26.245   2.688  50.722  1.00  0.00     0.242 A 
HETATM    2  N3  UNL     1      25.047   2.936  50.888  1.00  0.00    -0.222 NA
HETATM    3  C8  UNL     1      24.475   4.063  50.323  1.00  0.00     0.152 A 
HETATM    4  C9  UNL     1      25.206   5.013  49.518  1.00  0.00     0.076 A 
HETATM    5  C10 UNL     1      24.587   6.124  49.037  1.00  0.00     0.035 A 
HETATM    6  C11 UNL     1      25.977   6.532  48.431  1.00  0.00     0.036 A 
HETATM    7  C12 UNL     1      26.943   5.502  48.785  1.00  0.00     0.087 A 
HETATM    8  C13 UNL     1      27.968   6.225  48.162  1.00  0.00     0.126 A 
HETATM    9  C14 UNL     1      29.024   6.814  47.589  1.00  0.00     0.308 A 
HETATM   10  C15 UNL     1      30.453   6.697  47.317  1.00  0.00     0.293 A 
HETATM   11  N4  UNL     1      30.189   5.686  47.919  1.00  0.00     0.050 N 
HETATM   12  C16 UNL     1      31.549   5.020  47.883  1.00  0.00     0.306 C 
HETATM   13  N5  UNL     1      29.043   5.160  48.489  1.00  0.00    -0.083 NA
HETATM   14  N6  UNL     1      26.465   4.552  49.464  1.00  0.00    -0.227 N 
HETATM   15  N7  UNL     1      27.119   3.489  49.949  1.00  0.00    -0.128 NA
ENDROOT
BRANCH   1  16
HETATM   16  N2  UNL     1      26.644   1.553  51.531  1.00  0.00    -0.354 N 
HETATM   17  H9  UNL     1      26.251   0.703  51.112  1.00  0.00     0.163 HD
BRANCH  16  18
HETATM   18  C6  UNL     1      27.568   2.048  52.656  1.00  0.00     0.151 C 
BRANCH  18  19
HETATM   19  C5  UNL     1      28.050   0.647  53.188  1.00  0.00     0.010 C 
BRANCH  19  20
HETATM   20  C4  UNL     1      27.304   0.540  54.460  1.00  0.00     0.087 C 
BRANCH  20  21
HETATM   21  N1  UNL     1      26.285  -0.529  54.679  1.00  0.00    -0.348 N 
HETATM   22  C3  UNL     1      25.166  -0.373  54.181  1.00  0.00     0.148 A 
HETATM   23  C2  UNL     1      23.822  -0.711  53.771  1.00  0.00     0.205 A 
HETATM   24  O1  UNL     1      24.518   0.651  53.470  1.00  0.00    -0.323 OA
HETATM   25  C1  UNL     1      22.744  -0.285  53.120  1.00  0.00     0.044 C 
HETATM   26  H4  UNL     1      26.190  -1.670  54.907  1.00  0.00     0.167 HD
ENDBRANCH  20  21
ENDBRANCH  19  20
ENDBRANCH  18  19
ENDBRANCH  16  18
ENDBRANCH   1  16
TORSDOF 5
ENDMDL
MODEL 2
REMARK VINA RESULT:      -7.6      1.351      2.353
REMARK  5 active torsions:
REMARK  status: ('A' for Active; 'I' for Inactive)
REMARK    1  A    between atoms: N1_5  and  C4_6 
REMARK    2  A    between atoms: C4_6  and  C5_7 
REMARK    3  A    between atoms: C5_7  and  C6_8 
REMARK    4  A    between atoms: C6_8  and  N2_9 
REMARK    5  A    between atoms: N2_9  and  C7_10 
ROOT
HETATM    1  C7  UNL     1      26.117   3.108  50.325  1.00  0.00     0.242 A 
HETATM    2  N3  UNL     1      24.940   3.479  50.367  1.00  0.00    -0.222 NA
HETATM    3  C8  UNL     1      24.549   4.656  49.751  1.00  0.00     0.152 A 
HETATM    4  C9  UNL     1      25.454   5.520  49.030  1.00  0.00     0.076 A 
HETATM    5  C10 UNL     1      25.007   6.686  48.492  1.00  0.00     0.035 A 
HETATM    6  C11 UNL     1      26.486   6.943  48.035  1.00  0.00     0.036 A 
HETATM    7  C12 UNL     1      27.299   5.822  48.483  1.00  0.00     0.087 A 
HETATM    8  C13 UNL     1      28.452   6.431  47.972  1.00  0.00     0.126 A 
HETATM    9  C14 UNL     1      29.617   6.904  47.514  1.00  0.00     0.308 A 
HETATM   10  C15 UNL     1      31.046   6.638  47.391  1.00  0.00     0.293 A 
HETATM   11  N4  UNL     1      30.618   5.664  47.959  1.00  0.00     0.050 N 
HETATM   12  C16 UNL     1      31.899   4.860  48.061  1.00  0.00     0.306 C 
HETATM   13  N5  UNL     1      29.372   5.262  48.404  1.00  0.00    -0.083 NA
HETATM   14  N6  UNL     1      26.657   4.931  49.104  1.00  0.00    -0.227 N 
HETATM   15  N7  UNL     1      27.144   3.809  49.650  1.00  0.00    -0.128 NA
ENDROOT
BRANCH   1  16
HETATM   16  N2  UNL     1      26.310   1.942  51.166  1.00  0.00    -0.354 N 
HETATM   17  H9  UNL     1      26.982   1.319  50.705  1.00  0.00     0.163 HD
BRANCH  16  18
HETATM   18  C6  UNL     1      25.500   2.127  52.460  1.00  0.00     0.151 C 
BRANCH  18  19
HETATM   19  C5  UNL     1      25.146   0.616  52.724  1.00  0.00     0.010 C 
BRANCH  19  20
HETATM   20  C4  UNL     1      25.569   0.452  54.130  1.00  0.00     0.087 C 
BRANCH  20  21
HETATM   21  N1  UNL     1      26.927   0.868  54.590  1.00  0.00    -0.348 N 
HETATM   22  C3  UNL     1      27.882   0.135  54.311  1.00  0.00     0.148 A 
HETATM   23  C2  UNL     1      29.260  -0.281  54.184  1.00  0.00     0.205 A 
HETATM   24  O1  UNL     1      28.039  -1.117  53.694  1.00  0.00    -0.323 OA
HETATM   25  C1  UNL     1      30.071  -1.233  53.736  1.00  0.00     0.044 C 
HETATM   26  H4  UNL     1      27.544   1.814  54.883  1.00  0.00     0.167 HD
ENDBRANCH  20  21
ENDBRANCH  19  20
ENDBRANCH  18  19
ENDBRANCH  16  18
ENDBRANCH   1  16
TORSDOF 5
ENDMDL
MODEL 3
REMARK VINA RESULT:      -7.6      2.336      8.403
REMARK  5 active torsions:
REMARK  status: ('A' for Active; 'I' for Inactive)
REMARK    1  A    between atoms: N1_5  and  C4_6 
REMARK    2  A    between atoms: C4_6  and  C5_7 
REMARK    3  A    between atoms: C5_7  and  C6_8 
REMARK    4  A    between atoms: C6_8  and  N2_9 
REMARK    5  A    between atoms: N2_9  and  C7_10 
ROOT
HETATM    1  C7  UNL     1      26.449   2.565  51.523  1.00  0.00     0.242 A 
HETATM    2  N3  UNL     1      27.550   2.421  52.064  1.00  0.00    -0.222 NA
HETATM    3  C8  UNL     1      27.716   1.507  53.090  1.00  0.00     0.152 A 
HETATM    4  C9  UNL     1      26.654   0.671  53.598  1.00  0.00     0.076 A 
HETATM    5  C10 UNL     1      26.882  -0.169  54.642  1.00  0.00     0.035 A 
HETATM    6  C11 UNL     1      25.363  -0.555  54.552  1.00  0.00     0.036 A 
HETATM    7  C12 UNL     1      24.764   0.216  53.472  1.00  0.00     0.087 A 
HETATM    8  C13 UNL     1      23.507  -0.334  53.752  1.00  0.00     0.126 A 
HETATM    9  C14 UNL     1      22.263  -0.799  53.915  1.00  0.00     0.308 A 
HETATM   10  C15 UNL     1      20.893  -0.738  53.416  1.00  0.00     0.293 A 
HETATM   11  N4  UNL     1      21.498   0.014  52.693  1.00  0.00     0.050 N 
HETATM   12  C16 UNL     1      20.372   0.411  51.760  1.00  0.00     0.306 C 
HETATM   13  N5  UNL     1      22.810   0.443  52.608  1.00  0.00    -0.083 NA
HETATM   14  N6  UNL     1      25.568   0.983  52.874  1.00  0.00    -0.227 N 
HETATM   15  N7  UNL     1      25.294   1.824  51.868  1.00  0.00    -0.128 NA
ENDROOT
BRANCH   1  16
HETATM   16  N2  UNL     1      26.484   3.678  50.594  1.00  0.00    -0.354 N 
HETATM   17  H9  UNL     1      27.431   4.072  50.596  1.00  0.00     0.163 HD
BRANCH  16  18
HETATM   18  C6  UNL     1      25.114   3.788  49.904  1.00  0.00     0.151 C 
BRANCH  18  19
HETATM   19  C5  UNL     1      24.877   5.330  50.113  1.00  0.00     0.010 C 
BRANCH  19  20
HETATM   20  C4  UNL     1      25.168   5.861  48.765  1.00  0.00     0.087 C 
BRANCH  20  21
HETATM   21  N1  UNL     1      26.304   6.800  48.525  1.00  0.00    -0.348 N 
HETATM   22  C3  UNL     1      27.433   6.319  48.385  1.00  0.00     0.148 A 
HETATM   23  C2  UNL     1      28.845   6.281  48.082  1.00  0.00     0.205 A 
HETATM   24  O1  UNL     1      27.993   5.034  48.468  1.00  0.00    -0.323 OA
HETATM   25  C1  UNL     1      29.909   5.494  47.958  1.00  0.00     0.044 C 
HETATM   26  H4  UNL     1      26.539   7.862  48.103  1.00  0.00     0.167 HD
ENDBRANCH  20  21
ENDBRANCH  19  20
ENDBRANCH  18  19
ENDBRANCH  16  18
ENDBRANCH   1  16
TORSDOF 5
ENDMDL
MODEL 4
REMARK VINA RESULT:      -7.6      3.397      6.651
REMARK  5 active torsions:
REMARK  status: ('A' for Active; 'I' for Inactive)
REMARK    1  A    between atoms: N1_5  and  C4_6 
REMARK    2  A    between atoms: C4_6  and  C5_7 
REMARK    3  A    between atoms: C5_7  and  C6_8 
REMARK    4  A    between atoms: C6_8  and  N2_9 
REMARK    5  A    between atoms: N2_9  and  C7_10 
ROOT
HETATM    1  C7  UNL     1      23.368   4.645  52.468  1.00  0.00     0.242 A 
HETATM    2  N3  UNL     1      22.147   4.602  52.292  1.00  0.00    -0.222 NA
HETATM    3  C8  UNL     1      21.477   3.391  52.297  1.00  0.00     0.152 A 
HETATM    4  C9  UNL     1      22.126   2.118  52.502  1.00  0.00     0.076 A 
HETATM    5  C10 UNL     1      21.408   0.964  52.445  1.00  0.00     0.035 A 
HETATM    6  C11 UNL     1      22.764   0.209  52.683  1.00  0.00     0.036 A 
HETATM    7  C12 UNL     1      23.822   1.203  52.789  1.00  0.00     0.087 A 
HETATM    8  C13 UNL     1      24.783   0.192  52.920  1.00  0.00     0.126 A 
HETATM    9  C14 UNL     1      25.787  -0.680  53.067  1.00  0.00     0.308 A 
HETATM   10  C15 UNL     1      27.227  -0.819  53.257  1.00  0.00     0.293 A 
HETATM   11  N4  UNL     1      27.053   0.374  53.225  1.00  0.00     0.050 N 
HETATM   12  C16 UNL     1      28.476   0.832  53.473  1.00  0.00     0.306 C 
HETATM   13  N5  UNL     1      25.954   1.196  53.057  1.00  0.00    -0.083 NA
HETATM   14  N6  UNL     1      23.427   2.396  52.676  1.00  0.00    -0.227 N 
HETATM   15  N7  UNL     1      24.175   3.507  52.704  1.00  0.00    -0.128 NA
ENDROOT
BRANCH   1  16
HETATM   16  N2  UNL     1      23.862   5.994  52.265  1.00  0.00    -0.354 N 
HETATM   17  H9  UNL     1      24.296   6.314  53.137  1.00  0.00     0.163 HD
BRANCH  16  18
HETATM   18  C6  UNL     1      23.618   6.394  50.800  1.00  0.00     0.151 C 
BRANCH  18  19
HETATM   19  C5  UNL     1      25.031   6.007  50.222  1.00  0.00     0.010 C 
BRANCH  19  20
HETATM   20  C4  UNL     1      24.661   5.089  49.124  1.00  0.00     0.087 C 
BRANCH  20  21
HETATM   21  N1  UNL     1      24.549   3.616  49.344  1.00  0.00    -0.348 N 
HETATM   22  C3  UNL     1      23.461   3.079  49.113  1.00  0.00     0.148 A 
HETATM   23  C2  UNL     1      22.508   2.009  48.923  1.00  0.00     0.205 A 
HETATM   24  O1  UNL     1      22.181   3.522  48.741  1.00  0.00    -0.323 OA
HETATM   25  C1  UNL     1      21.257   1.715  48.586  1.00  0.00     0.044 C 
HETATM   26  H4  UNL     1      25.194   2.644  49.377  1.00  0.00     0.167 HD
ENDBRANCH  20  21
ENDBRANCH  19  20
ENDBRANCH  18  19
ENDBRANCH  16  18
ENDBRANCH   1  16
TORSDOF 5
ENDMDL
MODEL 5
REMARK VINA RESULT:      -7.6      2.640      8.665
REMARK  5 active torsions:
REMARK  status: ('A' for Active; 'I' for Inactive)
REMARK    1  A    between atoms: N1_5  and  C4_6 
REMARK    2  A    between atoms: C4_6  and  C5_7 
REMARK    3  A    between atoms: C5_7  and  C6_8 
REMARK    4  A    between atoms: C6_8  and  N2_9 
REMARK    5  A    between atoms: N2_9  and  C7_10 
ROOT
HETATM    1  C7  UNL     1      25.981   2.858  51.327  1.00  0.00     0.242 A 
HETATM    2  N3  UNL     1      27.158   2.620  51.618  1.00  0.00    -0.222 NA
HETATM    3  C8  UNL     1      27.480   1.550  52.434  1.00  0.00     0.152 A 
HETATM    4  C9  UNL     1      26.502   0.649  52.996  1.00  0.00     0.076 A 
HETATM    5  C10 UNL     1      26.890  -0.352  53.830  1.00  0.00     0.035 A 
HETATM    6  C11 UNL     1      25.368  -0.709  53.973  1.00  0.00     0.036 A 
HETATM    7  C12 UNL     1      24.606   0.233  53.165  1.00  0.00     0.087 A 
HETATM    8  C13 UNL     1      23.404  -0.348  53.590  1.00  0.00     0.126 A 
HETATM    9  C14 UNL     1      22.197  -0.826  53.911  1.00  0.00     0.308 A 
HETATM   10  C15 UNL     1      20.761  -0.676  53.701  1.00  0.00     0.293 A 
HETATM   11  N4  UNL     1      21.247   0.181  53.005  1.00  0.00     0.050 N 
HETATM   12  C16 UNL     1      19.981   0.732  52.380  1.00  0.00     0.306 C 
HETATM   13  N5  UNL     1      22.534   0.609  52.739  1.00  0.00    -0.083 NA
HETATM   14  N6  UNL     1      25.311   1.082  52.553  1.00  0.00    -0.227 N 
HETATM   15  N7  UNL     1      24.885   2.077  51.766  1.00  0.00    -0.128 NA
ENDROOT
BRANCH   1  16
HETATM   16  N2  UNL     1      25.882   4.107  50.598  1.00  0.00    -0.354 N 
HETATM   17  H9  UNL     1      25.241   4.728  51.105  1.00  0.00     0.163 HD
BRANCH  16  18
HETATM   18  C6  UNL     1      26.835   4.053  49.393  1.00  0.00     0.151 C 
BRANCH  18  19
HETATM   19  C5  UNL     1      26.697   5.550  48.927  1.00  0.00     0.010 C 
BRANCH  19  20
HETATM   20  C4  UNL     1      27.969   5.754  48.201  1.00  0.00     0.087 C 
BRANCH  20  21
HETATM   21  N1  UNL     1      29.175   6.312  48.882  1.00  0.00    -0.348 N 
HETATM   22  C3  UNL     1      30.273   5.814  48.613  1.00  0.00     0.148 A 
HETATM   23  C2  UNL     1      31.711   5.670  48.594  1.00  0.00     0.205 A 
HETATM   24  O1  UNL     1      30.722   4.734  47.835  1.00  0.00    -0.323 OA
HETATM   25  C1  UNL     1      32.726   4.964  48.107  1.00  0.00     0.044 C 
HETATM   26  H4  UNL     1      29.571   7.285  49.391  1.00  0.00     0.167 HD
ENDBRANCH  20  21
ENDBRANCH  19  20
ENDBRANCH  18  19
ENDBRANCH  16  18
ENDBRANCH   1  16
TORSDOF 5
ENDMDL
MODEL 6
REMARK VINA RESULT:      -7.4      2.608      7.932
REMARK  5 active torsions:
REMARK  status: ('A' for Active; 'I' for Inactive)
REMARK    1  A    between atoms: N1_5  and  C4_6 
REMARK    2  A    between atoms: C4_6  and  C5_7 
REMARK    3  A    between atoms: C5_7  and  C6_8 
REMARK    4  A    between atoms: C6_8  and  N2_9 
REMARK    5  A    between atoms: N2_9  and  C7_10 
ROOT
HETATM    1  C7  UNL     1      26.003   2.782  51.474  1.00  0.00     0.242 A 
HETATM    2  N3  UNL     1      27.190   2.548  51.719  1.00  0.00    -0.222 NA
HETATM    3  C8  UNL     1      27.549   1.464  52.503  1.00  0.00     0.152 A 
HETATM    4  C9  UNL     1      26.597   0.546  53.081  1.00  0.00     0.076 A 
HETATM    5  C10 UNL     1      27.021  -0.469  53.882  1.00  0.00     0.035 A 
HETATM    6  C11 UNL     1      25.507  -0.840  54.069  1.00  0.00     0.036 A 
HETATM    7  C12 UNL     1      24.711   0.111  53.306  1.00  0.00     0.087 A 
HETATM    8  C13 UNL     1      23.529  -0.487  53.761  1.00  0.00     0.126 A 
HETATM    9  C14 UNL     1      22.336  -0.980  54.114  1.00  0.00     0.308 A 
HETATM   10  C15 UNL     1      20.893  -0.838  53.956  1.00  0.00     0.293 A 
HETATM   11  N4  UNL     1      21.348   0.036  53.260  1.00  0.00     0.050 N 
HETATM   12  C16 UNL     1      20.058   0.589  52.690  1.00  0.00     0.306 C 
HETATM   13  N5  UNL     1      22.623   0.479  52.959  1.00  0.00    -0.083 NA
HETATM   14  N6  UNL     1      25.388   0.977  52.688  1.00  0.00    -0.227 N 
HETATM   15  N7  UNL     1      24.928   1.984  51.934  1.00  0.00    -0.128 NA
ENDROOT
BRANCH   1  16
HETATM   16  N2  UNL     1      25.869   4.044  50.773  1.00  0.00    -0.354 N 
HETATM   17  H9  UNL     1      25.275   4.664  51.334  1.00  0.00     0.163 HD
BRANCH  16  18
HETATM   18  C6  UNL     1      26.734   3.997  49.502  1.00  0.00     0.151 C 
BRANCH  18  19
HETATM   19  C5  UNL     1      26.281   5.365  48.869  1.00  0.00     0.010 C 
BRANCH  19  20
HETATM   20  C4  UNL     1      24.887   5.468  49.349  1.00  0.00     0.087 C 
BRANCH  20  21
HETATM   21  N1  UNL     1      23.729   5.277  48.427  1.00  0.00    -0.348 N 
HETATM   22  C3  UNL     1      23.213   4.156  48.372  1.00  0.00     0.148 A 
HETATM   23  C2  UNL     1      22.248   3.140  48.016  1.00  0.00     0.205 A 
HETATM   24  O1  UNL     1      23.486   2.896  48.930  1.00  0.00    -0.323 OA
HETATM   25  C1  UNL     1      21.899   1.868  48.176  1.00  0.00     0.044 C 
HETATM   26  H4  UNL     1      22.866   5.866  47.907  1.00  0.00     0.167 HD
ENDBRANCH  20  21
ENDBRANCH  19  20
ENDBRANCH  18  19
ENDBRANCH  16  18
ENDBRANCH   1  16
TORSDOF 5
ENDMDL
MODEL 7
REMARK VINA RESULT:      -7.4      3.684      9.038
REMARK  5 active torsions:
REMARK  status: ('A' for Active; 'I' for Inactive)
REMARK    1  A    between atoms: N1_5  and  C4_6 
REMARK    2  A    between atoms: C4_6  and  C5_7 
REMARK    3  A    between atoms: C5_7  and  C6_8 
REMARK    4  A    between atoms: C6_8  and  N2_9 
REMARK    5  A    between atoms: N2_9  and  C7_10 
ROOT
HETATM    1  C7  UNL     1      22.961   1.471  51.698  1.00  0.00     0.242 A 
HETATM    2  N3  UNL     1      23.940   1.228  52.410  1.00  0.00    -0.222 NA
HETATM    3  C8  UNL     1      23.846   0.321  53.451  1.00  0.00     0.152 A 
HETATM    4  C9  UNL     1      22.637  -0.396  53.782  1.00  0.00     0.076 A 
HETATM    5  C10 UNL     1      22.607  -1.236  54.851  1.00  0.00     0.035 A 
HETATM    6  C11 UNL     1      21.092  -1.470  54.516  1.00  0.00     0.036 A 
HETATM    7  C12 UNL     1      20.755  -0.663  53.353  1.00  0.00     0.087 A 
HETATM    8  C13 UNL     1      19.420  -1.080  53.427  1.00  0.00     0.126 A 
HETATM    9  C14 UNL     1      18.126  -1.416  53.387  1.00  0.00     0.308 A 
HETATM   10  C15 UNL     1      16.867  -1.228  52.673  1.00  0.00     0.293 A 
HETATM   11  N4  UNL     1      17.653  -0.553  52.056  1.00  0.00     0.050 N 
HETATM   12  C16 UNL     1      16.738  -0.063  50.953  1.00  0.00     0.306 C 
HETATM   13  N5  UNL     1      18.999  -0.259  52.184  1.00  0.00    -0.083 NA
HETATM   14  N6  UNL     1      21.718   0.009  52.891  1.00  0.00    -0.227 N 
HETATM   15  N7  UNL     1      21.696   0.855  51.853  1.00  0.00    -0.128 NA
ENDROOT
BRANCH   1  16
HETATM   16  N2  UNL     1      23.256   2.558  50.784  1.00  0.00    -0.354 N 
HETATM   17  H9  UNL     1      22.595   2.512  50.002  1.00  0.00     0.163 HD
BRANCH  16  18
HETATM   18  C6  UNL     1      24.391   3.409  51.380  1.00  0.00     0.151 C 
BRANCH  18  19
HETATM   19  C5  UNL     1      25.340   3.432  50.124  1.00  0.00     0.010 C 
BRANCH  19  20
HETATM   20  C4  UNL     1      26.624   2.999  50.713  1.00  0.00     0.087 C 
BRANCH  20  21
HETATM   21  N1  UNL     1      26.725   1.759  51.539  1.00  0.00    -0.348 N 
HETATM   22  C3  UNL     1      27.571   1.731  52.439  1.00  0.00     0.148 A 
HETATM   23  C2  UNL     1      28.277   1.238  53.599  1.00  0.00     0.205 A 
HETATM   24  O1  UNL     1      28.591   2.587  52.885  1.00  0.00    -0.323 OA
HETATM   25  C1  UNL     1      29.239   1.499  54.478  1.00  0.00     0.044 C 
HETATM   26  H4  UNL     1      26.097   0.842  51.894  1.00  0.00     0.167 HD
ENDBRANCH  20  21
ENDBRANCH  19  20
ENDBRANCH  18  19
ENDBRANCH  16  18
ENDBRANCH   1  16
TORSDOF 5
ENDMDL
MODEL 8
REMARK VINA RESULT:      -7.2      3.097      7.636
REMARK  5 active torsions:
REMARK  status: ('A' for Active; 'I' for Inactive)
REMARK    1  A    between atoms: N1_5  and  C4_6 
REMARK    2  A    between atoms: C4_6  and  C5_7 
REMARK    3  A    between atoms: C5_7  and  C6_8 
REMARK    4  A    between atoms: C6_8  and  N2_9 
REMARK    5  A    between atoms: N2_9  and  C7_10 
ROOT
HETATM    1  C7  UNL     1      26.459   2.649  51.483  1.00  0.00     0.242 A 
HETATM    2  N3  UNL     1      27.576   2.558  52.002  1.00  0.00    -0.222 NA
HETATM    3  C8  UNL     1      27.803   1.666  53.035  1.00  0.00     0.152 A 
HETATM    4  C9  UNL     1      26.788   0.793  53.576  1.00  0.00     0.076 A 
HETATM    5  C10 UNL     1      27.072  -0.024  54.625  1.00  0.00     0.035 A 
HETATM    6  C11 UNL     1      25.569  -0.474  54.572  1.00  0.00     0.036 A 
HETATM    7  C12 UNL     1      24.916   0.257  53.497  1.00  0.00     0.087 A 
HETATM    8  C13 UNL     1      23.689  -0.341  53.811  1.00  0.00     0.126 A 
HETATM    9  C14 UNL     1      22.470  -0.855  54.006  1.00  0.00     0.308 A 
HETATM   10  C15 UNL     1      21.088  -0.859  53.537  1.00  0.00     0.293 A 
HETATM   11  N4  UNL     1      21.645  -0.092  52.792  1.00  0.00     0.050 N 
HETATM   12  C16 UNL     1      20.484   0.246  51.878  1.00  0.00     0.306 C 
HETATM   13  N5  UNL     1      22.936   0.391  52.673  1.00  0.00    -0.083 NA
HETATM   14  N6  UNL     1      25.674   1.049  52.872  1.00  0.00    -0.227 N 
HETATM   15  N7  UNL     1      25.344   1.865  51.862  1.00  0.00    -0.128 NA
ENDROOT
BRANCH   1  16
HETATM   16  N2  UNL     1      26.427   3.750  50.539  1.00  0.00    -0.354 N 
HETATM   17  H9  UNL     1      27.376   4.130  50.454  1.00  0.00     0.163 HD
BRANCH  16  18
HETATM   18  C6  UNL     1      25.003   3.871  49.970  1.00  0.00     0.151 C 
BRANCH  18  19
HETATM   19  C5  UNL     1      24.853   5.435  50.067  1.00  0.00     0.010 C 
BRANCH  19  20
HETATM   20  C4  UNL     1      24.053   5.581  51.302  1.00  0.00     0.087 C 
BRANCH  20  21
HETATM   21  N1  UNL     1      23.339   4.421  51.910  1.00  0.00    -0.348 N 
HETATM   22  C3  UNL     1      22.114   4.351  51.759  1.00  0.00     0.148 A 
HETATM   23  C2  UNL     1      20.789   3.776  51.802  1.00  0.00     0.205 A 
HETATM   24  O1  UNL     1      21.126   5.169  51.187  1.00  0.00    -0.323 OA
HETATM   25  C1  UNL     1      19.515   3.956  51.469  1.00  0.00     0.044 C 
HETATM   26  H4  UNL     1      23.511   3.320  52.257  1.00  0.00     0.167 HD
ENDBRANCH  20  21
ENDBRANCH  19  20
ENDBRANCH  18  19
ENDBRANCH  16  18
ENDBRANCH   1  16
TORSDOF 5
ENDMDL
MODEL 9
REMARK VINA RESULT:      -7.2      2.333      7.469
REMARK  5 active torsions:
REMARK  status: ('A' for Active; 'I' for Inactive)
REMARK    1  A    between atoms: N1_5  and  C4_6 
REMARK    2  A    between atoms: C4_6  and  C5_7 
REMARK    3  A    between atoms: C5_7  and  C6_8 
REMARK    4  A    between atoms: C6_8  and  N2_9 
REMARK    5  A    between atoms: N2_9  and  C7_10 
ROOT
HETATM    1  C7  UNL     1      23.586   2.262  50.556  1.00  0.00     0.242 A 
HETATM    2  N3  UNL     1      22.441   1.802  50.523  1.00  0.00    -0.222 NA
HETATM    3  C8  UNL     1      22.033   0.860  51.451  1.00  0.00     0.152 A 
HETATM    4  C9  UNL     1      22.882   0.353  52.503  1.00  0.00     0.076 A 
HETATM    5  C10 UNL     1      22.426  -0.609  53.350  1.00  0.00     0.035 A 
HETATM    6  C11 UNL     1      23.850  -0.582  54.010  1.00  0.00     0.036 A 
HETATM    7  C12 UNL     1      24.659   0.398  53.300  1.00  0.00     0.087 A 
HETATM    8  C13 UNL     1      25.769   0.084  54.094  1.00  0.00     0.126 A 
HETATM    9  C14 UNL     1      26.890  -0.118  54.796  1.00  0.00     0.308 A 
HETATM   10  C15 UNL     1      28.281   0.289  54.965  1.00  0.00     0.293 A 
HETATM   11  N4  UNL     1      27.880   0.989  54.068  1.00  0.00     0.050 N 
HETATM   12  C16 UNL     1      29.126   1.819  53.833  1.00  0.00     0.306 C 
HETATM   13  N5  UNL     1      26.680   1.121  53.394  1.00  0.00    -0.083 NA
HETATM   14  N6  UNL     1      24.057   0.984  52.358  1.00  0.00    -0.227 N 
HETATM   15  N7  UNL     1      24.555   1.904  51.523  1.00  0.00    -0.128 NA
ENDROOT
BRANCH   1  16
HETATM   16  N2  UNL     1      23.827   3.105  49.400  1.00  0.00    -0.354 N 
HETATM   17  H9  UNL     1      24.367   2.566  48.714  1.00  0.00     0.163 HD
BRANCH  16  18
HETATM   18  C6  UNL     1      23.112   4.450  49.612  1.00  0.00     0.151 C 
BRANCH  18  19
HETATM   19  C5  UNL     1      24.337   5.275  50.157  1.00  0.00     0.010 C 
BRANCH  19  20
HETATM   20  C4  UNL     1      25.287   5.177  49.029  1.00  0.00     0.087 C 
BRANCH  20  21
HETATM   21  N1  UNL     1      26.280   6.255  48.749  1.00  0.00    -0.348 N 
HETATM   22  C3  UNL     1      27.450   5.923  48.534  1.00  0.00     0.148 A 
HETATM   23  C2  UNL     1      28.836   6.068  48.152  1.00  0.00     0.205 A 
HETATM   24  O1  UNL     1      28.171   4.717  48.554  1.00  0.00    -0.323 OA
HETATM   25  C1  UNL     1      29.981   5.424  47.948  1.00  0.00     0.044 C 
HETATM   26  H4  UNL     1      26.356   7.346  48.342  1.00  0.00     0.167 HD
ENDBRANCH  20  21
ENDBRANCH  19  20
ENDBRANCH  18  19
ENDBRANCH  16  18
ENDBRANCH   1  16
TORSDOF 5
ENDMDL
