MODEL 1
REMARK VINA RESULT:      -9.4      0.000      0.000
REMARK  1 active torsions:
REMARK  status: ('A' for Active; 'I' for Inactive)
REMARK    1  A    between atoms: C14_15  and  O1_16 
ROOT
HETATM    1  C1  UNL     1      26.071   0.456  54.541  1.00  0.00     0.036 C 
HETATM    2  C2  UNL     1      25.784   0.028  53.113  1.00  0.00     0.102 C 
HETATM    3  C3  UNL     1      26.121   1.072  52.146  1.00  0.00    -0.002 C 
HETATM    4  C4  UNL     1      26.737   1.762  51.220  1.00  0.00    -0.002 C 
HETATM    5  C5  UNL     1      26.588   2.963  50.498  1.00  0.00    -0.000 C 
HETATM    6  C6  UNL     1      25.797   3.984  50.363  1.00  0.00    -0.000 C 
HETATM    7  C7  UNL     1      25.911   5.120  49.495  1.00  0.00    -0.002 C 
HETATM    8  C8  UNL     1      26.437   5.884  48.588  1.00  0.00     0.003 C 
HETATM    9  C9  UNL     1      25.891   7.194  48.074  1.00  0.00     0.299 C 
HETATM   10  N1  UNL     1      24.599   7.426  48.730  1.00  0.00     0.090 N 
HETATM   11  C10 UNL     1      24.262   8.810  48.308  1.00  0.00     0.310 C 
HETATM   12  C11 UNL     1      23.671   6.606  47.915  1.00  0.00     0.299 C 
HETATM   13  C12 UNL     1      22.351   6.534  48.533  1.00  0.00     0.002 C 
HETATM   14  C13 UNL     1      21.080   6.586  48.864  1.00  0.00     0.004 C 
HETATM   15  C14 UNL     1      20.343   6.116  50.115  1.00  0.00     0.168 C 
HETATM   16  C15 UNL     1      21.019   4.793  50.538  1.00  0.00     0.305 C 
HETATM   17  N2  UNL     1      20.952   3.864  49.449  1.00  0.00     0.090 NA
HETATM   18  C16 UNL     1      21.739   2.723  49.700  1.00  0.00     0.315 C 
HETATM   19  C17 UNL     1      21.437   2.050  50.903  1.00  0.00     0.013 A 
HETATM   20  C18 UNL     1      22.468   1.260  51.438  1.00  0.00     0.034 A 
HETATM   21  C19 UNL     1      22.232   0.587  52.607  1.00  0.00     0.046 A 
HETATM   22  C20 UNL     1      23.118  -0.205  53.250  1.00  0.00     0.138 A 
HETATM   23  N3  UNL     1      22.744  -0.791  54.385  1.00  0.00    -0.224 NA
HETATM   24  C21 UNL     1      21.548  -0.686  54.987  1.00  0.00     0.236 A 
HETATM   25  N4  UNL     1      20.671   0.109  54.334  1.00  0.00    -0.234 NA
HETATM   26  C22 UNL     1      20.994   0.718  53.201  1.00  0.00     0.113 A 
HETATM   27  S1  UNL     1      20.135   1.780  52.140  1.00  0.00    -0.072 SA
HETATM   28  N5  UNL     1      24.477  -0.570  52.954  1.00  0.00    -0.367 N 
HETATM   29  H24 UNL     1      21.108   4.234  48.509  1.00  0.00     0.316 HD
HETATM   30  H29 UNL     1      24.356  -1.533  52.508  1.00  0.00     0.161 HD
ENDROOT
BRANCH  15  31
HETATM   31  O1  UNL     1      19.016   5.915  49.788  1.00  0.00    -0.390 OA
HETATM   32  H21 UNL     1      18.391   6.214  50.519  1.00  0.00     0.210 HD
ENDBRANCH  15  31
TORSDOF 1
ENDMDL
MODEL 2
REMARK VINA RESULT:      -9.2      1.944      2.697
REMARK  1 active torsions:
REMARK  status: ('A' for Active; 'I' for Inactive)
REMARK    1  A    between atoms: C14_15  and  O1_16 
ROOT
HETATM    1  C1  UNL     1      27.471   1.761  53.826  1.00  0.00     0.036 C 
HETATM    2  C2  UNL     1      27.041   1.050  52.555  1.00  0.00     0.102 C 
HETATM    3  C3  UNL     1      26.536   1.982  51.547  1.00  0.00    -0.002 C 
HETATM    4  C4  UNL     1      26.446   2.741  50.485  1.00  0.00    -0.002 C 
HETATM    5  C5  UNL     1      25.533   3.617  49.864  1.00  0.00    -0.000 C 
HETATM    6  C6  UNL     1      24.342   4.118  50.001  1.00  0.00    -0.000 C 
HETATM    7  C7  UNL     1      23.636   5.040  49.159  1.00  0.00    -0.002 C 
HETATM    8  C8  UNL     1      23.441   5.824  48.143  1.00  0.00     0.003 C 
HETATM    9  C9  UNL     1      22.206   6.638  47.848  1.00  0.00     0.299 C 
HETATM   10  N1  UNL     1      21.211   6.330  48.882  1.00  0.00     0.090 N 
HETATM   11  C10 UNL     1      20.137   7.320  48.608  1.00  0.00     0.310 C 
HETATM   12  C11 UNL     1      20.615   5.065  48.389  1.00  0.00     0.299 C 
HETATM   13  C12 UNL     1      19.735   4.472  49.390  1.00  0.00     0.002 C 
HETATM   14  C13 UNL     1      18.753   3.970  50.107  1.00  0.00     0.004 C 
HETATM   15  C14 UNL     1      18.728   3.393  51.519  1.00  0.00     0.168 C 
HETATM   16  C15 UNL     1      20.052   2.614  51.688  1.00  0.00     0.305 C 
HETATM   17  N2  UNL     1      20.142   1.618  50.662  1.00  0.00     0.090 NA
HETATM   18  C16 UNL     1      21.420   1.027  50.634  1.00  0.00     0.315 C 
HETATM   19  C17 UNL     1      21.839   0.469  51.860  1.00  0.00     0.013 A 
HETATM   20  C18 UNL     1      23.227   0.337  52.032  1.00  0.00     0.034 A 
HETATM   21  C19 UNL     1      23.691  -0.194  53.205  1.00  0.00     0.046 A 
HETATM   22  C20 UNL     1      24.992  -0.380  53.523  1.00  0.00     0.138 A 
HETATM   23  N3  UNL     1      25.289  -0.905  54.709  1.00  0.00    -0.224 NA
HETATM   24  C21 UNL     1      24.421  -1.287  55.660  1.00  0.00     0.236 A 
HETATM   25  N4  UNL     1      23.124  -1.096  55.329  1.00  0.00    -0.234 NA
HETATM   26  C22 UNL     1      22.773  -0.575  54.161  1.00  0.00     0.113 A 
HETATM   27  S1  UNL     1      21.246  -0.200  53.442  1.00  0.00    -0.072 SA
HETATM   28  N5  UNL     1      26.208  -0.105  52.808  1.00  0.00    -0.367 N 
HETATM   29  H24 UNL     1      19.825   1.881  49.726  1.00  0.00     0.316 HD
HETATM   30  H29 UNL     1      26.453  -1.065  52.409  1.00  0.00     0.161 HD
ENDROOT
BRANCH  15  31
HETATM   31  O1  UNL     1      17.638   2.551  51.625  1.00  0.00    -0.390 OA
HETATM   32  H21 UNL     1      17.470   2.258  52.574  1.00  0.00     0.210 HD
ENDBRANCH  15  31
TORSDOF 1
ENDMDL
MODEL 3
REMARK VINA RESULT:      -9.0      3.063      6.870
REMARK  1 active torsions:
REMARK  status: ('A' for Active; 'I' for Inactive)
REMARK    1  A    between atoms: C14_15  and  O1_16 
ROOT
HETATM    1  C1  UNL     1      25.830  -1.109  53.038  1.00  0.00     0.036 C 
HETATM    2  C2  UNL     1      25.073  -0.148  53.938  1.00  0.00     0.102 C 
HETATM    3  C3  UNL     1      23.665  -0.517  54.077  1.00  0.00    -0.002 C 
HETATM    4  C4  UNL     1      22.538  -0.974  54.561  1.00  0.00    -0.002 C 
HETATM    5  C5  UNL     1      21.185  -1.109  54.188  1.00  0.00    -0.000 C 
HETATM    6  C6  UNL     1      20.364  -0.861  53.214  1.00  0.00    -0.000 C 
HETATM    7  C7  UNL     1      18.958  -1.127  53.114  1.00  0.00    -0.002 C 
HETATM    8  C8  UNL     1      17.790  -1.550  53.492  1.00  0.00     0.003 C 
HETATM    9  C9  UNL     1      16.503  -1.486  52.708  1.00  0.00     0.299 C 
HETATM   10  N1  UNL     1      16.781  -0.783  51.450  1.00  0.00     0.090 N 
HETATM   11  C10 UNL     1      15.516  -0.958  50.690  1.00  0.00     0.310 C 
HETATM   12  C11 UNL     1      16.718   0.641  51.857  1.00  0.00     0.299 C 
HETATM   13  C12 UNL     1      17.176   1.516  50.783  1.00  0.00     0.002 C 
HETATM   14  C13 UNL     1      17.341   2.404  49.827  1.00  0.00     0.004 C 
HETATM   15  C14 UNL     1      18.551   2.740  48.960  1.00  0.00     0.168 C 
HETATM   16  C15 UNL     1      19.786   2.612  49.879  1.00  0.00     0.305 C 
HETATM   17  N2  UNL     1      19.625   3.485  51.003  1.00  0.00     0.090 NA
HETATM   18  C16 UNL     1      20.613   3.251  51.979  1.00  0.00     0.315 C 
HETATM   19  C17 UNL     1      21.940   3.340  51.509  1.00  0.00     0.013 A 
HETATM   20  C18 UNL     1      22.904   2.645  52.259  1.00  0.00     0.034 A 
HETATM   21  C19 UNL     1      24.208   2.693  51.846  1.00  0.00     0.046 A 
HETATM   22  C20 UNL     1      25.247   2.076  52.453  1.00  0.00     0.138 A 
HETATM   23  N3  UNL     1      26.463   2.211  51.929  1.00  0.00    -0.224 NA
HETATM   24  C21 UNL     1      26.793   2.912  50.832  1.00  0.00     0.236 A 
HETATM   25  N4  UNL     1      25.744   3.524  50.235  1.00  0.00    -0.234 NA
HETATM   26  C22 UNL     1      24.512   3.420  50.715  1.00  0.00     0.113 A 
HETATM   27  S1  UNL     1      22.986   4.053  50.206  1.00  0.00    -0.072 SA
HETATM   28  N5  UNL     1      25.324   1.240  53.620  1.00  0.00    -0.367 N 
HETATM   29  H24 UNL     1      18.692   3.550  51.416  1.00  0.00     0.316 HD
HETATM   30  H29 UNL     1      25.654   1.931  54.365  1.00  0.00     0.161 HD
ENDROOT
BRANCH  15  31
HETATM   31  O1  UNL     1      18.407   4.034  48.496  1.00  0.00    -0.390 OA
HETATM   32  H21 UNL     1      17.756   4.097  47.730  1.00  0.00     0.210 HD
ENDBRANCH  15  31
TORSDOF 1
ENDMDL
MODEL 4
REMARK VINA RESULT:      -8.6      2.601      4.927
REMARK  1 active torsions:
REMARK  status: ('A' for Active; 'I' for Inactive)
REMARK    1  A    between atoms: C14_15  and  O1_16 
ROOT
HETATM    1  C1  UNL     1      18.805   0.402  51.042  1.00  0.00     0.036 C 
HETATM    2  C2  UNL     1      19.089   1.613  51.912  1.00  0.00     0.102 C 
HETATM    3  C3  UNL     1      19.259   2.831  51.121  1.00  0.00    -0.002 C 
HETATM    4  C4  UNL     1      19.040   3.991  50.554  1.00  0.00    -0.002 C 
HETATM    5  C5  UNL     1      19.687   4.910  49.705  1.00  0.00    -0.000 C 
HETATM    6  C6  UNL     1      20.797   5.099  49.059  1.00  0.00    -0.000 C 
HETATM    7  C7  UNL     1      21.195   6.198  48.226  1.00  0.00    -0.002 C 
HETATM    8  C8  UNL     1      21.083   7.337  47.615  1.00  0.00     0.003 C 
HETATM    9  C9  UNL     1      22.112   8.000  46.733  1.00  0.00     0.299 C 
HETATM   10  N1  UNL     1      23.316   7.161  46.744  1.00  0.00     0.090 N 
HETATM   11  C10 UNL     1      24.166   7.795  45.704  1.00  0.00     0.310 C 
HETATM   12  C11 UNL     1      23.984   7.572  48.001  1.00  0.00     0.299 C 
HETATM   13  C12 UNL     1      25.111   6.697  48.309  1.00  0.00     0.002 C 
HETATM   14  C13 UNL     1      26.271   6.132  48.565  1.00  0.00     0.004 C 
HETATM   15  C14 UNL     1      26.641   4.686  48.880  1.00  0.00     0.168 C 
HETATM   16  C15 UNL     1      25.497   4.132  49.760  1.00  0.00     0.305 C 
HETATM   17  N2  UNL     1      25.361   4.957  50.923  1.00  0.00     0.090 NA
HETATM   18  C16 UNL     1      24.199   4.630  51.649  1.00  0.00     0.315 C 
HETATM   19  C17 UNL     1      24.099   3.275  52.026  1.00  0.00     0.013 A 
HETATM   20  C18 UNL     1      22.800   2.802  52.279  1.00  0.00     0.034 A 
HETATM   21  C19 UNL     1      22.644   1.493  52.645  1.00  0.00     0.046 A 
HETATM   22  C20 UNL     1      21.466   0.888  52.915  1.00  0.00     0.138 A 
HETATM   23  N3  UNL     1      21.472  -0.399  53.254  1.00  0.00    -0.224 NA
HETATM   24  C21 UNL     1      22.548  -1.195  53.366  1.00  0.00     0.236 A 
HETATM   25  N4  UNL     1      23.720  -0.578  53.093  1.00  0.00    -0.234 NA
HETATM   26  C22 UNL     1      23.769   0.701  52.748  1.00  0.00     0.113 A 
HETATM   27  S1  UNL     1      25.066   1.769  52.338  1.00  0.00    -0.072 SA
HETATM   28  N5  UNL     1      20.111   1.368  52.905  1.00  0.00    -0.367 N 
HETATM   29  H24 UNL     1      25.457   5.967  50.795  1.00  0.00     0.316 HD
HETATM   30  H29 UNL     1      19.937   1.560  53.942  1.00  0.00     0.161 HD
ENDROOT
BRANCH  15  31
HETATM   31  O1  UNL     1      27.841   4.684  49.565  1.00  0.00    -0.390 OA
HETATM   32  H21 UNL     1      27.731   4.418  50.530  1.00  0.00     0.210 HD
ENDBRANCH  15  31
TORSDOF 1
ENDMDL
MODEL 5
REMARK VINA RESULT:      -8.4      2.934      6.984
REMARK  1 active torsions:
REMARK  status: ('A' for Active; 'I' for Inactive)
REMARK    1  A    between atoms: C14_15  and  O1_16 
ROOT
HETATM    1  C1  UNL     1      20.732   3.953  46.067  1.00  0.00     0.036 C 
HETATM    2  C2  UNL     1      20.829   4.753  47.353  1.00  0.00     0.102 C 
HETATM    3  C3  UNL     1      22.059   4.463  48.090  1.00  0.00    -0.002 C 
HETATM    4  C4  UNL     1      23.261   4.563  48.598  1.00  0.00    -0.002 C 
HETATM    5  C5  UNL     1      24.144   3.833  49.419  1.00  0.00    -0.000 C 
HETATM    6  C6  UNL     1      24.237   2.724  50.089  1.00  0.00    -0.000 C 
HETATM    7  C7  UNL     1      25.324   2.222  50.878  1.00  0.00    -0.002 C 
HETATM    8  C8  UNL     1      26.500   2.215  51.428  1.00  0.00     0.003 C 
HETATM    9  C9  UNL     1      27.084   1.139  52.310  1.00  0.00     0.299 C 
HETATM   10  N1  UNL     1      26.051   0.115  52.507  1.00  0.00     0.090 N 
HETATM   11  C10 UNL     1      26.793  -0.967  53.206  1.00  0.00     0.310 C 
HETATM   12  C11 UNL     1      25.227   0.694  53.594  1.00  0.00     0.299 C 
HETATM   13  C12 UNL     1      24.009  -0.082  53.803  1.00  0.00     0.002 C 
HETATM   14  C13 UNL     1      23.011  -0.820  54.236  1.00  0.00     0.004 C 
HETATM   15  C14 UNL     1      21.727  -1.282  53.553  1.00  0.00     0.168 C 
HETATM   16  C15 UNL     1      21.261  -0.100  52.674  1.00  0.00     0.305 C 
HETATM   17  N2  UNL     1      21.088   1.058  53.500  1.00  0.00     0.090 NA
HETATM   18  C16 UNL     1      20.876   2.214  52.723  1.00  0.00     0.315 C 
HETATM   19  C17 UNL     1      19.799   2.126  51.816  1.00  0.00     0.013 A 
HETATM   20  C18 UNL     1      19.856   2.992  50.711  1.00  0.00     0.034 A 
HETATM   21  C19 UNL     1      18.839   2.947  49.796  1.00  0.00     0.046 A 
HETATM   22  C20 UNL     1      18.750   3.708  48.682  1.00  0.00     0.138 A 
HETATM   23  N3  UNL     1      17.699   3.546  47.881  1.00  0.00    -0.224 NA
HETATM   24  C21 UNL     1      16.680   2.689  48.055  1.00  0.00     0.236 A 
HETATM   25  N4  UNL     1      16.781   1.934  49.173  1.00  0.00    -0.234 NA
HETATM   26  C22 UNL     1      17.808   2.054  50.003  1.00  0.00     0.113 A 
HETATM   27  S1  UNL     1      18.237   1.261  51.479  1.00  0.00    -0.072 SA
HETATM   28  N5  UNL     1      19.612   4.719  48.134  1.00  0.00    -0.367 N 
HETATM   29  H24 UNL     1      21.782   1.216  54.234  1.00  0.00     0.316 HD
HETATM   30  H29 UNL     1      19.131   5.617  48.454  1.00  0.00     0.161 HD
ENDROOT
BRANCH  15  31
HETATM   31  O1  UNL     1      20.795  -1.572  54.531  1.00  0.00    -0.390 OA
HETATM   32  H21 UNL     1      21.054  -2.375  55.081  1.00  0.00     0.210 HD
ENDBRANCH  15  31
TORSDOF 1
ENDMDL
MODEL 6
REMARK VINA RESULT:      -8.4      6.647     11.200
REMARK  1 active torsions:
REMARK  status: ('A' for Active; 'I' for Inactive)
REMARK    1  A    between atoms: C14_15  and  O1_16 
ROOT
HETATM    1  C1  UNL     1      33.522   6.119  44.585  1.00  0.00     0.036 C 
HETATM    2  C2  UNL     1      33.615   6.269  46.093  1.00  0.00     0.102 C 
HETATM    3  C3  UNL     1      32.442   5.721  46.774  1.00  0.00    -0.002 C 
HETATM    4  C4  UNL     1      31.655   4.935  47.464  1.00  0.00    -0.002 C 
HETATM    5  C5  UNL     1      30.323   4.883  47.922  1.00  0.00    -0.000 C 
HETATM    6  C6  UNL     1      29.211   5.554  47.912  1.00  0.00    -0.000 C 
HETATM    7  C7  UNL     1      27.943   5.230  48.499  1.00  0.00    -0.002 C 
HETATM    8  C8  UNL     1      27.077   4.529  49.164  1.00  0.00     0.003 C 
HETATM    9  C9  UNL     1      25.636   4.884  49.435  1.00  0.00     0.299 C 
HETATM   10  N1  UNL     1      25.393   6.219  48.876  1.00  0.00     0.090 N 
HETATM   11  C10 UNL     1      23.922   6.372  49.021  1.00  0.00     0.310 C 
HETATM   12  C11 UNL     1      25.916   7.113  49.936  1.00  0.00     0.299 C 
HETATM   13  C12 UNL     1      25.958   8.499  49.483  1.00  0.00     0.002 C 
HETATM   14  C13 UNL     1      25.826   9.791  49.276  1.00  0.00     0.004 C 
HETATM   15  C14 UNL     1      26.452  10.715  48.234  1.00  0.00     0.168 C 
HETATM   16  C15 UNL     1      27.904  10.222  48.041  1.00  0.00     0.305 C 
HETATM   17  N2  UNL     1      28.577  10.242  49.306  1.00  0.00     0.090 NA
HETATM   18  C16 UNL     1      29.828   9.601  49.230  1.00  0.00     0.315 C 
HETATM   19  C17 UNL     1      30.692  10.108  48.236  1.00  0.00     0.013 A 
HETATM   20  C18 UNL     1      31.689   9.228  47.784  1.00  0.00     0.034 A 
HETATM   21  C19 UNL     1      32.554   9.666  46.817  1.00  0.00     0.046 A 
HETATM   22  C20 UNL     1      33.558   8.941  46.274  1.00  0.00     0.138 A 
HETATM   23  N3  UNL     1      34.316   9.504  45.335  1.00  0.00    -0.224 NA
HETATM   24  C21 UNL     1      34.197  10.749  44.846  1.00  0.00     0.236 A 
HETATM   25  N4  UNL     1      33.188  11.462  45.396  1.00  0.00    -0.234 NA
HETATM   26  C22 UNL     1      32.404  10.949  46.334  1.00  0.00     0.113 A 
HETATM   27  S1  UNL     1      31.055  11.570  47.221  1.00  0.00    -0.072 SA
HETATM   28  N5  UNL     1      34.011   7.597  46.505  1.00  0.00    -0.367 N 
HETATM   29  H24 UNL     1      28.044   9.939  50.124  1.00  0.00     0.316 HD
HETATM   30  H29 UNL     1      34.843   7.752  47.158  1.00  0.00     0.161 HD
ENDROOT
BRANCH  15  31
HETATM   31  O1  UNL     1      26.426  12.005  48.727  1.00  0.00    -0.390 OA
HETATM   32  H21 UNL     1      26.897  12.657  48.121  1.00  0.00     0.210 HD
ENDBRANCH  15  31
TORSDOF 1
ENDMDL
MODEL 7
REMARK VINA RESULT:      -8.2      2.388      3.447
REMARK  1 active torsions:
REMARK  status: ('A' for Active; 'I' for Inactive)
REMARK    1  A    between atoms: C14_15  and  O1_16 
ROOT
HETATM    1  C1  UNL     1      24.938   2.146  53.043  1.00  0.00     0.036 C 
HETATM    2  C2  UNL     1      24.774   1.815  51.570  1.00  0.00     0.102 C 
HETATM    3  C3  UNL     1      25.595   2.674  50.718  1.00  0.00    -0.002 C 
HETATM    4  C4  UNL     1      26.552   3.107  49.937  1.00  0.00    -0.002 C 
HETATM    5  C5  UNL     1      26.932   4.278  49.252  1.00  0.00    -0.000 C 
HETATM    6  C6  UNL     1      26.556   5.501  49.031  1.00  0.00    -0.000 C 
HETATM    7  C7  UNL     1      27.184   6.522  48.244  1.00  0.00    -0.002 C 
HETATM    8  C8  UNL     1      28.078   7.055  47.469  1.00  0.00     0.003 C 
HETATM    9  C9  UNL     1      28.089   8.464  46.928  1.00  0.00     0.299 C 
HETATM   10  N1  UNL     1      26.854   9.121  47.370  1.00  0.00     0.090 N 
HETATM   11  C10 UNL     1      27.068  10.532  46.958  1.00  0.00     0.310 C 
HETATM   12  C11 UNL     1      25.862   8.643  46.379  1.00  0.00     0.299 C 
HETATM   13  C12 UNL     1      24.506   9.021  46.766  1.00  0.00     0.002 C 
HETATM   14  C13 UNL     1      23.286   9.497  46.883  1.00  0.00     0.004 C 
HETATM   15  C14 UNL     1      22.234   9.317  47.974  1.00  0.00     0.168 C 
HETATM   16  C15 UNL     1      22.354   7.851  48.447  1.00  0.00     0.305 C 
HETATM   17  N2  UNL     1      22.172   6.980  47.323  1.00  0.00     0.090 NA
HETATM   18  C16 UNL     1      22.485   5.647  47.652  1.00  0.00     0.315 C 
HETATM   19  C17 UNL     1      21.778   5.130  48.758  1.00  0.00     0.013 A 
HETATM   20  C18 UNL     1      22.384   4.052  49.423  1.00  0.00     0.034 A 
HETATM   21  C19 UNL     1      21.745   3.513  50.507  1.00  0.00     0.046 A 
HETATM   22  C20 UNL     1      22.198   2.481  51.254  1.00  0.00     0.138 A 
HETATM   23  N3  UNL     1      21.464   2.069  52.285  1.00  0.00    -0.224 NA
HETATM   24  C21 UNL     1      20.285   2.574  52.685  1.00  0.00     0.236 A 
HETATM   25  N4  UNL     1      19.844   3.605  51.930  1.00  0.00    -0.234 NA
HETATM   26  C22 UNL     1      20.537   4.055  50.893  1.00  0.00     0.113 A 
HETATM   27  S1  UNL     1      20.269   5.326  49.751  1.00  0.00    -0.072 SA
HETATM   28  N5  UNL     1      23.390   1.682  51.172  1.00  0.00    -0.367 N 
HETATM   29  H24 UNL     1      22.599   7.264  46.438  1.00  0.00     0.316 HD
HETATM   30  H29 UNL     1      23.036   0.807  50.672  1.00  0.00     0.161 HD
ENDROOT
BRANCH  15  31
HETATM   31  O1  UNL     1      20.991   9.562  47.423  1.00  0.00    -0.390 OA
HETATM   32  H21 UNL     1      21.050  10.065  46.553  1.00  0.00     0.210 HD
ENDBRANCH  15  31
TORSDOF 1
ENDMDL
MODEL 8
REMARK VINA RESULT:      -7.9      4.324      9.516
REMARK  1 active torsions:
REMARK  status: ('A' for Active; 'I' for Inactive)
REMARK    1  A    between atoms: C14_15  and  O1_16 
ROOT
HETATM    1  C1  UNL     1      30.697   8.034  44.923  1.00  0.00     0.036 C 
HETATM    2  C2  UNL     1      30.770   8.272  46.420  1.00  0.00     0.102 C 
HETATM    3  C3  UNL     1      30.148   7.189  47.181  1.00  0.00    -0.002 C 
HETATM    4  C4  UNL     1      29.980   6.126  47.926  1.00  0.00    -0.002 C 
HETATM    5  C5  UNL     1      28.936   5.352  48.473  1.00  0.00    -0.000 C 
HETATM    6  C6  UNL     1      27.641   5.281  48.536  1.00  0.00    -0.000 C 
HETATM    7  C7  UNL     1      26.810   4.325  49.208  1.00  0.00    -0.002 C 
HETATM    8  C8  UNL     1      26.527   3.286  49.933  1.00  0.00     0.003 C 
HETATM    9  C9  UNL     1      25.153   2.780  50.300  1.00  0.00     0.299 C 
HETATM   10  N1  UNL     1      24.171   3.723  49.753  1.00  0.00     0.090 N 
HETATM   11  C10 UNL     1      22.880   3.028  49.996  1.00  0.00     0.310 C 
HETATM   12  C11 UNL     1      24.154   4.799  50.772  1.00  0.00     0.299 C 
HETATM   13  C12 UNL     1      23.384   5.949  50.311  1.00  0.00     0.002 C 
HETATM   14  C13 UNL     1      22.535   6.933  50.108  1.00  0.00     0.004 C 
HETATM   15  C14 UNL     1      22.474   8.005  49.024  1.00  0.00     0.168 C 
HETATM   16  C15 UNL     1      23.938   8.406  48.735  1.00  0.00     0.305 C 
HETATM   17  N2  UNL     1      24.549   8.853  49.951  1.00  0.00     0.090 NA
HETATM   18  C16 UNL     1      25.938   9.025  49.793  1.00  0.00     0.315 C 
HETATM   19  C17 UNL     1      26.311   9.888  48.741  1.00  0.00     0.013 A 
HETATM   20  C18 UNL     1      27.605   9.703  48.226  1.00  0.00     0.034 A 
HETATM   21  C19 UNL     1      28.018  10.511  47.201  1.00  0.00     0.046 A 
HETATM   22  C20 UNL     1      29.226  10.455  46.594  1.00  0.00     0.138 A 
HETATM   23  N3  UNL     1      29.482  11.307  45.604  1.00  0.00    -0.224 NA
HETATM   24  C21 UNL     1      28.656  12.248  45.119  1.00  0.00     0.236 A 
HETATM   25  N4  UNL     1      27.452  12.293  45.734  1.00  0.00    -0.234 NA
HETATM   26  C22 UNL     1      27.145  11.466  46.724  1.00  0.00     0.113 A 
HETATM   27  S1  UNL     1      25.731  11.258  47.698  1.00  0.00    -0.072 SA
HETATM   28  N5  UNL     1      30.369   9.609  46.800  1.00  0.00    -0.367 N 
HETATM   29  H24 UNL     1      24.325   8.337  50.804  1.00  0.00     0.316 HD
HETATM   30  H29 UNL     1      31.002  10.232  47.394  1.00  0.00     0.161 HD
ENDROOT
BRANCH  15  31
HETATM   31  O1  UNL     1      21.752   9.076  49.512  1.00  0.00    -0.390 OA
HETATM   32  H21 UNL     1      21.437   8.928  50.457  1.00  0.00     0.210 HD
ENDBRANCH  15  31
TORSDOF 1
ENDMDL
MODEL 9
REMARK VINA RESULT:      -7.6      4.133      7.455
REMARK  1 active torsions:
REMARK  status: ('A' for Active; 'I' for Inactive)
REMARK    1  A    between atoms: C14_15  and  O1_16 
ROOT
HETATM    1  C1  UNL     1      20.849   4.542  45.585  1.00  0.00     0.036 C 
HETATM    2  C2  UNL     1      21.025   5.711  46.538  1.00  0.00     0.102 C 
HETATM    3  C3  UNL     1      21.982   6.695  46.031  1.00  0.00    -0.002 C 
HETATM    4  C4  UNL     1      22.496   7.776  45.502  1.00  0.00    -0.002 C 
HETATM    5  C5  UNL     1      23.756   8.322  45.186  1.00  0.00    -0.000 C 
HETATM    6  C6  UNL     1      25.027   8.064  45.249  1.00  0.00    -0.000 C 
HETATM    7  C7  UNL     1      26.143   8.858  44.823  1.00  0.00    -0.002 C 
HETATM    8  C8  UNL     1      26.758   9.881  44.313  1.00  0.00     0.003 C 
HETATM    9  C9  UNL     1      28.248  10.062  44.161  1.00  0.00     0.299 C 
HETATM   10  N1  UNL     1      28.903   8.898  44.768  1.00  0.00     0.090 N 
HETATM   11  C10 UNL     1      30.326   9.086  44.385  1.00  0.00     0.310 C 
HETATM   12  C11 UNL     1      28.909   9.247  46.209  1.00  0.00     0.299 C 
HETATM   13  C12 UNL     1      29.336   8.115  47.024  1.00  0.00     0.002 C 
HETATM   14  C13 UNL     1      29.921   7.257  47.831  1.00  0.00     0.004 C 
HETATM   15  C14 UNL     1      29.560   5.825  48.213  1.00  0.00     0.168 C 
HETATM   16  C15 UNL     1      28.018   5.782  48.308  1.00  0.00     0.305 C 
HETATM   17  N2  UNL     1      27.581   6.759  49.261  1.00  0.00     0.090 NA
HETATM   18  C16 UNL     1      26.182   6.914  49.229  1.00  0.00     0.315 C 
HETATM   19  C17 UNL     1      25.451   5.723  49.418  1.00  0.00     0.013 A 
HETATM   20  C18 UNL     1      24.142   5.719  48.906  1.00  0.00     0.034 A 
HETATM   21  C19 UNL     1      23.388   4.587  49.057  1.00  0.00     0.046 A 
HETATM   22  C20 UNL     1      22.120   4.423  48.617  1.00  0.00     0.138 A 
HETATM   23  N3  UNL     1      21.515   3.258  48.835  1.00  0.00    -0.224 NA
HETATM   24  C21 UNL     1      22.031   2.189  49.461  1.00  0.00     0.236 A 
HETATM   25  N4  UNL     1      23.300   2.365  49.895  1.00  0.00    -0.234 NA
HETATM   26  C22 UNL     1      23.949   3.506  49.704  1.00  0.00     0.113 A 
HETATM   27  S1  UNL     1      25.539   4.048  50.115  1.00  0.00    -0.072 SA
HETATM   28  N5  UNL     1      21.225   5.297  47.909  1.00  0.00    -0.367 N 
HETATM   29  H24 UNL     1      28.064   7.660  49.261  1.00  0.00     0.316 HD
HETATM   30  H29 UNL     1      20.611   5.673  48.699  1.00  0.00     0.161 HD
ENDROOT
BRANCH  15  31
HETATM   31  O1  UNL     1      30.142   5.541  49.434  1.00  0.00    -0.390 OA
HETATM   32  H21 UNL     1      29.529   5.021  50.040  1.00  0.00     0.210 HD
ENDBRANCH  15  31
TORSDOF 1
ENDMDL
