MODEL 1
REMARK VINA RESULT:      -8.1      0.000      0.000
REMARK  6 active torsions:
REMARK  status: ('A' for Active; 'I' for Inactive)
REMARK    1  A    between atoms: O1_2  and  C2_3 
REMARK    2  A    between atoms: C6_9  and  N3_10 
REMARK    3  A    between atoms: N3_10  and  C7_11 
REMARK    4  A    between atoms: C8_12  and  O2_13 
REMARK    5  A    between atoms: C9_14  and  C10_15 
REMARK    6  A    between atoms: C17_22  and  O3_23 
ROOT
HETATM    1  C2  UNL     1      21.838   0.097  52.788  1.00  0.00     0.081 A 
HETATM    2  C3  UNL     1      21.522   0.480  51.542  1.00  0.00     0.067 A 
HETATM    3  C4  UNL     1      22.531   1.408  51.038  1.00  0.00     0.073 A 
HETATM    4  N1  UNL     1      22.720   2.086  49.891  1.00  0.00    -0.241 NA
HETATM    5  C5  UNL     1      23.790   2.896  49.718  1.00  0.00     0.235 A 
HETATM    6  N2  UNL     1      24.724   3.061  50.697  1.00  0.00    -0.224 NA
HETATM    7  C6  UNL     1      24.545   2.386  51.851  1.00  0.00     0.137 A 
HETATM    8  C16 UNL     1      23.458   1.552  52.048  1.00  0.00     0.051 A 
HETATM    9  C17 UNL     1      23.102   0.743  53.232  1.00  0.00     0.214 A 
ENDROOT
BRANCH   7  10
HETATM   10  N3  UNL     1      25.514   2.550  52.880  1.00  0.00    -0.366 N 
HETATM   11  H6  UNL     1      25.293   3.093  53.742  1.00  0.00     0.161 HD
BRANCH  10  12
HETATM   12  C7  UNL     1      26.819   1.980  52.770  1.00  0.00     0.123 A 
HETATM   13  C8  UNL     1      27.969   2.463  53.571  1.00  0.00     0.152 A 
HETATM   14  C9  UNL     1      27.359   1.203  53.990  1.00  0.00     0.074 A 
BRANCH  13  15
HETATM   15  O2  UNL     1      29.185   2.553  52.945  1.00  0.00    -0.393 OA
HETATM   16  H9  UNL     1      29.947   2.547  53.547  1.00  0.00     0.210 HD
ENDBRANCH  13  15
BRANCH  14  17
HETATM   17  C10 UNL     1      27.924  -0.119  53.660  1.00  0.00    -0.049 A 
HETATM   18  C11 UNL     1      27.200  -1.100  53.032  1.00  0.00     0.007 A 
HETATM   19  C12 UNL     1      27.671  -2.362  52.696  1.00  0.00     0.001 A 
HETATM   20  C13 UNL     1      28.992  -2.662  53.021  1.00  0.00     0.000 A 
HETATM   21  C14 UNL     1      29.744  -1.696  53.652  1.00  0.00     0.001 A 
HETATM   22  C15 UNL     1      29.240  -0.456  53.970  1.00  0.00     0.007 A 
ENDBRANCH  14  17
ENDBRANCH  10  12
ENDBRANCH   7  10
BRANCH   9  23
HETATM   23  O3  UNL     1      24.080  -0.171  53.598  1.00  0.00    -0.384 OA
HETATM   24  H17 UNL     1      24.604  -0.418  52.774  1.00  0.00     0.211 HD
ENDBRANCH   9  23
BRANCH   1  25
HETATM   25  O1  UNL     1      21.062  -0.785  53.527  1.00  0.00    -0.357 OA
HETATM   26  C1  UNL     1      19.656  -0.621  53.477  1.00  0.00     0.209 C 
ENDBRANCH   1  25
TORSDOF 6
ENDMDL
MODEL 2
REMARK VINA RESULT:      -7.9      2.585      3.507
REMARK  6 active torsions:
REMARK  status: ('A' for Active; 'I' for Inactive)
REMARK    1  A    between atoms: O1_2  and  C2_3 
REMARK    2  A    between atoms: C6_9  and  N3_10 
REMARK    3  A    between atoms: N3_10  and  C7_11 
REMARK    4  A    between atoms: C8_12  and  O2_13 
REMARK    5  A    between atoms: C9_14  and  C10_15 
REMARK    6  A    between atoms: C17_22  and  O3_23 
ROOT
HETATM    1  C2  UNL     1      22.625   5.384  51.286  1.00  0.00     0.081 A 
HETATM    2  C3  UNL     1      21.804   4.374  50.959  1.00  0.00     0.067 A 
HETATM    3  C4  UNL     1      22.331   3.118  51.484  1.00  0.00     0.073 A 
HETATM    4  N1  UNL     1      21.939   1.831  51.461  1.00  0.00    -0.241 NA
HETATM    5  C5  UNL     1      22.666   0.860  52.060  1.00  0.00     0.235 A 
HETATM    6  N2  UNL     1      23.828   1.141  52.715  1.00  0.00    -0.224 NA
HETATM    7  C6  UNL     1      24.232   2.429  52.745  1.00  0.00     0.137 A 
HETATM    8  C16 UNL     1      23.502   3.436  52.138  1.00  0.00     0.051 A 
HETATM    9  C17 UNL     1      23.786   4.885  52.069  1.00  0.00     0.214 A 
ENDROOT
BRANCH   7  10
HETATM   10  N3  UNL     1      25.443   2.735  53.425  1.00  0.00    -0.366 N 
HETATM   11  H6  UNL     1      25.463   3.443  54.191  1.00  0.00     0.161 HD
BRANCH  10  12
HETATM   12  C7  UNL     1      26.670   2.088  53.085  1.00  0.00     0.123 A 
HETATM   13  C8  UNL     1      27.962   2.453  53.713  1.00  0.00     0.152 A 
HETATM   14  C9  UNL     1      27.336   1.215  54.170  1.00  0.00     0.074 A 
BRANCH  13  15
HETATM   15  O2  UNL     1      29.070   2.497  52.906  1.00  0.00    -0.393 OA
HETATM   16  H9  UNL     1      29.762   1.857  53.141  1.00  0.00     0.210 HD
ENDBRANCH  13  15
BRANCH  14  17
HETATM   17  C10 UNL     1      27.745  -0.122  53.699  1.00  0.00    -0.049 A 
HETATM   18  C11 UNL     1      26.874  -0.998  53.105  1.00  0.00     0.007 A 
HETATM   19  C12 UNL     1      27.195  -2.268  52.642  1.00  0.00     0.001 A 
HETATM   20  C13 UNL     1      28.513  -2.691  52.792  1.00  0.00     0.000 A 
HETATM   21  C14 UNL     1      29.412  -1.831  53.385  1.00  0.00     0.001 A 
HETATM   22  C15 UNL     1      29.054  -0.580  53.832  1.00  0.00     0.007 A 
ENDBRANCH  14  17
ENDBRANCH  10  12
ENDBRANCH   7  10
BRANCH   9  23
HETATM   23  O3  UNL     1      23.904   5.491  53.312  1.00  0.00    -0.384 OA
HETATM   24  H17 UNL     1      24.273   4.813  53.958  1.00  0.00     0.211 HD
ENDBRANCH   9  23
BRANCH   1  25
HETATM   25  O1  UNL     1      22.383   6.702  50.922  1.00  0.00    -0.357 OA
HETATM   26  C1  UNL     1      23.505   7.551  50.754  1.00  0.00     0.209 C 
ENDBRANCH   1  25
TORSDOF 6
ENDMDL
MODEL 3
REMARK VINA RESULT:      -7.7      2.447      4.768
REMARK  6 active torsions:
REMARK  status: ('A' for Active; 'I' for Inactive)
REMARK    1  A    between atoms: O1_2  and  C2_3 
REMARK    2  A    between atoms: C6_9  and  N3_10 
REMARK    3  A    between atoms: N3_10  and  C7_11 
REMARK    4  A    between atoms: C8_12  and  O2_13 
REMARK    5  A    between atoms: C9_14  and  C10_15 
REMARK    6  A    between atoms: C17_22  and  O3_23 
ROOT
HETATM    1  C2  UNL     1      26.408   4.475  49.465  1.00  0.00     0.081 A 
HETATM    2  C3  UNL     1      25.567   5.415  49.922  1.00  0.00     0.067 A 
HETATM    3  C4  UNL     1      24.591   4.811  50.824  1.00  0.00     0.073 A 
HETATM    4  N1  UNL     1      23.549   5.259  51.548  1.00  0.00    -0.241 NA
HETATM    5  C5  UNL     1      22.811   4.424  52.315  1.00  0.00     0.235 A 
HETATM    6  N2  UNL     1      23.089   3.092  52.391  1.00  0.00    -0.224 NA
HETATM    7  C6  UNL     1      24.133   2.631  51.670  1.00  0.00     0.137 A 
HETATM    8  C16 UNL     1      24.900   3.468  50.879  1.00  0.00     0.051 A 
HETATM    9  C17 UNL     1      26.066   3.144  50.031  1.00  0.00     0.214 A 
ENDROOT
BRANCH   7  10
HETATM   10  N3  UNL     1      24.433   1.242  51.740  1.00  0.00    -0.366 N 
HETATM   11  H6  UNL     1      24.092   0.582  51.008  1.00  0.00     0.161 HD
BRANCH  10  12
HETATM   12  C7  UNL     1      25.209   0.703  52.811  1.00  0.00     0.123 A 
HETATM   13  C8  UNL     1      24.839  -0.550  53.511  1.00  0.00     0.152 A 
HETATM   14  C9  UNL     1      25.941  -0.631  52.555  1.00  0.00     0.074 A 
BRANCH  13  15
HETATM   15  O2  UNL     1      25.002  -0.590  54.872  1.00  0.00    -0.393 OA
HETATM   16  H9  UNL     1      24.226  -0.914  55.358  1.00  0.00     0.210 HD
ENDBRANCH  13  15
BRANCH  14  17
HETATM   17  C10 UNL     1      27.362  -0.625  52.955  1.00  0.00    -0.049 A 
HETATM   18  C11 UNL     1      28.019   0.513  53.343  1.00  0.00     0.007 A 
HETATM   19  C12 UNL     1      29.351   0.586  53.729  1.00  0.00     0.001 A 
HETATM   20  C13 UNL     1      30.086  -0.597  53.722  1.00  0.00     0.000 A 
HETATM   21  C14 UNL     1      29.453  -1.757  53.337  1.00  0.00     0.001 A 
HETATM   22  C15 UNL     1      28.130  -1.788  52.960  1.00  0.00     0.007 A 
ENDBRANCH  14  17
ENDBRANCH  10  12
ENDBRANCH   7  10
BRANCH   9  23
HETATM   23  O3  UNL     1      27.117   2.561  50.724  1.00  0.00    -0.384 OA
HETATM   24  H17 UNL     1      27.095   1.569  50.552  1.00  0.00     0.211 HD
ENDBRANCH   9  23
BRANCH   1  25
HETATM   25  O1  UNL     1      27.445   4.753  48.585  1.00  0.00    -0.357 OA
HETATM   26  C1  UNL     1      27.799   6.113  48.397  1.00  0.00     0.209 C 
ENDBRANCH   1  25
TORSDOF 6
ENDMDL
MODEL 4
REMARK VINA RESULT:      -7.6      2.593      6.734
REMARK  6 active torsions:
REMARK  status: ('A' for Active; 'I' for Inactive)
REMARK    1  A    between atoms: O1_2  and  C2_3 
REMARK    2  A    between atoms: C6_9  and  N3_10 
REMARK    3  A    between atoms: N3_10  and  C7_11 
REMARK    4  A    between atoms: C8_12  and  O2_13 
REMARK    5  A    between atoms: C9_14  and  C10_15 
REMARK    6  A    between atoms: C17_22  and  O3_23 
ROOT
HETATM    1  C2  UNL     1      28.015   0.830  53.453  1.00  0.00     0.081 A 
HETATM    2  C3  UNL     1      27.228  -0.253  53.533  1.00  0.00     0.067 A 
HETATM    3  C4  UNL     1      25.829   0.139  53.395  1.00  0.00     0.073 A 
HETATM    4  N1  UNL     1      24.649  -0.506  53.396  1.00  0.00    -0.241 NA
HETATM    5  C5  UNL     1      23.480   0.158  53.239  1.00  0.00     0.235 A 
HETATM    6  N2  UNL     1      23.446   1.510  53.072  1.00  0.00    -0.224 NA
HETATM    7  C6  UNL     1      24.624   2.169  53.069  1.00  0.00     0.137 A 
HETATM    8  C16 UNL     1      25.829   1.508  53.228  1.00  0.00     0.051 A 
HETATM    9  C17 UNL     1      27.201   2.058  53.251  1.00  0.00     0.214 A 
ENDROOT
BRANCH   7  10
HETATM   10  N3  UNL     1      24.601   3.580  52.895  1.00  0.00    -0.366 N 
HETATM   11  H6  UNL     1      25.231   4.199  53.451  1.00  0.00     0.161 HD
BRANCH  10  12
HETATM   12  C7  UNL     1      23.719   4.200  51.958  1.00  0.00     0.123 A 
HETATM   13  C8  UNL     1      23.814   5.636  51.604  1.00  0.00     0.152 A 
HETATM   14  C9  UNL     1      24.326   4.682  50.624  1.00  0.00     0.074 A 
BRANCH  13  15
HETATM   15  O2  UNL     1      22.643   6.333  51.455  1.00  0.00    -0.393 OA
HETATM   16  H9  UNL     1      22.599   7.157  51.966  1.00  0.00     0.210 HD
ENDBRANCH  13  15
BRANCH  14  17
HETATM   17  C10 UNL     1      23.567   4.261  49.430  1.00  0.00    -0.049 A 
HETATM   18  C11 UNL     1      23.251   2.952  49.175  1.00  0.00     0.007 A 
HETATM   19  C12 UNL     1      22.542   2.492  48.073  1.00  0.00     0.001 A 
HETATM   20  C13 UNL     1      22.113   3.438  47.145  1.00  0.00     0.000 A 
HETATM   21  C14 UNL     1      22.415   4.762  47.375  1.00  0.00     0.001 A 
HETATM   22  C15 UNL     1      23.122   5.178  48.480  1.00  0.00     0.007 A 
ENDBRANCH  14  17
ENDBRANCH  10  12
ENDBRANCH   7  10
BRANCH   9  23
HETATM   23  O3  UNL     1      27.543   2.753  52.100  1.00  0.00    -0.384 OA
HETATM   24  H17 UNL     1      27.273   2.198  51.305  1.00  0.00     0.211 HD
ENDBRANCH   9  23
BRANCH   1  25
HETATM   25  O1  UNL     1      29.399   0.768  53.551  1.00  0.00    -0.357 OA
HETATM   26  C1  UNL     1      29.995  -0.517  53.606  1.00  0.00     0.209 C 
ENDBRANCH   1  25
TORSDOF 6
ENDMDL
MODEL 5
REMARK VINA RESULT:      -7.5      2.551      5.153
REMARK  6 active torsions:
REMARK  status: ('A' for Active; 'I' for Inactive)
REMARK    1  A    between atoms: O1_2  and  C2_3 
REMARK    2  A    between atoms: C6_9  and  N3_10 
REMARK    3  A    between atoms: N3_10  and  C7_11 
REMARK    4  A    between atoms: C8_12  and  O2_13 
REMARK    5  A    between atoms: C9_14  and  C10_15 
REMARK    6  A    between atoms: C17_22  and  O3_23 
ROOT
HETATM    1  C2  UNL     1      20.839  -0.386  53.645  1.00  0.00     0.081 A 
HETATM    2  C3  UNL     1      21.597  -0.998  54.566  1.00  0.00     0.067 A 
HETATM    3  C4  UNL     1      23.006  -0.700  54.325  1.00  0.00     0.073 A 
HETATM    4  N1  UNL     1      24.169  -1.033  54.913  1.00  0.00    -0.241 NA
HETATM    5  C5  UNL     1      25.355  -0.583  54.440  1.00  0.00     0.235 A 
HETATM    6  N2  UNL     1      25.423   0.229  53.348  1.00  0.00    -0.224 NA
HETATM    7  C6  UNL     1      24.263   0.570  52.750  1.00  0.00     0.137 A 
HETATM    8  C16 UNL     1      23.041   0.120  53.217  1.00  0.00     0.051 A 
HETATM    9  C17 UNL     1      21.684   0.387  52.696  1.00  0.00     0.214 A 
ENDROOT
BRANCH   7  10
HETATM   10  N3  UNL     1      24.322   1.417  51.608  1.00  0.00    -0.366 N 
HETATM   11  H6  UNL     1      23.631   1.320  50.833  1.00  0.00     0.161 HD
BRANCH  10  12
HETATM   12  C7  UNL     1      25.325   2.427  51.482  1.00  0.00     0.123 A 
HETATM   13  C8  UNL     1      26.763   2.105  51.325  1.00  0.00     0.152 A 
HETATM   14  C9  UNL     1      26.051   2.540  50.125  1.00  0.00     0.074 A 
BRANCH  13  15
HETATM   15  O2  UNL     1      27.666   2.883  52.002  1.00  0.00    -0.393 OA
HETATM   16  H9  UNL     1      28.373   3.251  51.448  1.00  0.00     0.210 HD
ENDBRANCH  13  15
BRANCH  14  17
HETATM   17  C10 UNL     1      26.123   3.914  49.593  1.00  0.00    -0.049 A 
HETATM   18  C11 UNL     1      25.070   4.790  49.653  1.00  0.00     0.007 A 
HETATM   19  C12 UNL     1      25.073   6.092  49.172  1.00  0.00     0.001 A 
HETATM   20  C13 UNL     1      26.245   6.553  48.577  1.00  0.00     0.000 A 
HETATM   21  C14 UNL     1      27.321   5.696  48.503  1.00  0.00     0.001 A 
HETATM   22  C15 UNL     1      27.277   4.411  48.991  1.00  0.00     0.007 A 
ENDBRANCH  14  17
ENDBRANCH  10  12
ENDBRANCH   7  10
BRANCH   9  23
HETATM   23  O3  UNL     1      21.358   1.735  52.651  1.00  0.00    -0.384 OA
HETATM   24  H17 UNL     1      22.205   2.258  52.500  1.00  0.00     0.211 HD
ENDBRANCH   9  23
BRANCH   1  25
HETATM   25  O1  UNL     1      19.454  -0.485  53.618  1.00  0.00    -0.357 OA
HETATM   26  C1  UNL     1      18.824  -0.526  52.349  1.00  0.00     0.209 C 
ENDBRANCH   1  25
TORSDOF 6
ENDMDL
MODEL 6
REMARK VINA RESULT:      -7.5      3.148      6.265
REMARK  6 active torsions:
REMARK  status: ('A' for Active; 'I' for Inactive)
REMARK    1  A    between atoms: O1_2  and  C2_3 
REMARK    2  A    between atoms: C6_9  and  N3_10 
REMARK    3  A    between atoms: N3_10  and  C7_11 
REMARK    4  A    between atoms: C8_12  and  O2_13 
REMARK    5  A    between atoms: C9_14  and  C10_15 
REMARK    6  A    between atoms: C17_22  and  O3_23 
ROOT
HETATM    1  C2  UNL     1      26.898   0.855  54.328  1.00  0.00     0.081 A 
HETATM    2  C3  UNL     1      26.077  -0.206  54.333  1.00  0.00     0.067 A 
HETATM    3  C4  UNL     1      24.826   0.132  53.659  1.00  0.00     0.073 A 
HETATM    4  N1  UNL     1      23.683  -0.520  53.379  1.00  0.00    -0.241 NA
HETATM    5  C5  UNL     1      22.670   0.085  52.716  1.00  0.00     0.235 A 
HETATM    6  N2  UNL     1      22.761   1.380  52.304  1.00  0.00    -0.224 NA
HETATM    7  C6  UNL     1      23.902   2.044  52.579  1.00  0.00     0.137 A 
HETATM    8  C16 UNL     1      24.950   1.445  53.255  1.00  0.00     0.051 A 
HETATM    9  C17 UNL     1      26.260   2.010  53.640  1.00  0.00     0.214 A 
ENDROOT
BRANCH   7  10
HETATM   10  N3  UNL     1      24.009   3.397  52.153  1.00  0.00    -0.366 N 
HETATM   11  H6  UNL     1      23.855   4.183  52.821  1.00  0.00     0.161 HD
BRANCH  10  12
HETATM   12  C7  UNL     1      24.330   3.728  50.801  1.00  0.00     0.123 A 
HETATM   13  C8  UNL     1      23.405   4.487  49.926  1.00  0.00     0.152 A 
HETATM   14  C9  UNL     1      24.548   5.219  50.468  1.00  0.00     0.074 A 
BRANCH  13  15
HETATM   15  O2  UNL     1      23.301   4.092  48.618  1.00  0.00    -0.393 OA
HETATM   16  H9  UNL     1      24.136   4.123  48.122  1.00  0.00     0.210 HD
ENDBRANCH  13  15
BRANCH  14  17
HETATM   17  C10 UNL     1      25.776   5.491  49.697  1.00  0.00    -0.049 A 
HETATM   18  C11 UNL     1      26.121   6.747  49.270  1.00  0.00     0.007 A 
HETATM   19  C12 UNL     1      27.259   7.069  48.541  1.00  0.00     0.001 A 
HETATM   20  C13 UNL     1      28.127   6.029  48.215  1.00  0.00     0.000 A 
HETATM   21  C14 UNL     1      27.806   4.756  48.631  1.00  0.00     0.001 A 
HETATM   22  C15 UNL     1      26.667   4.478  49.351  1.00  0.00     0.007 A 
ENDBRANCH  14  17
ENDBRANCH  10  12
ENDBRANCH   7  10
BRANCH   9  23
HETATM   23  O3  UNL     1      27.003   2.481  52.567  1.00  0.00    -0.384 OA
HETATM   24  H17 UNL     1      27.857   1.950  52.519  1.00  0.00     0.211 HD
ENDBRANCH   9  23
BRANCH   1  25
HETATM   25  O1  UNL     1      28.163   0.834  54.898  1.00  0.00    -0.357 OA
HETATM   26  C1  UNL     1      29.182   0.134  54.205  1.00  0.00     0.209 C 
ENDBRANCH   1  25
TORSDOF 6
ENDMDL
MODEL 7
REMARK VINA RESULT:      -7.5      2.253      3.203
REMARK  6 active torsions:
REMARK  status: ('A' for Active; 'I' for Inactive)
REMARK    1  A    between atoms: O1_2  and  C2_3 
REMARK    2  A    between atoms: C6_9  and  N3_10 
REMARK    3  A    between atoms: N3_10  and  C7_11 
REMARK    4  A    between atoms: C8_12  and  O2_13 
REMARK    5  A    between atoms: C9_14  and  C10_15 
REMARK    6  A    between atoms: C17_22  and  O3_23 
ROOT
HETATM    1  C2  UNL     1      19.643   0.158  52.748  1.00  0.00     0.081 A 
HETATM    2  C3  UNL     1      19.745  -0.844  53.634  1.00  0.00     0.067 A 
HETATM    3  C4  UNL     1      21.123  -0.947  54.108  1.00  0.00     0.073 A 
HETATM    4  N1  UNL     1      21.782  -1.740  54.972  1.00  0.00    -0.241 NA
HETATM    5  C5  UNL     1      23.105  -1.582  55.209  1.00  0.00     0.235 A 
HETATM    6  N2  UNL     1      23.829  -0.611  54.584  1.00  0.00    -0.224 NA
HETATM    7  C6  UNL     1      23.179   0.192  53.716  1.00  0.00     0.137 A 
HETATM    8  C16 UNL     1      21.827   0.046  53.459  1.00  0.00     0.051 A 
HETATM    9  C17 UNL     1      20.958   0.822  52.551  1.00  0.00     0.214 A 
ENDROOT
BRANCH   7  10
HETATM   10  N3  UNL     1      23.924   1.208  53.057  1.00  0.00    -0.366 N 
HETATM   11  H6  UNL     1      23.564   2.186  53.002  1.00  0.00     0.161 HD
BRANCH  10  12
HETATM   12  C7  UNL     1      25.186   0.930  52.449  1.00  0.00     0.123 A 
HETATM   13  C8  UNL     1      26.184   1.988  52.165  1.00  0.00     0.152 A 
HETATM   14  C9  UNL     1      26.449   1.126  53.315  1.00  0.00     0.074 A 
BRANCH  13  15
HETATM   15  O2  UNL     1      26.869   1.914  50.980  1.00  0.00    -0.393 OA
HETATM   16  H9  UNL     1      26.409   1.419  50.282  1.00  0.00     0.210 HD
ENDBRANCH  13  15
BRANCH  14  17
HETATM   17  C10 UNL     1      27.389  -0.011  53.276  1.00  0.00    -0.049 A 
HETATM   18  C11 UNL     1      26.993  -1.291  52.985  1.00  0.00     0.007 A 
HETATM   19  C12 UNL     1      27.825  -2.402  52.933  1.00  0.00     0.001 A 
HETATM   20  C13 UNL     1      29.178  -2.203  53.198  1.00  0.00     0.000 A 
HETATM   21  C14 UNL     1      29.605  -0.927  53.492  1.00  0.00     0.001 A 
HETATM   22  C15 UNL     1      28.748   0.149  53.535  1.00  0.00     0.007 A 
ENDBRANCH  14  17
ENDBRANCH  10  12
ENDBRANCH   7  10
BRANCH   9  23
HETATM   23  O3  UNL     1      20.928   2.181  52.832  1.00  0.00    -0.384 OA
HETATM   24  H17 UNL     1      20.254   2.613  52.222  1.00  0.00     0.211 HD
ENDBRANCH   9  23
BRANCH   1  25
HETATM   25  O1  UNL     1      18.449   0.495  52.124  1.00  0.00    -0.357 OA
HETATM   26  C1  UNL     1      17.828  -0.493  51.320  1.00  0.00     0.209 C 
ENDBRANCH   1  25
TORSDOF 6
ENDMDL
MODEL 8
REMARK VINA RESULT:      -7.4      3.356      6.038
REMARK  6 active torsions:
REMARK  status: ('A' for Active; 'I' for Inactive)
REMARK    1  A    between atoms: O1_2  and  C2_3 
REMARK    2  A    between atoms: C6_9  and  N3_10 
REMARK    3  A    between atoms: N3_10  and  C7_11 
REMARK    4  A    between atoms: C8_12  and  O2_13 
REMARK    5  A    between atoms: C9_14  and  C10_15 
REMARK    6  A    between atoms: C17_22  and  O3_23 
ROOT
HETATM    1  C2  UNL     1      27.464   6.084  48.547  1.00  0.00     0.081 A 
HETATM    2  C3  UNL     1      26.850   7.185  49.006  1.00  0.00     0.067 A 
HETATM    3  C4  UNL     1      25.700   6.806  49.822  1.00  0.00     0.073 A 
HETATM    4  N1  UNL     1      24.754   7.471  50.510  1.00  0.00    -0.241 NA
HETATM    5  C5  UNL     1      23.785   6.816  51.192  1.00  0.00     0.235 A 
HETATM    6  N2  UNL     1      23.725   5.454  51.212  1.00  0.00    -0.224 NA
HETATM    7  C6  UNL     1      24.668   4.777  50.526  1.00  0.00     0.137 A 
HETATM    8  C16 UNL     1      25.667   5.428  49.822  1.00  0.00     0.051 A 
HETATM    9  C17 UNL     1      26.771   4.858  49.022  1.00  0.00     0.214 A 
ENDROOT
BRANCH   7  10
HETATM   10  N3  UNL     1      24.616   3.356  50.539  1.00  0.00    -0.366 N 
HETATM   11  H6  UNL     1      24.327   2.822  49.691  1.00  0.00     0.161 HD
BRANCH  10  12
HETATM   12  C7  UNL     1      24.954   2.610  51.710  1.00  0.00     0.123 A 
HETATM   13  C8  UNL     1      24.386   1.270  51.992  1.00  0.00     0.152 A 
HETATM   14  C9  UNL     1      25.767   1.313  51.515  1.00  0.00     0.074 A 
BRANCH  13  15
HETATM   15  O2  UNL     1      24.033   0.990  53.287  1.00  0.00    -0.393 OA
HETATM   16  H9  UNL     1      24.586   1.425  53.956  1.00  0.00     0.210 HD
ENDBRANCH  13  15
BRANCH  14  17
HETATM   17  C10 UNL     1      26.936   1.195  52.406  1.00  0.00    -0.049 A 
HETATM   18  C11 UNL     1      27.634   2.283  52.864  1.00  0.00     0.007 A 
HETATM   19  C12 UNL     1      28.740   2.240  53.702  1.00  0.00     0.001 A 
HETATM   20  C13 UNL     1      29.183   0.987  54.116  1.00  0.00     0.000 A 
HETATM   21  C14 UNL     1      28.502  -0.126  53.673  1.00  0.00     0.001 A 
HETATM   22  C15 UNL     1      27.409  -0.041  52.841  1.00  0.00     0.007 A 
ENDBRANCH  14  17
ENDBRANCH  10  12
ENDBRANCH   7  10
BRANCH   9  23
HETATM   23  O3  UNL     1      27.600   4.008  49.740  1.00  0.00    -0.384 OA
HETATM   24  H17 UNL     1      27.370   4.095  50.716  1.00  0.00     0.211 HD
ENDBRANCH   9  23
BRANCH   1  25
HETATM   25  O1  UNL     1      28.593   6.130  47.740  1.00  0.00    -0.357 OA
HETATM   26  C1  UNL     1      29.781   6.660  48.305  1.00  0.00     0.209 C 
ENDBRANCH   1  25
TORSDOF 6
ENDMDL
MODEL 9
REMARK VINA RESULT:      -7.4      2.972      3.915
REMARK  6 active torsions:
REMARK  status: ('A' for Active; 'I' for Inactive)
REMARK    1  A    between atoms: O1_2  and  C2_3 
REMARK    2  A    between atoms: C6_9  and  N3_10 
REMARK    3  A    between atoms: N3_10  and  C7_11 
REMARK    4  A    between atoms: C8_12  and  O2_13 
REMARK    5  A    between atoms: C9_14  and  C10_15 
REMARK    6  A    between atoms: C17_22  and  O3_23 
ROOT
HETATM    1  C2  UNL     1      22.772   5.535  50.430  1.00  0.00     0.081 A 
HETATM    2  C3  UNL     1      23.509   6.031  49.425  1.00  0.00     0.067 A 
HETATM    3  C4  UNL     1      24.823   5.395  49.413  1.00  0.00     0.073 A 
HETATM    4  N1  UNL     1      25.930   5.497  48.655  1.00  0.00    -0.241 NA
HETATM    5  C5  UNL     1      27.027   4.745  48.901  1.00  0.00     0.235 A 
HETATM    6  N2  UNL     1      27.061   3.849  49.928  1.00  0.00    -0.224 NA
HETATM    7  C6  UNL     1      25.956   3.736  50.695  1.00  0.00     0.137 A 
HETATM    8  C16 UNL     1      24.824   4.497  50.459  1.00  0.00     0.051 A 
HETATM    9  C17 UNL     1      23.538   4.509  51.186  1.00  0.00     0.214 A 
ENDROOT
BRANCH   7  10
HETATM   10  N3  UNL     1      25.979   2.804  51.769  1.00  0.00    -0.366 N 
HETATM   11  H6  UNL     1      25.119   2.607  52.326  1.00  0.00     0.161 HD
BRANCH  10  12
HETATM   12  C7  UNL     1      27.174   2.108  52.124  1.00  0.00     0.123 A 
HETATM   13  C8  UNL     1      27.981   2.466  53.314  1.00  0.00     0.152 A 
HETATM   14  C9  UNL     1      27.149   1.270  53.420  1.00  0.00     0.074 A 
BRANCH  13  15
HETATM   15  O2  UNL     1      29.346   2.439  53.187  1.00  0.00    -0.393 OA
HETATM   16  H9  UNL     1      29.774   1.681  53.619  1.00  0.00     0.210 HD
ENDBRANCH  13  15
BRANCH  14  17
HETATM   17  C10 UNL     1      27.675  -0.100  53.262  1.00  0.00    -0.049 A 
HETATM   18  C11 UNL     1      28.963  -0.442  53.583  1.00  0.00     0.007 A 
HETATM   19  C12 UNL     1      29.518  -1.709  53.457  1.00  0.00     0.001 A 
HETATM   20  C13 UNL     1      28.699  -2.722  52.963  1.00  0.00     0.000 A 
HETATM   21  C14 UNL     1      27.399  -2.408  52.632  1.00  0.00     0.001 A 
HETATM   22  C15 UNL     1      26.887  -1.139  52.770  1.00  0.00     0.007 A 
ENDBRANCH  14  17
ENDBRANCH  10  12
ENDBRANCH   7  10
BRANCH   9  23
HETATM   23  O3  UNL     1      22.905   3.275  51.222  1.00  0.00    -0.384 OA
HETATM   24  H17 UNL     1      22.160   3.284  50.544  1.00  0.00     0.211 HD
ENDBRANCH   9  23
BRANCH   1  25
HETATM   25  O1  UNL     1      21.474   5.951  50.692  1.00  0.00    -0.357 OA
HETATM   26  C1  UNL     1      21.209   7.342  50.642  1.00  0.00     0.209 C 
ENDBRANCH   1  25
TORSDOF 6
ENDMDL
