MODEL 1
REMARK VINA RESULT:      -7.5      0.000      0.000
REMARK  5 active torsions:
REMARK  status: ('A' for Active; 'I' for Inactive)
REMARK    1  A    between atoms: C2_2  and  C3_3 
REMARK    2  A    between atoms: C3_3  and  N1_4 
REMARK    3  A    between atoms: N1_4  and  C4_5 
REMARK    4  A    between atoms: N2_7  and  C6_8 
REMARK    5  A    between atoms: N5_14  and  C9_15 
ROOT
HETATM    1  C4  UNL     1      26.682  -0.386  53.886  1.00  0.00     0.192 A 
HETATM    2  C5  UNL     1      26.996  -1.263  52.814  1.00  0.00     0.104 A 
HETATM    3  N2  UNL     1      26.449  -0.193  52.486  1.00  0.00    -0.226 NA
HETATM    4  C6  UNL     1      27.308   0.972  52.731  1.00  0.00     0.192 A 
HETATM    5  C7  UNL     1      28.032   0.894  54.136  1.00  0.00     0.132 A 
HETATM    6  N3  UNL     1      28.064  -0.475  54.612  1.00  0.00    -0.180 NA
HETATM    7  C8  UNL     1      28.229   2.222  53.818  1.00  0.00     0.202 A 
HETATM    8  O1  UNL     1      29.376   2.496  54.412  1.00  0.00    -0.219 OA
HETATM    9  N4  UNL     1      27.141   1.155  53.526  1.00  0.00     0.000 N 
HETATM   10  N5  UNL     1      26.346   2.006  52.776  1.00  0.00    -0.188 NA
ENDROOT
BRANCH  10  11
HETATM   11  C9  UNL     1      25.760   2.529  51.543  1.00  0.00     0.028 A 
HETATM   12  C10 UNL     1      24.376   2.310  51.453  1.00  0.00     0.025 A 
HETATM   13  C11 UNL     1      23.734   2.749  50.345  1.00  0.00     0.002 A 
HETATM   14  C12 UNL     1      24.493   3.377  49.394  1.00  0.00     0.000 A 
HETATM   15  C13 UNL     1      25.844   3.623  49.417  1.00  0.00     0.002 A 
HETATM   16  C14 UNL     1      26.493   3.178  50.539  1.00  0.00     0.025 A 
ENDBRANCH  10  11
BRANCH   1  17
HETATM   17  N1  UNL     1      25.753  -0.393  54.828  1.00  0.00    -0.380 N 
HETATM   18  H6  UNL     1      26.062  -0.110  55.777  1.00  0.00     0.157 HD
BRANCH  17  19
HETATM   19  C3  UNL     1      24.596  -1.191  54.762  1.00  0.00     0.144 C 
BRANCH  19  20
HETATM   20  C2  UNL     1      23.454  -0.434  54.179  1.00  0.00    -0.018 C 
HETATM   21  C1  UNL     1      22.729  -0.800  53.104  1.00  0.00     0.008 C 
ENDBRANCH  19  20
ENDBRANCH  17  19
ENDBRANCH   1  17
TORSDOF 5
ENDMDL
MODEL 2
REMARK VINA RESULT:      -7.3      1.914      4.822
REMARK  5 active torsions:
REMARK  status: ('A' for Active; 'I' for Inactive)
REMARK    1  A    between atoms: C2_2  and  C3_3 
REMARK    2  A    between atoms: C3_3  and  N1_4 
REMARK    3  A    between atoms: N1_4  and  C4_5 
REMARK    4  A    between atoms: N2_7  and  C6_8 
REMARK    5  A    between atoms: N5_14  and  C9_15 
ROOT
HETATM    1  C4  UNL     1      26.700   1.538  52.552  1.00  0.00     0.192 A 
HETATM    2  C5  UNL     1      26.731   2.261  53.774  1.00  0.00     0.104 A 
HETATM    3  N2  UNL     1      25.655   1.686  53.522  1.00  0.00    -0.226 NA
HETATM    4  C6  UNL     1      25.783   0.223  53.553  1.00  0.00     0.192 A 
HETATM    5  C7  UNL     1      27.096  -0.276  52.824  1.00  0.00     0.132 A 
HETATM    6  N3  UNL     1      28.065   0.798  52.737  1.00  0.00    -0.180 NA
HETATM    7  C8  UNL     1      26.387  -1.456  52.917  1.00  0.00     0.202 A 
HETATM    8  O1  UNL     1      27.343  -2.364  53.006  1.00  0.00    -0.219 OA
HETATM    9  N4  UNL     1      26.034   0.048  52.779  1.00  0.00     0.000 N 
HETATM   10  N5  UNL     1      24.664  -0.157  52.778  1.00  0.00    -0.188 NA
ENDROOT
BRANCH  10  11
HETATM   11  C9  UNL     1      23.320  -0.127  53.352  1.00  0.00     0.028 A 
HETATM   12  C10 UNL     1      22.471   0.800  52.724  1.00  0.00     0.025 A 
HETATM   13  C11 UNL     1      21.203   0.914  53.183  1.00  0.00     0.002 A 
HETATM   14  C12 UNL     1      20.847   0.107  54.231  1.00  0.00     0.000 A 
HETATM   15  C13 UNL     1      21.622  -0.816  54.889  1.00  0.00     0.002 A 
HETATM   16  C14 UNL     1      22.906  -0.930  54.424  1.00  0.00     0.025 A 
ENDBRANCH  10  11
BRANCH   1  17
HETATM   17  N1  UNL     1      26.627   1.898  51.282  1.00  0.00    -0.380 N 
HETATM   18  H6  UNL     1      27.209   1.352  50.618  1.00  0.00     0.157 HD
BRANCH  17  19
HETATM   19  C3  UNL     1      26.259   3.192  50.868  1.00  0.00     0.144 C 
BRANCH  19  20
HETATM   20  C2  UNL     1      26.622   3.423  49.443  1.00  0.00    -0.018 C 
HETATM   21  C1  UNL     1      27.208   4.529  48.945  1.00  0.00     0.008 C 
ENDBRANCH  19  20
ENDBRANCH  17  19
ENDBRANCH   1  17
TORSDOF 5
ENDMDL
MODEL 3
REMARK VINA RESULT:      -7.2      2.031      4.667
REMARK  5 active torsions:
REMARK  status: ('A' for Active; 'I' for Inactive)
REMARK    1  A    between atoms: C2_2  and  C3_3 
REMARK    2  A    between atoms: C3_3  and  N1_4 
REMARK    3  A    between atoms: N1_4  and  C4_5 
REMARK    4  A    between atoms: N2_7  and  C6_8 
REMARK    5  A    between atoms: N5_14  and  C9_15 
ROOT
HETATM    1  C4  UNL     1      26.636   0.995  52.785  1.00  0.00     0.192 A 
HETATM    2  C5  UNL     1      26.721  -0.119  51.908  1.00  0.00     0.104 A 
HETATM    3  N2  UNL     1      25.670  -0.042  52.572  1.00  0.00    -0.226 NA
HETATM    4  C6  UNL     1      24.849   1.112  52.183  1.00  0.00     0.192 A 
HETATM    5  C7  UNL     1      25.715   2.421  51.985  1.00  0.00     0.132 A 
HETATM    6  N3  UNL     1      27.105   2.077  51.758  1.00  0.00    -0.180 NA
HETATM    7  C8  UNL     1      24.446   2.958  52.047  1.00  0.00     0.202 A 
HETATM    8  O1  UNL     1      24.547   4.032  51.283  1.00  0.00    -0.219 OA
HETATM    9  N4  UNL     1      25.165   1.724  52.652  1.00  0.00     0.000 N 
HETATM   10  N5  UNL     1      24.051   1.270  53.339  1.00  0.00    -0.188 NA
ENDROOT
BRANCH  10  11
HETATM   11  C9  UNL     1      22.920   0.378  53.587  1.00  0.00     0.028 A 
HETATM   12  C10 UNL     1      21.726   0.821  52.996  1.00  0.00     0.025 A 
HETATM   13  C11 UNL     1      20.613   0.071  53.171  1.00  0.00     0.002 A 
HETATM   14  C12 UNL     1      20.744  -1.071  53.916  1.00  0.00     0.000 A 
HETATM   15  C13 UNL     1      21.875  -1.561  54.520  1.00  0.00     0.002 A 
HETATM   16  C14 UNL     1      23.001  -0.801  54.343  1.00  0.00     0.025 A 
ENDBRANCH  10  11
BRANCH   1  17
HETATM   17  N1  UNL     1      27.206   1.290  53.942  1.00  0.00    -0.380 N 
HETATM   18  H6  UNL     1      26.659   1.902  54.577  1.00  0.00     0.157 HD
BRANCH  17  19
HETATM   19  C3  UNL     1      28.599   1.272  54.141  1.00  0.00     0.144 C 
BRANCH  19  20
HETATM   20  C2  UNL     1      29.080  -0.106  54.434  1.00  0.00    -0.018 C 
HETATM   21  C1  UNL     1      29.911  -0.834  53.663  1.00  0.00     0.008 C 
ENDBRANCH  19  20
ENDBRANCH  17  19
ENDBRANCH   1  17
TORSDOF 5
ENDMDL
MODEL 4
REMARK VINA RESULT:      -6.9      2.505      5.288
REMARK  5 active torsions:
REMARK  status: ('A' for Active; 'I' for Inactive)
REMARK    1  A    between atoms: C2_2  and  C3_3 
REMARK    2  A    between atoms: C3_3  and  N1_4 
REMARK    3  A    between atoms: N1_4  and  C4_5 
REMARK    4  A    between atoms: N2_7  and  C6_8 
REMARK    5  A    between atoms: N5_14  and  C9_15 
ROOT
HETATM    1  C4  UNL     1      24.832   2.286  52.385  1.00  0.00     0.192 A 
HETATM    2  C5  UNL     1      24.227   3.326  53.140  1.00  0.00     0.104 A 
HETATM    3  N2  UNL     1      23.454   2.431  52.748  1.00  0.00    -0.226 NA
HETATM    4  C6  UNL     1      23.721   1.140  53.395  1.00  0.00     0.192 A 
HETATM    5  C7  UNL     1      25.269   0.820  53.473  1.00  0.00     0.132 A 
HETATM    6  N3  UNL     1      26.043   2.039  53.344  1.00  0.00    -0.180 NA
HETATM    7  C8  UNL     1      24.734  -0.422  53.747  1.00  0.00     0.202 A 
HETATM    8  O1  UNL     1      25.645  -0.962  54.537  1.00  0.00    -0.219 OA
HETATM    9  N4  UNL     1      24.312   0.813  52.908  1.00  0.00     0.000 N 
HETATM   10  N5  UNL     1      23.123   0.252  52.473  1.00  0.00    -0.188 NA
ENDROOT
BRANCH  10  11
HETATM   11  C9  UNL     1      21.670   0.087  52.436  1.00  0.00     0.028 A 
HETATM   12  C10 UNL     1      21.098   0.493  51.220  1.00  0.00     0.025 A 
HETATM   13  C11 UNL     1      19.756   0.389  51.082  1.00  0.00     0.002 A 
HETATM   14  C12 UNL     1      19.059  -0.110  52.151  1.00  0.00     0.000 A 
HETATM   15  C13 UNL     1      19.552  -0.524  53.363  1.00  0.00     0.002 A 
HETATM   16  C14 UNL     1      20.911  -0.417  53.502  1.00  0.00     0.025 A 
ENDBRANCH  10  11
BRANCH   1  17
HETATM   17  N1  UNL     1      25.299   2.209  51.150  1.00  0.00    -0.380 N 
HETATM   18  H6  UNL     1      24.977   1.398  50.589  1.00  0.00     0.157 HD
BRANCH  17  19
HETATM   19  C3  UNL     1      26.508   2.805  50.745  1.00  0.00     0.144 C 
BRANCH  19  20
HETATM   20  C2  UNL     1      26.262   3.932  49.804  1.00  0.00    -0.018 C 
HETATM   21  C1  UNL     1      27.172   4.489  48.981  1.00  0.00     0.008 C 
ENDBRANCH  19  20
ENDBRANCH  17  19
ENDBRANCH   1  17
TORSDOF 5
ENDMDL
MODEL 5
REMARK VINA RESULT:      -6.5      3.107      6.407
REMARK  5 active torsions:
REMARK  status: ('A' for Active; 'I' for Inactive)
REMARK    1  A    between atoms: C2_2  and  C3_3 
REMARK    2  A    between atoms: C3_3  and  N1_4 
REMARK    3  A    between atoms: N1_4  and  C4_5 
REMARK    4  A    between atoms: N2_7  and  C6_8 
REMARK    5  A    between atoms: N5_14  and  C9_15 
ROOT
HETATM    1  C4  UNL     1      24.809   4.289  50.085  1.00  0.00     0.192 A 
HETATM    2  C5  UNL     1      24.516   3.245  49.168  1.00  0.00     0.104 A 
HETATM    3  N2  UNL     1      24.794   2.877  50.325  1.00  0.00    -0.226 NA
HETATM    4  C6  UNL     1      23.772   3.280  51.300  1.00  0.00     0.192 A 
HETATM    5  C7  UNL     1      23.290   4.771  51.076  1.00  0.00     0.132 A 
HETATM    6  N3  UNL     1      23.591   5.202  49.725  1.00  0.00    -0.180 NA
HETATM    7  C8  UNL     1      22.798   4.527  52.342  1.00  0.00     0.202 A 
HETATM    8  O1  UNL     1      21.719   5.287  52.385  1.00  0.00    -0.219 OA
HETATM    9  N4  UNL     1      24.016   4.049  51.508  1.00  0.00     0.000 N 
HETATM   10  N5  UNL     1      24.514   3.221  52.501  1.00  0.00    -0.188 NA
ENDROOT
BRANCH  10  11
HETATM   11  C9  UNL     1      24.802   1.934  53.133  1.00  0.00     0.028 A 
HETATM   12  C10 UNL     1      26.048   1.902  53.779  1.00  0.00     0.025 A 
HETATM   13  C11 UNL     1      26.418   0.753  54.392  1.00  0.00     0.002 A 
HETATM   14  C12 UNL     1      25.537  -0.294  54.332  1.00  0.00     0.000 A 
HETATM   15  C13 UNL     1      24.309  -0.332  53.719  1.00  0.00     0.002 A 
HETATM   16  C14 UNL     1      23.936   0.832  53.099  1.00  0.00     0.025 A 
ENDBRANCH  10  11
BRANCH   1  17
HETATM   17  N1  UNL     1      25.850   5.088  50.255  1.00  0.00    -0.380 N 
HETATM   18  H6  UNL     1      25.987   5.462  51.213  1.00  0.00     0.157 HD
BRANCH  17  19
HETATM   19  C3  UNL     1      26.434   5.826  49.208  1.00  0.00     0.144 C 
BRANCH  19  20
HETATM   20  C2  UNL     1      27.566   5.081  48.593  1.00  0.00    -0.018 C 
HETATM   21  C1  UNL     1      28.785   5.584  48.314  1.00  0.00     0.008 C 
ENDBRANCH  19  20
ENDBRANCH  17  19
ENDBRANCH   1  17
TORSDOF 5
ENDMDL
MODEL 6
REMARK VINA RESULT:      -6.4      2.776      5.874
REMARK  5 active torsions:
REMARK  status: ('A' for Active; 'I' for Inactive)
REMARK    1  A    between atoms: C2_2  and  C3_3 
REMARK    2  A    between atoms: C3_3  and  N1_4 
REMARK    3  A    between atoms: N1_4  and  C4_5 
REMARK    4  A    between atoms: N2_7  and  C6_8 
REMARK    5  A    between atoms: N5_14  and  C9_15 
ROOT
HETATM    1  C4  UNL     1      24.476   3.848  51.036  1.00  0.00     0.192 A 
HETATM    2  C5  UNL     1      24.951   3.342  49.797  1.00  0.00     0.104 A 
HETATM    3  N2  UNL     1      25.569   2.950  50.805  1.00  0.00    -0.226 NA
HETATM    4  C6  UNL     1      24.747   2.085  51.662  1.00  0.00     0.192 A 
HETATM    5  C7  UNL     1      23.280   2.650  51.846  1.00  0.00     0.132 A 
HETATM    6  N3  UNL     1      22.957   3.577  50.779  1.00  0.00    -0.180 NA
HETATM    7  C8  UNL     1      23.327   1.715  52.860  1.00  0.00     0.202 A 
HETATM    8  O1  UNL     1      22.068   1.325  52.954  1.00  0.00    -0.219 OA
HETATM    9  N4  UNL     1      24.350   2.636  52.145  1.00  0.00     0.000 N 
HETATM   10  N5  UNL     1      25.433   2.202  52.892  1.00  0.00    -0.188 NA
ENDROOT
BRANCH  10  11
HETATM   11  C9  UNL     1      26.679   1.471  53.119  1.00  0.00     0.028 A 
HETATM   12  C10 UNL     1      27.730   2.293  53.558  1.00  0.00     0.025 A 
HETATM   13  C11 UNL     1      28.932   1.717  53.792  1.00  0.00     0.002 A 
HETATM   14  C12 UNL     1      29.026   0.367  53.580  1.00  0.00     0.000 A 
HETATM   15  C13 UNL     1      28.044  -0.492  53.153  1.00  0.00     0.002 A 
HETATM   16  C14 UNL     1      26.828   0.092  52.916  1.00  0.00     0.025 A 
ENDBRANCH  10  11
BRANCH   1  17
HETATM   17  N1  UNL     1      24.561   5.025  51.632  1.00  0.00    -0.380 N 
HETATM   18  H6  UNL     1      24.970   5.026  52.586  1.00  0.00     0.157 HD
BRANCH  17  19
HETATM   19  C3  UNL     1      23.727   6.113  51.312  1.00  0.00     0.144 C 
BRANCH  19  20
HETATM   20  C2  UNL     1      24.395   7.037  50.355  1.00  0.00    -0.018 C 
HETATM   21  C1  UNL     1      25.712   7.320  50.319  1.00  0.00     0.008 C 
ENDBRANCH  19  20
ENDBRANCH  17  19
ENDBRANCH   1  17
TORSDOF 5
ENDMDL
MODEL 7
REMARK VINA RESULT:      -6.3      2.280      5.247
REMARK  5 active torsions:
REMARK  status: ('A' for Active; 'I' for Inactive)
REMARK    1  A    between atoms: C2_2  and  C3_3 
REMARK    2  A    between atoms: C3_3  and  N1_4 
REMARK    3  A    between atoms: N1_4  and  C4_5 
REMARK    4  A    between atoms: N2_7  and  C6_8 
REMARK    5  A    between atoms: N5_14  and  C9_15 
ROOT
HETATM    1  C4  UNL     1      23.801   3.023  50.937  1.00  0.00     0.192 A 
HETATM    2  C5  UNL     1      23.101   3.847  51.857  1.00  0.00     0.104 A 
HETATM    3  N2  UNL     1      23.139   2.637  52.148  1.00  0.00    -0.226 NA
HETATM    4  C6  UNL     1      24.496   2.185  52.481  1.00  0.00     0.192 A 
HETATM    5  C7  UNL     1      25.579   2.757  51.478  1.00  0.00     0.132 A 
HETATM    6  N3  UNL     1      25.067   3.931  50.799  1.00  0.00    -0.180 NA
HETATM    7  C8  UNL     1      26.301   1.757  52.096  1.00  0.00     0.202 A 
HETATM    8  O1  UNL     1      27.536   2.224  52.056  1.00  0.00    -0.219 OA
HETATM    9  N4  UNL     1      24.811   1.995  51.735  1.00  0.00     0.000 N 
HETATM   10  N5  UNL     1      24.373   0.794  52.267  1.00  0.00    -0.188 NA
ENDROOT
BRANCH  10  11
HETATM   11  C9  UNL     1      23.703  -0.052  53.254  1.00  0.00     0.028 A 
HETATM   12  C10 UNL     1      22.374  -0.352  52.913  1.00  0.00     0.025 A 
HETATM   13  C11 UNL     1      21.659  -1.125  53.764  1.00  0.00     0.002 A 
HETATM   14  C12 UNL     1      22.296  -1.556  54.897  1.00  0.00     0.000 A 
HETATM   15  C13 UNL     1      23.586  -1.301  55.291  1.00  0.00     0.002 A 
HETATM   16  C14 UNL     1      24.310  -0.518  54.429  1.00  0.00     0.025 A 
ENDBRANCH  10  11
BRANCH   1  17
HETATM   17  N1  UNL     1      23.523   2.567  49.727  1.00  0.00    -0.380 N 
HETATM   18  H6  UNL     1      24.336   2.375  49.113  1.00  0.00     0.157 HD
BRANCH  17  19
HETATM   19  C3  UNL     1      22.295   2.799  49.080  1.00  0.00     0.144 C 
BRANCH  19  20
HETATM   20  C2  UNL     1      21.534   1.532  48.902  1.00  0.00    -0.018 C 
HETATM   21  C1  UNL     1      20.784   0.922  49.840  1.00  0.00     0.008 C 
ENDBRANCH  19  20
ENDBRANCH  17  19
ENDBRANCH   1  17
TORSDOF 5
ENDMDL
MODEL 8
REMARK VINA RESULT:      -6.2      8.556      9.630
REMARK  5 active torsions:
REMARK  status: ('A' for Active; 'I' for Inactive)
REMARK    1  A    between atoms: C2_2  and  C3_3 
REMARK    2  A    between atoms: C3_3  and  N1_4 
REMARK    3  A    between atoms: N1_4  and  C4_5 
REMARK    4  A    between atoms: N2_7  and  C6_8 
REMARK    5  A    between atoms: N5_14  and  C9_15 
ROOT
HETATM    1  C4  UNL     1      33.160   4.336  47.251  1.00  0.00     0.192 A 
HETATM    2  C5  UNL     1      32.761   4.668  45.929  1.00  0.00     0.104 A 
HETATM    3  N2  UNL     1      32.199   5.314  46.833  1.00  0.00    -0.226 NA
HETATM    4  C6  UNL     1      33.128   6.203  47.543  1.00  0.00     0.192 A 
HETATM    5  C7  UNL     1      34.505   5.493  47.865  1.00  0.00     0.132 A 
HETATM    6  N3  UNL     1      34.702   4.353  46.991  1.00  0.00    -0.180 NA
HETATM    7  C8  UNL     1      34.582   6.593  48.694  1.00  0.00     0.202 A 
HETATM    8  O1  UNL     1      35.881   6.824  48.750  1.00  0.00    -0.219 OA
HETATM    9  N4  UNL     1      33.446   5.702  48.127  1.00  0.00     0.000 N 
HETATM   10  N5  UNL     1      32.429   6.403  48.755  1.00  0.00    -0.188 NA
ENDROOT
BRANCH  10  11
HETATM   11  C9  UNL     1      31.293   7.321  48.813  1.00  0.00     0.028 A 
HETATM   12  C10 UNL     1      31.618   8.568  49.372  1.00  0.00     0.025 A 
HETATM   13  C11 UNL     1      30.635   9.492  49.480  1.00  0.00     0.002 A 
HETATM   14  C12 UNL     1      29.392   9.133  49.031  1.00  0.00     0.000 A 
HETATM   15  C13 UNL     1      29.006   7.937  48.477  1.00  0.00     0.002 A 
HETATM   16  C14 UNL     1      30.002   7.002  48.369  1.00  0.00     0.025 A 
ENDBRANCH  10  11
BRANCH   1  17
HETATM   17  N1  UNL     1      32.916   3.308  48.046  1.00  0.00    -0.380 N 
HETATM   18  H6  UNL     1      32.778   3.530  49.051  1.00  0.00     0.157 HD
BRANCH  17  19
HETATM   19  C3  UNL     1      33.316   1.992  47.749  1.00  0.00     0.144 C 
BRANCH  19  20
HETATM   20  C2  UNL     1      32.348   1.332  46.830  1.00  0.00    -0.018 C 
HETATM   21  C1  UNL     1      32.024   0.024  46.829  1.00  0.00     0.008 C 
ENDBRANCH  19  20
ENDBRANCH  17  19
ENDBRANCH   1  17
TORSDOF 5
ENDMDL
MODEL 9
REMARK VINA RESULT:      -6.1      3.539      5.727
REMARK  5 active torsions:
REMARK  status: ('A' for Active; 'I' for Inactive)
REMARK    1  A    between atoms: C2_2  and  C3_3 
REMARK    2  A    between atoms: C3_3  and  N1_4 
REMARK    3  A    between atoms: N1_4  and  C4_5 
REMARK    4  A    between atoms: N2_7  and  C6_8 
REMARK    5  A    between atoms: N5_14  and  C9_15 
ROOT
HETATM    1  C4  UNL     1      21.772   1.626  51.844  1.00  0.00     0.192 A 
HETATM    2  C5  UNL     1      22.131   1.297  50.510  1.00  0.00     0.104 A 
HETATM    3  N2  UNL     1      23.074   1.329  51.324  1.00  0.00    -0.226 NA
HETATM    4  C6  UNL     1      22.984   0.258  52.325  1.00  0.00     0.192 A 
HETATM    5  C7  UNL     1      21.512   0.082  52.879  1.00  0.00     0.132 A 
HETATM    6  N3  UNL     1      20.553   0.653  51.955  1.00  0.00    -0.180 NA
HETATM    7  C8  UNL     1      22.230  -0.629  53.818  1.00  0.00     0.202 A 
HETATM    8  O1  UNL     1      21.369  -1.555  54.203  1.00  0.00    -0.219 OA
HETATM    9  N4  UNL     1      22.496   0.598  52.908  1.00  0.00     0.000 N 
HETATM   10  N5  UNL     1      23.794   0.789  53.354  1.00  0.00    -0.188 NA
ENDROOT
BRANCH  10  11
HETATM   11  C9  UNL     1      25.251   0.751  53.246  1.00  0.00     0.028 A 
HETATM   12  C10 UNL     1      25.864   1.964  53.601  1.00  0.00     0.025 A 
HETATM   13  C11 UNL     1      27.213   2.040  53.530  1.00  0.00     0.002 A 
HETATM   14  C12 UNL     1      27.878   0.916  53.114  1.00  0.00     0.000 A 
HETATM   15  C13 UNL     1      27.344  -0.296  52.753  1.00  0.00     0.002 A 
HETATM   16  C14 UNL     1      25.978  -0.372  52.825  1.00  0.00     0.025 A 
ENDBRANCH  10  11
BRANCH   1  17
HETATM   17  N1  UNL     1      21.420   2.752  52.442  1.00  0.00    -0.380 N 
HETATM   18  H6  UNL     1      21.670   2.834  53.446  1.00  0.00     0.157 HD
BRANCH  17  19
HETATM   19  C3  UNL     1      20.359   3.562  51.996  1.00  0.00     0.144 C 
BRANCH  19  20
HETATM   20  C2  UNL     1      20.863   4.725  51.216  1.00  0.00    -0.018 C 
HETATM   21  C1  UNL     1      20.414   5.122  50.009  1.00  0.00     0.008 C 
ENDBRANCH  19  20
ENDBRANCH  17  19
ENDBRANCH   1  17
TORSDOF 5
ENDMDL
