MODEL 1
REMARK VINA RESULT:      -8.5      0.000      0.000
REMARK  9 active torsions:
REMARK  status: ('A' for Active; 'I' for Inactive)
REMARK    1  A    between atoms: C3_4  and  N2_5 
REMARK    2  A    between atoms: N2_5  and  C4_6 
REMARK    3  A    between atoms: C4_6  and  C5_7 
REMARK    4  A    between atoms: C11_14  and  C12_15 
REMARK    5  A    between atoms: C11_14  and  C18_23 
REMARK    6  A    between atoms: C15_18  and  O1_19 
REMARK    7  A    between atoms: C17_21  and  O2_22 
REMARK    8  A    between atoms: C18_23  and  N4_25 
REMARK    9  A    between atoms: C23_29  and  O3_30 
ROOT
HETATM    1  C1  UNL     1      21.887   4.756  52.580  1.00  0.00     0.069 C 
HETATM    2  C2  UNL     1      23.112   3.893  52.620  1.00  0.00     0.065 A 
HETATM    3  N1  UNL     1      24.203   3.744  53.329  1.00  0.00    -0.070 NA
HETATM    4  C3  UNL     1      24.984   2.663  52.788  1.00  0.00     0.719 A 
HETATM    5  N3  UNL     1      24.401   2.129  51.746  1.00  0.00    -0.081 NA
HETATM    6  C11 UNL     1      23.172   2.878  51.553  1.00  0.00     0.162 A 
ENDROOT
BRANCH   6   7
HETATM    7  C12 UNL     1      21.958   2.050  51.723  1.00  0.00     0.014 A 
HETATM    8  C13 UNL     1      20.676   2.103  51.229  1.00  0.00     0.016 A 
HETATM    9  C14 UNL     1      19.656   1.245  51.552  1.00  0.00     0.037 A 
HETATM   10  C15 UNL     1      19.902   0.232  52.444  1.00  0.00     0.068 A 
HETATM   11  C16 UNL     1      21.172   0.130  52.974  1.00  0.00     0.073 A 
HETATM   12  C17 UNL     1      22.189   1.024  52.622  1.00  0.00     0.077 A 
BRANCH  10  13
HETATM   13  O1  UNL     1      18.837  -0.606  52.735  1.00  0.00    -0.361 OA
HETATM   14  H14 UNL     1      18.280  -0.975  51.992  1.00  0.00     0.217 HD
ENDBRANCH  10  13
BRANCH  12  15
HETATM   15  O2  UNL     1      23.339   0.652  53.325  1.00  0.00    -0.360 OA
HETATM   16  H16 UNL     1      23.818  -0.209  53.200  1.00  0.00     0.217 HD
ENDBRANCH  12  15
ENDBRANCH   6   7
BRANCH   6  17
HETATM   17  C18 UNL     1      23.163   3.429  50.138  1.00  0.00     0.122 C 
HETATM   18  C19 UNL     1      23.024   2.178  49.242  1.00  0.00     0.036 C 
BRANCH  17  19
HETATM   19  N4  UNL     1      24.344   4.090  49.695  1.00  0.00    -0.372 N 
HETATM   20  C20 UNL     1      25.569   3.354  49.632  1.00  0.00     0.087 A 
HETATM   21  C21 UNL     1      26.786   3.766  49.300  1.00  0.00     0.019 A 
HETATM   22  C22 UNL     1      27.008   5.146  48.928  1.00  0.00     0.035 A 
HETATM   23  C23 UNL     1      25.893   5.844  48.969  1.00  0.00     0.065 A 
HETATM   24  C24 UNL     1      24.476   5.496  49.307  1.00  0.00     0.137 A 
HETATM   25  C25 UNL     1      24.056   6.334  50.487  1.00  0.00     0.039 C 
BRANCH  23  26
HETATM   26  O3  UNL     1      25.894   7.211  48.646  1.00  0.00    -0.363 OA
HETATM   27  H24 UNL     1      26.704   7.715  48.343  1.00  0.00     0.217 HD
ENDBRANCH  23  26
ENDBRANCH  17  19
ENDBRANCH   6  17
BRANCH   4  28
HETATM   28  N2  UNL     1      26.217   2.323  53.410  1.00  0.00    -0.218 N 
HETATM   29  H4  UNL     1      26.383   2.383  54.432  1.00  0.00     0.178 HD
BRANCH  28  30
HETATM   30  C4  UNL     1      27.298   1.869  52.559  1.00  0.00     0.176 C 
BRANCH  30  31
HETATM   31  C5  UNL     1      27.592   0.445  52.706  1.00  0.00    -0.040 A 
HETATM   32  C6  UNL     1      26.776  -0.592  52.379  1.00  0.00     0.009 A 
HETATM   33  C7  UNL     1      27.118  -1.910  52.544  1.00  0.00     0.001 A 
HETATM   34  C8  UNL     1      28.363  -2.257  53.073  1.00  0.00     0.000 A 
HETATM   35  C9  UNL     1      29.226  -1.239  53.420  1.00  0.00     0.001 A 
HETATM   36  C10 UNL     1      28.832   0.070  53.234  1.00  0.00     0.009 A 
ENDBRANCH  30  31
ENDBRANCH  28  30
ENDBRANCH   4  28
TORSDOF 9
ENDMDL
MODEL 2
REMARK VINA RESULT:      -8.4      1.049      1.966
REMARK  9 active torsions:
REMARK  status: ('A' for Active; 'I' for Inactive)
REMARK    1  A    between atoms: C3_4  and  N2_5 
REMARK    2  A    between atoms: N2_5  and  C4_6 
REMARK    3  A    between atoms: C4_6  and  C5_7 
REMARK    4  A    between atoms: C11_14  and  C12_15 
REMARK    5  A    between atoms: C11_14  and  C18_23 
REMARK    6  A    between atoms: C15_18  and  O1_19 
REMARK    7  A    between atoms: C17_21  and  O2_22 
REMARK    8  A    between atoms: C18_23  and  N4_25 
REMARK    9  A    between atoms: C23_29  and  O3_30 
ROOT
HETATM    1  C1  UNL     1      22.975   4.451  53.459  1.00  0.00     0.069 C 
HETATM    2  C2  UNL     1      23.973   3.565  52.777  1.00  0.00     0.065 A 
HETATM    3  N1  UNL     1      25.221   3.187  52.904  1.00  0.00    -0.070 NA
HETATM    4  C3  UNL     1      25.554   2.265  51.849  1.00  0.00     0.719 A 
HETATM    5  N3  UNL     1      24.534   2.060  51.057  1.00  0.00    -0.081 NA
HETATM    6  C11 UNL     1      23.455   2.879  51.581  1.00  0.00     0.162 A 
ENDROOT
BRANCH   6   7
HETATM    7  C12 UNL     1      22.300   2.082  52.049  1.00  0.00     0.014 A 
HETATM    8  C13 UNL     1      20.935   2.189  51.915  1.00  0.00     0.016 A 
HETATM    9  C14 UNL     1      20.007   1.351  52.478  1.00  0.00     0.037 A 
HETATM   10  C15 UNL     1      20.442   0.303  53.249  1.00  0.00     0.068 A 
HETATM   11  C16 UNL     1      21.803   0.147  53.420  1.00  0.00     0.073 A 
HETATM   12  C17 UNL     1      22.723   1.021  52.830  1.00  0.00     0.077 A 
BRANCH  10  13
HETATM   13  O1  UNL     1      19.462  -0.512  53.794  1.00  0.00    -0.361 OA
HETATM   14  H14 UNL     1      19.675  -1.463  54.013  1.00  0.00     0.217 HD
ENDBRANCH  10  13
BRANCH  12  15
HETATM   15  O2  UNL     1      24.003   0.592  53.192  1.00  0.00    -0.360 OA
HETATM   16  H16 UNL     1      24.746   0.444  52.552  1.00  0.00     0.217 HD
ENDBRANCH  12  15
ENDBRANCH   6   7
BRANCH   6  17
HETATM   17  C18 UNL     1      22.968   3.795  50.473  1.00  0.00     0.122 C 
HETATM   18  C19 UNL     1      23.452   3.114  49.173  1.00  0.00     0.036 C 
BRANCH  17  19
HETATM   19  N4  UNL     1      23.507   5.113  50.440  1.00  0.00    -0.372 N 
HETATM   20  C20 UNL     1      22.610   6.228  50.437  1.00  0.00     0.087 A 
HETATM   21  C21 UNL     1      22.878   7.526  50.361  1.00  0.00     0.019 A 
HETATM   22  C22 UNL     1      24.248   7.980  50.270  1.00  0.00     0.035 A 
HETATM   23  C23 UNL     1      25.094   6.972  50.282  1.00  0.00     0.065 A 
HETATM   24  C24 UNL     1      24.920   5.487  50.376  1.00  0.00     0.137 A 
HETATM   25  C25 UNL     1      25.498   4.867  49.130  1.00  0.00     0.039 C 
BRANCH  23  26
HETATM   26  O3  UNL     1      26.478   7.200  50.196  1.00  0.00    -0.363 OA
HETATM   27  H24 UNL     1      27.167   6.474  50.214  1.00  0.00     0.217 HD
ENDBRANCH  23  26
ENDBRANCH  17  19
ENDBRANCH   6  17
BRANCH   4  28
HETATM   28  N2  UNL     1      26.867   1.723  51.796  1.00  0.00    -0.218 N 
HETATM   29  H4  UNL     1      27.393   1.570  50.915  1.00  0.00     0.178 HD
BRANCH  28  30
HETATM   30  C4  UNL     1      27.499   1.364  53.049  1.00  0.00     0.176 C 
BRANCH  30  31
HETATM   31  C5  UNL     1      27.982  -0.015  53.081  1.00  0.00    -0.040 A 
HETATM   32  C6  UNL     1      29.219  -0.434  53.463  1.00  0.00     0.009 A 
HETATM   33  C7  UNL     1      29.607  -1.749  53.469  1.00  0.00     0.001 A 
HETATM   34  C8  UNL     1      28.719  -2.751  53.069  1.00  0.00     0.000 A 
HETATM   35  C9  UNL     1      27.453  -2.375  52.674  1.00  0.00     0.001 A 
HETATM   36  C10 UNL     1      27.113  -1.037  52.686  1.00  0.00     0.009 A 
ENDBRANCH  30  31
ENDBRANCH  28  30
ENDBRANCH   4  28
TORSDOF 9
ENDMDL
MODEL 3
REMARK VINA RESULT:      -8.3      2.070      5.321
REMARK  9 active torsions:
REMARK  status: ('A' for Active; 'I' for Inactive)
REMARK    1  A    between atoms: C3_4  and  N2_5 
REMARK    2  A    between atoms: N2_5  and  C4_6 
REMARK    3  A    between atoms: C4_6  and  C5_7 
REMARK    4  A    between atoms: C11_14  and  C12_15 
REMARK    5  A    between atoms: C11_14  and  C18_23 
REMARK    6  A    between atoms: C15_18  and  O1_19 
REMARK    7  A    between atoms: C17_21  and  O2_22 
REMARK    8  A    between atoms: C18_23  and  N4_25 
REMARK    9  A    between atoms: C23_29  and  O3_30 
ROOT
HETATM    1  C1  UNL     1      22.734   2.603  48.969  1.00  0.00     0.069 C 
HETATM    2  C2  UNL     1      23.188   2.314  50.367  1.00  0.00     0.065 A 
HETATM    3  N1  UNL     1      23.340   1.295  51.176  1.00  0.00    -0.070 NA
HETATM    4  C3  UNL     1      23.852   1.755  52.440  1.00  0.00     0.719 A 
HETATM    5  N3  UNL     1      24.023   3.052  52.440  1.00  0.00    -0.081 NA
HETATM    6  C11 UNL     1      23.604   3.507  51.127  1.00  0.00     0.162 A 
ENDROOT
BRANCH   6   7
HETATM    7  C12 UNL     1      24.705   4.111  50.346  1.00  0.00     0.014 A 
HETATM    8  C13 UNL     1      24.832   5.239  49.569  1.00  0.00     0.016 A 
HETATM    9  C14 UNL     1      25.955   5.610  48.873  1.00  0.00     0.037 A 
HETATM   10  C15 UNL     1      27.066   4.809  48.934  1.00  0.00     0.068 A 
HETATM   11  C16 UNL     1      26.997   3.662  49.699  1.00  0.00     0.073 A 
HETATM   12  C17 UNL     1      25.835   3.314  50.397  1.00  0.00     0.077 A 
BRANCH  10  13
HETATM   13  O1  UNL     1      28.172   5.231  48.213  1.00  0.00    -0.361 OA
HETATM   14  H14 UNL     1      28.946   4.611  48.086  1.00  0.00     0.217 HD
ENDBRANCH  10  13
BRANCH  12  15
HETATM   15  O2  UNL     1      26.089   2.112  51.064  1.00  0.00    -0.360 OA
HETATM   16  H16 UNL     1      25.412   1.401  51.214  1.00  0.00     0.217 HD
ENDBRANCH  12  15
ENDBRANCH   6   7
BRANCH   6  17
HETATM   17  C18 UNL     1      22.528   4.563  51.306  1.00  0.00     0.122 C 
HETATM   18  C19 UNL     1      22.807   5.159  52.704  1.00  0.00     0.036 C 
BRANCH  17  19
HETATM   19  N4  UNL     1      21.178   4.111  51.343  1.00  0.00    -0.372 N 
HETATM   20  C20 UNL     1      20.851   2.967  52.138  1.00  0.00     0.087 A 
HETATM   21  C21 UNL     1      19.688   2.346  52.285  1.00  0.00     0.019 A 
HETATM   22  C22 UNL     1      18.517   2.822  51.582  1.00  0.00     0.035 A 
HETATM   23  C23 UNL     1      18.789   3.881  50.850  1.00  0.00     0.065 A 
HETATM   24  C24 UNL     1      20.039   4.674  50.615  1.00  0.00     0.137 A 
HETATM   25  C25 UNL     1      20.364   4.612  49.145  1.00  0.00     0.039 C 
BRANCH  23  26
HETATM   26  O3  UNL     1      17.786   4.496  50.082  1.00  0.00    -0.363 OA
HETATM   27  H24 UNL     1      17.953   5.239  49.433  1.00  0.00     0.217 HD
ENDBRANCH  23  26
ENDBRANCH  17  19
ENDBRANCH   6  17
BRANCH   4  28
HETATM   28  N2  UNL     1      24.096   0.809  53.472  1.00  0.00    -0.218 N 
HETATM   29  H4  UNL     1      23.796   0.938  54.457  1.00  0.00     0.178 HD
BRANCH  28  30
HETATM   30  C4  UNL     1      24.807  -0.403  53.119  1.00  0.00     0.176 C 
BRANCH  30  31
HETATM   31  C5  UNL     1      26.215  -0.384  53.509  1.00  0.00    -0.040 A 
HETATM   32  C6  UNL     1      26.773   0.354  54.505  1.00  0.00     0.009 A 
HETATM   33  C7  UNL     1      28.108   0.323  54.818  1.00  0.00     0.001 A 
HETATM   34  C8  UNL     1      28.984  -0.496  54.101  1.00  0.00     0.000 A 
HETATM   35  C9  UNL     1      28.464  -1.264  53.081  1.00  0.00     0.001 A 
HETATM   36  C10 UNL     1      27.113  -1.195  52.807  1.00  0.00     0.009 A 
ENDBRANCH  30  31
ENDBRANCH  28  30
ENDBRANCH   4  28
TORSDOF 9
ENDMDL
MODEL 4
REMARK VINA RESULT:      -8.2      2.133      2.887
REMARK  9 active torsions:
REMARK  status: ('A' for Active; 'I' for Inactive)
REMARK    1  A    between atoms: C3_4  and  N2_5 
REMARK    2  A    between atoms: N2_5  and  C4_6 
REMARK    3  A    between atoms: C4_6  and  C5_7 
REMARK    4  A    between atoms: C11_14  and  C12_15 
REMARK    5  A    between atoms: C11_14  and  C18_23 
REMARK    6  A    between atoms: C15_18  and  O1_19 
REMARK    7  A    between atoms: C17_21  and  O2_22 
REMARK    8  A    between atoms: C18_23  and  N4_25 
REMARK    9  A    between atoms: C23_29  and  O3_30 
ROOT
HETATM    1  C1  UNL     1      20.680   3.887  52.452  1.00  0.00     0.069 C 
HETATM    2  C2  UNL     1      22.065   3.569  51.975  1.00  0.00     0.065 A 
HETATM    3  N1  UNL     1      23.282   4.045  52.061  1.00  0.00    -0.070 NA
HETATM    4  C3  UNL     1      24.184   3.194  51.328  1.00  0.00     0.719 A 
HETATM    5  N3  UNL     1      23.550   2.190  50.779  1.00  0.00    -0.081 NA
HETATM    6  C11 UNL     1      22.154   2.359  51.139  1.00  0.00     0.162 A 
ENDROOT
BRANCH   6   7
HETATM    7  C12 UNL     1      21.637   1.257  51.980  1.00  0.00     0.014 A 
HETATM    8  C13 UNL     1      20.463   0.541  52.019  1.00  0.00     0.016 A 
HETATM    9  C14 UNL     1      20.150  -0.437  52.929  1.00  0.00     0.037 A 
HETATM   10  C15 UNL     1      21.066  -0.755  53.899  1.00  0.00     0.068 A 
HETATM   11  C16 UNL     1      22.263  -0.068  53.909  1.00  0.00     0.073 A 
HETATM   12  C17 UNL     1      22.549   0.924  52.965  1.00  0.00     0.077 A 
BRANCH  10  13
HETATM   13  O1  UNL     1      20.700  -1.750  54.792  1.00  0.00    -0.361 OA
HETATM   14  H14 UNL     1      21.254  -2.578  54.865  1.00  0.00     0.217 HD
ENDBRANCH  10  13
BRANCH  12  15
HETATM   15  O2  UNL     1      23.826   1.419  53.247  1.00  0.00    -0.360 OA
HETATM   16  H16 UNL     1      24.365   1.158  54.039  1.00  0.00     0.217 HD
ENDBRANCH  12  15
ENDBRANCH   6   7
BRANCH   6  17
HETATM   17  C18 UNL     1      21.331   2.394  49.864  1.00  0.00     0.122 C 
HETATM   18  C19 UNL     1      21.892   1.233  49.014  1.00  0.00     0.036 C 
BRANCH  17  19
HETATM   19  N4  UNL     1      21.449   3.558  49.051  1.00  0.00    -0.372 N 
HETATM   20  C20 UNL     1      22.754   4.039  48.714  1.00  0.00     0.087 A 
HETATM   21  C21 UNL     1      23.104   5.114  48.021  1.00  0.00     0.019 A 
HETATM   22  C22 UNL     1      22.089   5.992  47.480  1.00  0.00     0.035 A 
HETATM   23  C23 UNL     1      20.877   5.565  47.768  1.00  0.00     0.065 A 
HETATM   24  C24 UNL     1      20.358   4.377  48.519  1.00  0.00     0.137 A 
HETATM   25  C25 UNL     1      19.553   4.877  49.690  1.00  0.00     0.039 C 
BRANCH  23  26
HETATM   26  O3  UNL     1      19.747   6.280  47.338  1.00  0.00    -0.363 OA
HETATM   27  H24 UNL     1      19.399   7.103  47.790  1.00  0.00     0.217 HD
ENDBRANCH  23  26
ENDBRANCH  17  19
ENDBRANCH   6  17
BRANCH   4  28
HETATM   28  N2  UNL     1      25.566   3.523  51.291  1.00  0.00    -0.218 N 
HETATM   29  H4  UNL     1      25.948   4.444  51.577  1.00  0.00     0.178 HD
BRANCH  28  30
HETATM   30  C4  UNL     1      26.488   2.508  50.825  1.00  0.00     0.176 C 
BRANCH  30  31
HETATM   31  C5  UNL     1      27.004   1.657  51.895  1.00  0.00    -0.040 A 
HETATM   32  C6  UNL     1      27.739   2.055  52.968  1.00  0.00     0.009 A 
HETATM   33  C7  UNL     1      28.191   1.200  53.939  1.00  0.00     0.001 A 
HETATM   34  C8  UNL     1      27.909  -0.166  53.867  1.00  0.00     0.000 A 
HETATM   35  C9  UNL     1      27.166  -0.618  52.797  1.00  0.00     0.001 A 
HETATM   36  C10 UNL     1      26.735   0.285  51.846  1.00  0.00     0.009 A 
ENDBRANCH  30  31
ENDBRANCH  28  30
ENDBRANCH   4  28
TORSDOF 9
ENDMDL
MODEL 5
REMARK VINA RESULT:      -8.2      3.007      4.626
REMARK  9 active torsions:
REMARK  status: ('A' for Active; 'I' for Inactive)
REMARK    1  A    between atoms: C3_4  and  N2_5 
REMARK    2  A    between atoms: N2_5  and  C4_6 
REMARK    3  A    between atoms: C4_6  and  C5_7 
REMARK    4  A    between atoms: C11_14  and  C12_15 
REMARK    5  A    between atoms: C11_14  and  C18_23 
REMARK    6  A    between atoms: C15_18  and  O1_19 
REMARK    7  A    between atoms: C17_21  and  O2_22 
REMARK    8  A    between atoms: C18_23  and  N4_25 
REMARK    9  A    between atoms: C23_29  and  O3_30 
ROOT
HETATM    1  C1  UNL     1      20.761   3.791  52.563  1.00  0.00     0.069 C 
HETATM    2  C2  UNL     1      22.106   3.466  51.987  1.00  0.00     0.065 A 
HETATM    3  N1  UNL     1      23.323   3.949  51.964  1.00  0.00    -0.070 NA
HETATM    4  C3  UNL     1      24.169   3.082  51.185  1.00  0.00     0.719 A 
HETATM    5  N3  UNL     1      23.500   2.061  50.715  1.00  0.00    -0.081 NA
HETATM    6  C11 UNL     1      22.136   2.234  51.180  1.00  0.00     0.162 A 
ENDROOT
BRANCH   6   7
HETATM    7  C12 UNL     1      21.694   1.153  52.088  1.00  0.00     0.014 A 
HETATM    8  C13 UNL     1      20.497   0.517  52.322  1.00  0.00     0.016 A 
HETATM    9  C14 UNL     1      20.277  -0.455  53.264  1.00  0.00     0.037 A 
HETATM   10  C15 UNL     1      21.319  -0.853  54.061  1.00  0.00     0.068 A 
HETATM   11  C16 UNL     1      22.546  -0.248  53.872  1.00  0.00     0.073 A 
HETATM   12  C17 UNL     1      22.735   0.741  52.901  1.00  0.00     0.077 A 
BRANCH  10  13
HETATM   13  O1  UNL     1      21.042  -1.838  54.996  1.00  0.00    -0.361 OA
HETATM   14  H14 UNL     1      20.235  -2.417  54.881  1.00  0.00     0.217 HD
ENDBRANCH  10  13
BRANCH  12  15
HETATM   15  O2  UNL     1      24.072   1.144  52.965  1.00  0.00    -0.360 OA
HETATM   16  H16 UNL     1      24.377   2.087  52.907  1.00  0.00     0.217 HD
ENDBRANCH  12  15
ENDBRANCH   6   7
BRANCH   6  17
HETATM   17  C18 UNL     1      21.214   2.231  49.973  1.00  0.00     0.122 C 
HETATM   18  C19 UNL     1      21.718   1.054  49.110  1.00  0.00     0.036 C 
BRANCH  17  19
HETATM   19  N4  UNL     1      21.256   3.375  49.126  1.00  0.00    -0.372 N 
HETATM   20  C20 UNL     1      22.523   3.839  48.650  1.00  0.00     0.087 A 
HETATM   21  C21 UNL     1      22.808   4.896  47.900  1.00  0.00     0.019 A 
HETATM   22  C22 UNL     1      21.748   5.768  47.443  1.00  0.00     0.035 A 
HETATM   23  C23 UNL     1      20.569   5.357  47.860  1.00  0.00     0.065 A 
HETATM   24  C24 UNL     1      20.122   4.189  48.686  1.00  0.00     0.137 A 
HETATM   25  C25 UNL     1      19.439   4.722  49.919  1.00  0.00     0.039 C 
BRANCH  23  26
HETATM   26  O3  UNL     1      19.405   6.070  47.528  1.00  0.00    -0.363 OA
HETATM   27  H24 UNL     1      19.362   6.771  46.815  1.00  0.00     0.217 HD
ENDBRANCH  23  26
ENDBRANCH  17  19
ENDBRANCH   6  17
BRANCH   4  28
HETATM   28  N2  UNL     1      25.542   3.416  51.029  1.00  0.00    -0.218 N 
HETATM   29  H4  UNL     1      26.155   3.717  51.811  1.00  0.00     0.178 HD
BRANCH  28  30
HETATM   30  C4  UNL     1      26.110   3.329  49.700  1.00  0.00     0.176 C 
BRANCH  30  31
HETATM   31  C5  UNL     1      26.654   4.597  49.217  1.00  0.00    -0.040 A 
HETATM   32  C6  UNL     1      27.855   4.787  48.608  1.00  0.00     0.009 A 
HETATM   33  C7  UNL     1      28.303   6.009  48.178  1.00  0.00     0.001 A 
HETATM   34  C8  UNL     1      27.520   7.153  48.354  1.00  0.00     0.000 A 
HETATM   35  C9  UNL     1      26.294   7.010  48.967  1.00  0.00     0.001 A 
HETATM   36  C10 UNL     1      25.889   5.757  49.381  1.00  0.00     0.009 A 
ENDBRANCH  30  31
ENDBRANCH  28  30
ENDBRANCH   4  28
TORSDOF 9
ENDMDL
MODEL 6
REMARK VINA RESULT:      -7.9      2.247      2.734
REMARK  9 active torsions:
REMARK  status: ('A' for Active; 'I' for Inactive)
REMARK    1  A    between atoms: C3_4  and  N2_5 
REMARK    2  A    between atoms: N2_5  and  C4_6 
REMARK    3  A    between atoms: C4_6  and  C5_7 
REMARK    4  A    between atoms: C11_14  and  C12_15 
REMARK    5  A    between atoms: C11_14  and  C18_23 
REMARK    6  A    between atoms: C15_18  and  O1_19 
REMARK    7  A    between atoms: C17_21  and  O2_22 
REMARK    8  A    between atoms: C18_23  and  N4_25 
REMARK    9  A    between atoms: C23_29  and  O3_30 
ROOT
HETATM    1  C1  UNL     1      22.075   6.812  51.170  1.00  0.00     0.069 C 
HETATM    2  C2  UNL     1      22.459   5.402  51.501  1.00  0.00     0.065 A 
HETATM    3  N1  UNL     1      23.034   4.726  52.464  1.00  0.00    -0.070 NA
HETATM    4  C3  UNL     1      23.078   3.330  52.112  1.00  0.00     0.719 A 
HETATM    5  N3  UNL     1      22.541   3.119  50.939  1.00  0.00    -0.081 NA
HETATM    6  C11 UNL     1      22.117   4.421  50.456  1.00  0.00     0.162 A 
ENDROOT
BRANCH   6   7
HETATM    7  C12 UNL     1      20.652   4.523  50.281  1.00  0.00     0.014 A 
HETATM    8  C13 UNL     1      19.829   5.166  49.385  1.00  0.00     0.016 A 
HETATM    9  C14 UNL     1      18.458   5.174  49.420  1.00  0.00     0.037 A 
HETATM   10  C15 UNL     1      17.817   4.492  50.423  1.00  0.00     0.068 A 
HETATM   11  C16 UNL     1      18.592   3.828  51.351  1.00  0.00     0.073 A 
HETATM   12  C17 UNL     1      19.990   3.840  51.286  1.00  0.00     0.077 A 
BRANCH  10  13
HETATM   13  O1  UNL     1      16.432   4.533  50.410  1.00  0.00    -0.361 OA
HETATM   14  H14 UNL     1      15.939   4.869  51.213  1.00  0.00     0.217 HD
ENDBRANCH  10  13
BRANCH  12  15
HETATM   15  O2  UNL     1      20.469   3.083  52.359  1.00  0.00    -0.360 OA
HETATM   16  H16 UNL     1      19.939   2.861  53.168  1.00  0.00     0.217 HD
ENDBRANCH  12  15
ENDBRANCH   6   7
BRANCH   6  17
HETATM   17  C18 UNL     1      22.764   4.666  49.105  1.00  0.00     0.122 C 
HETATM   18  C19 UNL     1      22.326   3.458  48.247  1.00  0.00     0.036 C 
BRANCH  17  19
HETATM   19  N4  UNL     1      24.188   4.671  49.062  1.00  0.00    -0.372 N 
HETATM   20  C20 UNL     1      24.899   3.501  49.478  1.00  0.00     0.087 A 
HETATM   21  C21 UNL     1      26.206   3.295  49.569  1.00  0.00     0.019 A 
HETATM   22  C22 UNL     1      27.133   4.348  49.212  1.00  0.00     0.035 A 
HETATM   23  C23 UNL     1      26.503   5.433  48.815  1.00  0.00     0.065 A 
HETATM   24  C24 UNL     1      25.054   5.780  48.657  1.00  0.00     0.137 A 
HETATM   25  C25 UNL     1      24.750   6.947  49.560  1.00  0.00     0.039 C 
BRANCH  23  26
HETATM   26  O3  UNL     1      27.223   6.576  48.428  1.00  0.00    -0.363 OA
HETATM   27  H24 UNL     1      28.023   6.556  47.826  1.00  0.00     0.217 HD
ENDBRANCH  23  26
ENDBRANCH  17  19
ENDBRANCH   6  17
BRANCH   4  28
HETATM   28  N2  UNL     1      23.661   2.407  53.022  1.00  0.00    -0.218 N 
HETATM   29  H4  UNL     1      23.151   1.603  53.435  1.00  0.00     0.178 HD
BRANCH  28  30
HETATM   30  C4  UNL     1      25.048   2.609  53.390  1.00  0.00     0.176 C 
BRANCH  30  31
HETATM   31  C5  UNL     1      25.871   1.412  53.226  1.00  0.00    -0.040 A 
HETATM   32  C6  UNL     1      25.967   0.637  52.113  1.00  0.00     0.009 A 
HETATM   33  C7  UNL     1      26.763  -0.476  52.028  1.00  0.00     0.001 A 
HETATM   34  C8  UNL     1      27.538  -0.877  53.119  1.00  0.00     0.000 A 
HETATM   35  C9  UNL     1      27.474  -0.122  54.271  1.00  0.00     0.001 A 
HETATM   36  C10 UNL     1      26.656   0.989  54.304  1.00  0.00     0.009 A 
ENDBRANCH  30  31
ENDBRANCH  28  30
ENDBRANCH   4  28
TORSDOF 9
ENDMDL
MODEL 7
REMARK VINA RESULT:      -7.9      2.778      5.939
REMARK  9 active torsions:
REMARK  status: ('A' for Active; 'I' for Inactive)
REMARK    1  A    between atoms: C3_4  and  N2_5 
REMARK    2  A    between atoms: N2_5  and  C4_6 
REMARK    3  A    between atoms: C4_6  and  C5_7 
REMARK    4  A    between atoms: C11_14  and  C12_15 
REMARK    5  A    between atoms: C11_14  and  C18_23 
REMARK    6  A    between atoms: C15_18  and  O1_19 
REMARK    7  A    between atoms: C17_21  and  O2_22 
REMARK    8  A    between atoms: C18_23  and  N4_25 
REMARK    9  A    between atoms: C23_29  and  O3_30 
ROOT
HETATM    1  C1  UNL     1      22.356   3.685  47.462  1.00  0.00     0.069 C 
HETATM    2  C2  UNL     1      22.321   2.926  48.754  1.00  0.00     0.065 A 
HETATM    3  N1  UNL     1      22.046   1.725  49.198  1.00  0.00    -0.070 NA
HETATM    4  C3  UNL     1      22.236   1.684  50.624  1.00  0.00     0.719 A 
HETATM    5  N3  UNL     1      22.625   2.844  51.086  1.00  0.00    -0.081 NA
HETATM    6  C11 UNL     1      22.697   3.725  49.934  1.00  0.00     0.162 A 
ENDROOT
BRANCH   6   7
HETATM    7  C12 UNL     1      24.068   4.211  49.664  1.00  0.00     0.014 A 
HETATM    8  C13 UNL     1      24.594   5.313  49.032  1.00  0.00     0.016 A 
HETATM    9  C14 UNL     1      25.929   5.566  48.841  1.00  0.00     0.037 A 
HETATM   10  C15 UNL     1      26.847   4.662  49.309  1.00  0.00     0.068 A 
HETATM   11  C16 UNL     1      26.376   3.534  49.951  1.00  0.00     0.073 A 
HETATM   12  C17 UNL     1      25.007   3.308  50.129  1.00  0.00     0.077 A 
BRANCH  10  13
HETATM   13  O1  UNL     1      28.182   4.966  49.089  1.00  0.00    -0.361 OA
HETATM   14  H14 UNL     1      28.637   4.633  48.265  1.00  0.00     0.217 HD
ENDBRANCH  10  13
BRANCH  12  15
HETATM   15  O2  UNL     1      24.866   2.094  50.807  1.00  0.00    -0.360 OA
HETATM   16  H16 UNL     1      24.767   1.212  50.363  1.00  0.00     0.217 HD
ENDBRANCH  12  15
ENDBRANCH   6   7
BRANCH   6  17
HETATM   17  C18 UNL     1      21.819   4.935  50.200  1.00  0.00     0.122 C 
HETATM   18  C19 UNL     1      22.304   5.465  51.568  1.00  0.00     0.036 C 
BRANCH  17  19
HETATM   19  N4  UNL     1      20.423   4.700  50.352  1.00  0.00    -0.372 N 
HETATM   20  C20 UNL     1      19.980   3.770  51.345  1.00  0.00     0.087 A 
HETATM   21  C21 UNL     1      18.751   3.361  51.631  1.00  0.00     0.019 A 
HETATM   22  C22 UNL     1      17.623   3.877  50.885  1.00  0.00     0.035 A 
HETATM   23  C23 UNL     1      18.004   4.743  49.970  1.00  0.00     0.065 A 
HETATM   24  C24 UNL     1      19.338   5.290  49.566  1.00  0.00     0.137 A 
HETATM   25  C25 UNL     1      19.575   4.930  48.122  1.00  0.00     0.039 C 
BRANCH  23  26
HETATM   26  O3  UNL     1      17.058   5.358  49.132  1.00  0.00    -0.363 OA
HETATM   27  H24 UNL     1      16.227   5.808  49.461  1.00  0.00     0.217 HD
ENDBRANCH  23  26
ENDBRANCH  17  19
ENDBRANCH   6  17
BRANCH   4  28
HETATM   28  N2  UNL     1      21.996   0.466  51.317  1.00  0.00    -0.218 N 
HETATM   29  H4  UNL     1      22.106  -0.473  50.890  1.00  0.00     0.178 HD
BRANCH  28  30
HETATM   30  C4  UNL     1      21.572   0.550  52.700  1.00  0.00     0.176 C 
BRANCH  30  31
HETATM   31  C5  UNL     1      22.495  -0.097  53.630  1.00  0.00    -0.040 A 
HETATM   32  C6  UNL     1      22.163  -0.835  54.723  1.00  0.00     0.009 A 
HETATM   33  C7  UNL     1      23.085  -1.417  55.555  1.00  0.00     0.001 A 
HETATM   34  C8  UNL     1      24.452  -1.272  55.309  1.00  0.00     0.000 A 
HETATM   35  C9  UNL     1      24.838  -0.533  54.211  1.00  0.00     0.001 A 
HETATM   36  C10 UNL     1      23.870   0.032  53.405  1.00  0.00     0.009 A 
ENDBRANCH  30  31
ENDBRANCH  28  30
ENDBRANCH   4  28
TORSDOF 9
ENDMDL
MODEL 8
REMARK VINA RESULT:      -7.9      2.248      5.497
REMARK  9 active torsions:
REMARK  status: ('A' for Active; 'I' for Inactive)
REMARK    1  A    between atoms: C3_4  and  N2_5 
REMARK    2  A    between atoms: N2_5  and  C4_6 
REMARK    3  A    between atoms: C4_6  and  C5_7 
REMARK    4  A    between atoms: C11_14  and  C12_15 
REMARK    5  A    between atoms: C11_14  and  C18_23 
REMARK    6  A    between atoms: C15_18  and  O1_19 
REMARK    7  A    between atoms: C17_21  and  O2_22 
REMARK    8  A    between atoms: C18_23  and  N4_25 
REMARK    9  A    between atoms: C23_29  and  O3_30 
ROOT
HETATM    1  C1  UNL     1      21.766   1.336  49.011  1.00  0.00     0.069 C 
HETATM    2  C2  UNL     1      22.762   2.177  49.750  1.00  0.00     0.065 A 
HETATM    3  N1  UNL     1      24.038   2.184  50.044  1.00  0.00    -0.070 NA
HETATM    4  C3  UNL     1      24.347   3.356  50.821  1.00  0.00     0.719 A 
HETATM    5  N3  UNL     1      23.281   4.087  51.023  1.00  0.00    -0.081 NA
HETATM    6  C11 UNL     1      22.191   3.387  50.368  1.00  0.00     0.162 A 
ENDROOT
BRANCH   6   7
HETATM    7  C12 UNL     1      21.597   4.159  49.254  1.00  0.00     0.014 A 
HETATM    8  C13 UNL     1      20.317   4.357  48.792  1.00  0.00     0.016 A 
HETATM    9  C14 UNL     1      19.969   5.091  47.686  1.00  0.00     0.037 A 
HETATM   10  C15 UNL     1      20.958   5.694  46.954  1.00  0.00     0.068 A 
HETATM   11  C16 UNL     1      22.264   5.529  47.370  1.00  0.00     0.073 A 
HETATM   12  C17 UNL     1      22.584   4.773  48.503  1.00  0.00     0.077 A 
BRANCH  10  13
HETATM   13  O1  UNL     1      20.551   6.423  45.847  1.00  0.00    -0.361 OA
HETATM   14  H14 UNL     1      19.861   7.138  45.952  1.00  0.00     0.217 HD
ENDBRANCH  10  13
BRANCH  12  15
HETATM   15  O2  UNL     1      23.973   4.802  48.651  1.00  0.00    -0.360 OA
HETATM   16  H16 UNL     1      24.541   3.996  48.772  1.00  0.00     0.217 HD
ENDBRANCH  12  15
ENDBRANCH   6   7
BRANCH   6  17
HETATM   17  C18 UNL     1      21.099   3.134  51.391  1.00  0.00     0.122 C 
HETATM   18  C19 UNL     1      21.167   4.358  52.333  1.00  0.00     0.036 C 
BRANCH  17  19
HETATM   19  N4  UNL     1      21.251   1.994  52.231  1.00  0.00    -0.372 N 
HETATM   20  C20 UNL     1      22.560   1.640  52.689  1.00  0.00     0.087 A 
HETATM   21  C21 UNL     1      22.945   0.608  53.428  1.00  0.00     0.019 A 
HETATM   22  C22 UNL     1      21.971  -0.356  53.892  1.00  0.00     0.035 A 
HETATM   23  C23 UNL     1      20.756  -0.047  53.491  1.00  0.00     0.065 A 
HETATM   24  C24 UNL     1      20.198   1.081  52.679  1.00  0.00     0.137 A 
HETATM   25  C25 UNL     1      19.549   0.498  51.450  1.00  0.00     0.039 C 
BRANCH  23  26
HETATM   26  O3  UNL     1      19.663  -0.862  53.832  1.00  0.00    -0.363 OA
HETATM   27  H24 UNL     1      19.227  -0.866  54.733  1.00  0.00     0.217 HD
ENDBRANCH  23  26
ENDBRANCH  17  19
ENDBRANCH   6  17
BRANCH   4  28
HETATM   28  N2  UNL     1      25.686   3.567  51.249  1.00  0.00    -0.218 N 
HETATM   29  H4  UNL     1      26.033   4.465  51.637  1.00  0.00     0.178 HD
BRANCH  28  30
HETATM   30  C4  UNL     1      26.613   2.461  51.131  1.00  0.00     0.176 C 
BRANCH  30  31
HETATM   31  C5  UNL     1      26.534   1.517  52.245  1.00  0.00    -0.040 A 
HETATM   32  C6  UNL     1      26.511   1.823  53.570  1.00  0.00     0.009 A 
HETATM   33  C7  UNL     1      26.434   0.883  54.565  1.00  0.00     0.001 A 
HETATM   34  C8  UNL     1      26.376  -0.477  54.252  1.00  0.00     0.000 A 
HETATM   35  C9  UNL     1      26.396  -0.837  52.920  1.00  0.00     0.001 A 
HETATM   36  C10 UNL     1      26.474   0.149  51.958  1.00  0.00     0.009 A 
ENDBRANCH  30  31
ENDBRANCH  28  30
ENDBRANCH   4  28
TORSDOF 9
ENDMDL
MODEL 9
REMARK VINA RESULT:      -7.9      2.674      4.513
REMARK  9 active torsions:
REMARK  status: ('A' for Active; 'I' for Inactive)
REMARK    1  A    between atoms: C3_4  and  N2_5 
REMARK    2  A    between atoms: N2_5  and  C4_6 
REMARK    3  A    between atoms: C4_6  and  C5_7 
REMARK    4  A    between atoms: C11_14  and  C12_15 
REMARK    5  A    between atoms: C11_14  and  C18_23 
REMARK    6  A    between atoms: C15_18  and  O1_19 
REMARK    7  A    between atoms: C17_21  and  O2_22 
REMARK    8  A    between atoms: C18_23  and  N4_25 
REMARK    9  A    between atoms: C23_29  and  O3_30 
ROOT
HETATM    1  C1  UNL     1      18.931   3.539  51.577  1.00  0.00     0.069 C 
HETATM    2  C2  UNL     1      20.374   3.136  51.620  1.00  0.00     0.065 A 
HETATM    3  N1  UNL     1      21.515   3.569  52.095  1.00  0.00    -0.070 NA
HETATM    4  C3  UNL     1      22.560   2.637  51.758  1.00  0.00     0.719 A 
HETATM    5  N3  UNL     1      22.093   1.624  51.076  1.00  0.00    -0.081 NA
HETATM    6  C11 UNL     1      20.670   1.870  50.926  1.00  0.00     0.162 A 
ENDROOT
BRANCH   6   7
HETATM    7  C12 UNL     1      19.833   0.848  51.593  1.00  0.00     0.014 A 
HETATM    8  C13 UNL     1      18.629   0.248  51.305  1.00  0.00     0.016 A 
HETATM    9  C14 UNL     1      17.982  -0.668  52.094  1.00  0.00     0.037 A 
HETATM   10  C15 UNL     1      18.557  -1.043  53.282  1.00  0.00     0.068 A 
HETATM   11  C16 UNL     1      19.767  -0.472  53.623  1.00  0.00     0.073 A 
HETATM   12  C17 UNL     1      20.400   0.460  52.794  1.00  0.00     0.077 A 
BRANCH  10  13
HETATM   13  O1  UNL     1      17.861  -1.972  54.040  1.00  0.00    -0.361 OA
HETATM   14  H14 UNL     1      18.340  -2.495  54.743  1.00  0.00     0.217 HD
ENDBRANCH  10  13
BRANCH  12  15
HETATM   15  O2  UNL     1      21.591   0.840  53.419  1.00  0.00    -0.360 OA
HETATM   16  H16 UNL     1      22.295   0.206  53.714  1.00  0.00     0.217 HD
ENDBRANCH  12  15
ENDBRANCH   6   7
BRANCH   6  17
HETATM   17  C18 UNL     1      20.332   1.853  49.446  1.00  0.00     0.122 C 
HETATM   18  C19 UNL     1      21.396   0.921  48.823  1.00  0.00     0.036 C 
BRANCH  17  19
HETATM   19  N4  UNL     1      20.443   3.086  48.743  1.00  0.00    -0.372 N 
HETATM   20  C20 UNL     1      19.304   3.585  48.034  1.00  0.00     0.087 A 
HETATM   21  C21 UNL     1      19.188   4.671  47.280  1.00  0.00     0.019 A 
HETATM   22  C22 UNL     1      20.324   5.547  47.089  1.00  0.00     0.035 A 
HETATM   23  C23 UNL     1      21.383   5.114  47.741  1.00  0.00     0.065 A 
HETATM   24  C24 UNL     1      21.633   3.930  48.624  1.00  0.00     0.137 A 
HETATM   25  C25 UNL     1      22.719   3.097  47.994  1.00  0.00     0.039 C 
BRANCH  23  26
HETATM   26  O3  UNL     1      22.595   5.822  47.682  1.00  0.00    -0.363 OA
HETATM   27  H24 UNL     1      23.490   5.417  47.874  1.00  0.00     0.217 HD
ENDBRANCH  23  26
ENDBRANCH  17  19
ENDBRANCH   6  17
BRANCH   4  28
HETATM   28  N2  UNL     1      23.890   2.909  52.181  1.00  0.00    -0.218 N 
HETATM   29  H4  UNL     1      24.127   3.359  53.085  1.00  0.00     0.178 HD
BRANCH  28  30
HETATM   30  C4  UNL     1      24.969   2.535  51.290  1.00  0.00     0.176 C 
BRANCH  30  31
HETATM   31  C5  UNL     1      25.473   3.648  50.489  1.00  0.00    -0.040 A 
HETATM   32  C6  UNL     1      24.941   4.897  50.407  1.00  0.00     0.009 A 
HETATM   33  C7  UNL     1      25.468   5.898  49.632  1.00  0.00     0.001 A 
HETATM   34  C8  UNL     1      26.613   5.672  48.866  1.00  0.00     0.000 A 
HETATM   35  C9  UNL     1      27.190   4.420  48.916  1.00  0.00     0.001 A 
HETATM   36  C10 UNL     1      26.619   3.447  49.712  1.00  0.00     0.009 A 
ENDBRANCH  30  31
ENDBRANCH  28  30
ENDBRANCH   4  28
TORSDOF 9
ENDMDL
