MODEL 1
REMARK VINA RESULT:      -7.6      0.000      0.000
REMARK  7 active torsions:
REMARK  status: ('A' for Active; 'I' for Inactive)
REMARK    1  A    between atoms: C1_2  and  O2_3 
REMARK    2  A    between atoms: O2_3  and  C2_4 
REMARK    3  A    between atoms: C4_6  and  C5_7 
REMARK    4  A    between atoms: C6_8  and  C7_9 
REMARK    5  A    between atoms: C7_9  and  C8_10 
REMARK    6  A    between atoms: C8_10  and  C9_11 
REMARK    7  A    between atoms: C9_11  and  O4_13 
ROOT
HETATM    1  C5  UNL     1      24.409   0.320  53.457  1.00  0.00     0.053 A 
HETATM    2  C6  UNL     1      23.926   1.449  52.956  1.00  0.00    -0.029 A 
HETATM    3  C10 UNL     1      22.567   0.991  53.203  1.00  0.00     0.116 A 
HETATM    4  C11 UNL     1      21.755   0.533  52.010  1.00  0.00     0.030 C 
HETATM    5  C12 UNL     1      20.508  -0.081  52.610  1.00  0.00     0.004 C 
HETATM    6  C13 UNL     1      20.769  -0.928  53.796  1.00  0.00     0.020 C 
HETATM    7  C14 UNL     1      22.168  -1.195  54.177  1.00  0.00     0.124 C 
HETATM    8  N1  UNL     1      23.141  -0.248  53.737  1.00  0.00    -0.371 N 
ENDROOT
BRANCH   1   9
HETATM    9  C4  UNL     1      25.758  -0.199  53.662  1.00  0.00     0.041 C 
HETATM   10  C3  UNL     1      26.639   0.353  54.476  1.00  0.00     0.028 C 
HETATM   11  C2  UNL     1      28.036  -0.140  54.722  1.00  0.00     0.169 C 
HETATM   12  C15 UNL     1      28.594  -0.576  53.395  1.00  0.00     0.136 C 
HETATM   13  N2  UNL     1      28.038  -1.896  53.105  1.00  0.00    -0.261 NA
HETATM   14  S1  UNL     1      26.321  -1.656  52.800  1.00  0.00    -0.043 SA
HETATM   15  H18 UNL     1      28.132  -2.438  53.998  1.00  0.00     0.135 HD
BRANCH  11  16
HETATM   16  O2  UNL     1      28.821   0.876  55.319  1.00  0.00    -0.318 OA
BRANCH  16  17
HETATM   17  C1  UNL     1      29.367   1.842  54.461  1.00  0.00     0.398 C 
HETATM   18  O1  UNL     1      28.950   2.889  53.907  1.00  0.00    -0.276 OA
ENDBRANCH  16  17
ENDBRANCH  11  16
ENDBRANCH   1   9
BRANCH   2  19
HETATM   19  C7  UNL     1      24.472   2.700  52.376  1.00  0.00     0.049 C 
BRANCH  19  20
HETATM   20  C8  UNL     1      24.946   2.438  50.968  1.00  0.00     0.114 C 
BRANCH  20  21
HETATM   21  C9  UNL     1      26.359   2.846  50.769  1.00  0.00     0.139 C 
HETATM   22  O3  UNL     1      26.575   3.166  49.577  1.00  0.00    -0.650 OA
BRANCH  21  23
HETATM   23  O4  UNL     1      27.418   2.925  51.648  1.00  0.00    -0.776 OA
HETATM   24  H8  UNL     1      28.282   2.442  51.427  1.00  0.00     0.167 HD
ENDBRANCH  21  23
ENDBRANCH  20  21
ENDBRANCH  19  20
ENDBRANCH   2  19
TORSDOF 7
ENDMDL
MODEL 2
REMARK VINA RESULT:      -7.2      3.663      6.440
REMARK  7 active torsions:
REMARK  status: ('A' for Active; 'I' for Inactive)
REMARK    1  A    between atoms: C1_2  and  O2_3 
REMARK    2  A    between atoms: O2_3  and  C2_4 
REMARK    3  A    between atoms: C4_6  and  C5_7 
REMARK    4  A    between atoms: C6_8  and  C7_9 
REMARK    5  A    between atoms: C7_9  and  C8_10 
REMARK    6  A    between atoms: C8_10  and  C9_11 
REMARK    7  A    between atoms: C9_11  and  O4_13 
ROOT
HETATM    1  C5  UNL     1      25.552   1.214  52.734  1.00  0.00     0.053 A 
HETATM    2  C6  UNL     1      25.011   0.042  53.040  1.00  0.00    -0.029 A 
HETATM    3  C10 UNL     1      26.296  -0.435  53.532  1.00  0.00     0.116 A 
HETATM    4  C11 UNL     1      27.056  -1.416  52.663  1.00  0.00     0.030 C 
HETATM    5  C12 UNL     1      28.414  -1.536  53.323  1.00  0.00     0.004 C 
HETATM    6  C13 UNL     1      28.973  -0.243  53.780  1.00  0.00     0.020 C 
HETATM    7  C14 UNL     1      28.253   0.997  53.439  1.00  0.00     0.124 C 
HETATM    8  N1  UNL     1      26.857   0.870  53.167  1.00  0.00    -0.371 N 
ENDROOT
BRANCH   1   9
HETATM    9  C4  UNL     1      25.029   2.447  52.153  1.00  0.00     0.041 C 
HETATM   10  C3  UNL     1      23.992   3.105  52.641  1.00  0.00     0.028 C 
HETATM   11  C2  UNL     1      23.416   4.374  52.082  1.00  0.00     0.169 C 
HETATM   12  C15 UNL     1      23.431   4.247  50.583  1.00  0.00     0.136 C 
HETATM   13  N2  UNL     1      24.798   4.517  50.141  1.00  0.00    -0.261 NA
HETATM   14  S1  UNL     1      25.779   3.168  50.704  1.00  0.00    -0.043 SA
HETATM   15  H18 UNL     1      25.096   5.372  50.670  1.00  0.00     0.135 HD
BRANCH  11  16
HETATM   16  O2  UNL     1      22.109   4.585  52.583  1.00  0.00    -0.318 OA
BRANCH  16  17
HETATM   17  C1  UNL     1      21.130   3.651  52.216  1.00  0.00     0.398 C 
HETATM   18  O1  UNL     1      20.003   3.312  52.655  1.00  0.00    -0.276 OA
ENDBRANCH  16  17
ENDBRANCH  11  16
ENDBRANCH   1   9
BRANCH   2  19
HETATM   19  C7  UNL     1      23.673  -0.591  52.956  1.00  0.00     0.049 C 
BRANCH  19  20
HETATM   20  C8  UNL     1      22.831  -0.148  54.127  1.00  0.00     0.114 C 
BRANCH  20  21
HETATM   21  C9  UNL     1      22.553  -1.262  55.068  1.00  0.00     0.139 C 
HETATM   22  O3  UNL     1      21.381  -1.686  54.934  1.00  0.00    -0.650 OA
BRANCH  21  23
HETATM   23  O4  UNL     1      23.343  -1.873  56.018  1.00  0.00    -0.776 OA
HETATM   24  H8  UNL     1      24.199  -2.332  55.729  1.00  0.00     0.167 HD
ENDBRANCH  21  23
ENDBRANCH  20  21
ENDBRANCH  19  20
ENDBRANCH   2  19
TORSDOF 7
ENDMDL
MODEL 3
REMARK VINA RESULT:      -7.1      3.150      5.456
REMARK  7 active torsions:
REMARK  status: ('A' for Active; 'I' for Inactive)
REMARK    1  A    between atoms: C1_2  and  O2_3 
REMARK    2  A    between atoms: O2_3  and  C2_4 
REMARK    3  A    between atoms: C4_6  and  C5_7 
REMARK    4  A    between atoms: C6_8  and  C7_9 
REMARK    5  A    between atoms: C7_9  and  C8_10 
REMARK    6  A    between atoms: C8_10  and  C9_11 
REMARK    7  A    between atoms: C9_11  and  O4_13 
ROOT
HETATM    1  C5  UNL     1      24.403   1.136  52.740  1.00  0.00     0.053 A 
HETATM    2  C6  UNL     1      25.207   0.086  52.855  1.00  0.00    -0.029 A 
HETATM    3  C10 UNL     1      24.137  -0.679  53.479  1.00  0.00     0.116 A 
HETATM    4  C11 UNL     1      24.217  -0.903  54.975  1.00  0.00     0.030 C 
HETATM    5  C12 UNL     1      22.881  -1.513  55.341  1.00  0.00     0.004 C 
HETATM    6  C13 UNL     1      21.727  -0.872  54.671  1.00  0.00     0.020 C 
HETATM    7  C14 UNL     1      21.965   0.335  53.858  1.00  0.00     0.124 C 
HETATM    8  N1  UNL     1      23.286   0.508  53.344  1.00  0.00    -0.371 N 
ENDROOT
BRANCH   1   9
HETATM    9  C4  UNL     1      24.569   2.480  52.196  1.00  0.00     0.041 C 
HETATM   10  C3  UNL     1      23.721   3.469  52.415  1.00  0.00     0.028 C 
HETATM   11  C2  UNL     1      23.847   4.867  51.880  1.00  0.00     0.169 C 
HETATM   12  C15 UNL     1      24.332   4.758  50.460  1.00  0.00     0.136 C 
HETATM   13  N2  UNL     1      25.771   4.509  50.514  1.00  0.00    -0.261 NA
HETATM   14  S1  UNL     1      25.971   2.887  51.171  1.00  0.00    -0.043 SA
HETATM   15  H18 UNL     1      26.143   5.189  51.222  1.00  0.00     0.135 HD
BRANCH  11  16
HETATM   16  O2  UNL     1      22.604   5.541  51.964  1.00  0.00    -0.318 OA
BRANCH  16  17
HETATM   17  C1  UNL     1      22.229   6.321  50.861  1.00  0.00     0.398 C 
HETATM   18  O1  UNL     1      21.983   7.536  50.662  1.00  0.00    -0.276 OA
ENDBRANCH  16  17
ENDBRANCH  11  16
ENDBRANCH   1   9
BRANCH   2  19
HETATM   19  C7  UNL     1      26.610  -0.249  52.512  1.00  0.00     0.049 C 
BRANCH  19  20
HETATM   20  C8  UNL     1      26.748  -1.744  52.361  1.00  0.00     0.114 C 
BRANCH  20  21
HETATM   21  C9  UNL     1      27.954  -2.265  53.050  1.00  0.00     0.139 C 
HETATM   22  O3  UNL     1      28.528  -1.365  53.705  1.00  0.00    -0.650 OA
BRANCH  21  23
HETATM   23  O4  UNL     1      28.515  -3.525  53.080  1.00  0.00    -0.776 OA
HETATM   24  H8  UNL     1      29.513  -3.626  52.936  1.00  0.00     0.167 HD
ENDBRANCH  21  23
ENDBRANCH  20  21
ENDBRANCH  19  20
ENDBRANCH   2  19
TORSDOF 7
ENDMDL
MODEL 4
REMARK VINA RESULT:      -7.0      3.163      6.034
REMARK  7 active torsions:
REMARK  status: ('A' for Active; 'I' for Inactive)
REMARK    1  A    between atoms: C1_2  and  O2_3 
REMARK    2  A    between atoms: O2_3  and  C2_4 
REMARK    3  A    between atoms: C4_6  and  C5_7 
REMARK    4  A    between atoms: C6_8  and  C7_9 
REMARK    5  A    between atoms: C7_9  and  C8_10 
REMARK    6  A    between atoms: C8_10  and  C9_11 
REMARK    7  A    between atoms: C9_11  and  O4_13 
ROOT
HETATM    1  C5  UNL     1      24.543   2.349  51.307  1.00  0.00     0.053 A 
HETATM    2  C6  UNL     1      25.810   1.971  51.418  1.00  0.00    -0.029 A 
HETATM    3  C10 UNL     1      26.249   3.231  50.835  1.00  0.00     0.116 A 
HETATM    4  C11 UNL     1      26.738   3.206  49.402  1.00  0.00     0.030 C 
HETATM    5  C12 UNL     1      26.897   4.664  49.028  1.00  0.00     0.004 C 
HETATM    6  C13 UNL     1      25.790   5.527  49.499  1.00  0.00     0.020 C 
HETATM    7  C14 UNL     1      24.623   4.890  50.135  1.00  0.00     0.124 C 
HETATM    8  N1  UNL     1      24.836   3.605  50.719  1.00  0.00    -0.371 N 
ENDROOT
BRANCH   1   9
HETATM    9  C4  UNL     1      23.269   1.725  51.652  1.00  0.00     0.041 C 
HETATM   10  C3  UNL     1      22.918   1.410  52.886  1.00  0.00     0.028 C 
HETATM   11  C2  UNL     1      21.622   0.768  53.293  1.00  0.00     0.169 C 
HETATM   12  C15 UNL     1      21.301  -0.278  52.261  1.00  0.00     0.136 C 
HETATM   13  N2  UNL     1      20.746   0.416  51.101  1.00  0.00    -0.261 NA
HETATM   14  S1  UNL     1      22.068   1.338  50.392  1.00  0.00    -0.043 SA
HETATM   15  H18 UNL     1      20.053   1.099  51.493  1.00  0.00     0.135 HD
BRANCH  11  16
HETATM   16  O2  UNL     1      21.732   0.216  54.592  1.00  0.00    -0.318 OA
BRANCH  16  17
HETATM   17  C1  UNL     1      22.315  -1.056  54.694  1.00  0.00     0.398 C 
HETATM   18  O1  UNL     1      22.021  -2.135  55.265  1.00  0.00    -0.276 OA
ENDBRANCH  16  17
ENDBRANCH  11  16
ENDBRANCH   1   9
BRANCH   2  19
HETATM   19  C7  UNL     1      26.550   0.786  51.917  1.00  0.00     0.049 C 
BRANCH  19  20
HETATM   20  C8  UNL     1      26.887   0.981  53.374  1.00  0.00     0.114 C 
BRANCH  20  21
HETATM   21  C9  UNL     1      28.188   1.671  53.559  1.00  0.00     0.139 C 
HETATM   22  O3  UNL     1      28.056   2.709  54.248  1.00  0.00    -0.650 OA
BRANCH  21  23
HETATM   23  O4  UNL     1      29.456   1.362  53.114  1.00  0.00    -0.776 OA
HETATM   24  H8  UNL     1      29.935   0.559  53.503  1.00  0.00     0.167 HD
ENDBRANCH  21  23
ENDBRANCH  20  21
ENDBRANCH  19  20
ENDBRANCH   2  19
TORSDOF 7
ENDMDL
MODEL 5
REMARK VINA RESULT:      -7.0      3.512      6.311
REMARK  7 active torsions:
REMARK  status: ('A' for Active; 'I' for Inactive)
REMARK    1  A    between atoms: C1_2  and  O2_3 
REMARK    2  A    between atoms: O2_3  and  C2_4 
REMARK    3  A    between atoms: C4_6  and  C5_7 
REMARK    4  A    between atoms: C6_8  and  C7_9 
REMARK    5  A    between atoms: C7_9  and  C8_10 
REMARK    6  A    between atoms: C8_10  and  C9_11 
REMARK    7  A    between atoms: C9_11  and  O4_13 
ROOT
HETATM    1  C5  UNL     1      25.163   1.930  52.424  1.00  0.00     0.053 A 
HETATM    2  C6  UNL     1      24.575   0.852  52.927  1.00  0.00    -0.029 A 
HETATM    3  C10 UNL     1      25.859   0.365  53.412  1.00  0.00     0.116 A 
HETATM    4  C11 UNL     1      26.506  -0.777  52.655  1.00  0.00     0.030 C 
HETATM    5  C12 UNL     1      27.893  -0.891  53.250  1.00  0.00     0.004 C 
HETATM    6  C13 UNL     1      28.554   0.414  53.483  1.00  0.00     0.020 C 
HETATM    7  C14 UNL     1      27.885   1.638  53.005  1.00  0.00     0.124 C 
HETATM    8  N1  UNL     1      26.470   1.565  52.830  1.00  0.00    -0.371 N 
ENDROOT
BRANCH   1   9
HETATM    9  C4  UNL     1      24.675   3.100  51.699  1.00  0.00     0.041 C 
HETATM   10  C3  UNL     1      25.223   3.552  50.585  1.00  0.00     0.028 C 
HETATM   11  C2  UNL     1      24.761   4.747  49.802  1.00  0.00     0.169 C 
HETATM   12  C15 UNL     1      24.386   5.812  50.796  1.00  0.00     0.136 C 
HETATM   13  N2  UNL     1      23.061   5.473  51.313  1.00  0.00    -0.261 NA
HETATM   14  S1  UNL     1      23.263   4.019  52.285  1.00  0.00    -0.043 SA
HETATM   15  H18 UNL     1      22.493   5.218  50.469  1.00  0.00     0.135 HD
BRANCH  11  16
HETATM   16  O2  UNL     1      25.778   5.182  48.918  1.00  0.00    -0.318 OA
BRANCH  16  17
HETATM   17  C1  UNL     1      27.018   4.532  49.008  1.00  0.00     0.398 C 
HETATM   18  O1  UNL     1      28.183   4.762  48.600  1.00  0.00    -0.276 OA
ENDBRANCH  16  17
ENDBRANCH  11  16
ENDBRANCH   1   9
BRANCH   2  19
HETATM   19  C7  UNL     1      23.200   0.303  53.009  1.00  0.00     0.049 C 
BRANCH  19  20
HETATM   20  C8  UNL     1      23.101  -0.633  54.188  1.00  0.00     0.114 C 
BRANCH  20  21
HETATM   21  C9  UNL     1      21.714  -0.733  54.706  1.00  0.00     0.139 C 
HETATM   22  O3  UNL     1      21.404  -1.924  54.943  1.00  0.00    -0.650 OA
BRANCH  21  23
HETATM   23  O4  UNL     1      20.761   0.231  54.956  1.00  0.00    -0.776 OA
HETATM   24  H8  UNL     1      19.781  -0.026  54.943  1.00  0.00     0.167 HD
ENDBRANCH  21  23
ENDBRANCH  20  21
ENDBRANCH  19  20
ENDBRANCH   2  19
TORSDOF 7
ENDMDL
MODEL 6
REMARK VINA RESULT:      -6.9      2.686      5.607
REMARK  7 active torsions:
REMARK  status: ('A' for Active; 'I' for Inactive)
REMARK    1  A    between atoms: C1_2  and  O2_3 
REMARK    2  A    between atoms: O2_3  and  C2_4 
REMARK    3  A    between atoms: C4_6  and  C5_7 
REMARK    4  A    between atoms: C6_8  and  C7_9 
REMARK    5  A    between atoms: C7_9  and  C8_10 
REMARK    6  A    between atoms: C8_10  and  C9_11 
REMARK    7  A    between atoms: C9_11  and  O4_13 
ROOT
HETATM    1  C5  UNL     1      24.910   0.039  53.206  1.00  0.00     0.053 A 
HETATM    2  C6  UNL     1      25.602   1.167  53.105  1.00  0.00    -0.029 A 
HETATM    3  C10 UNL     1      26.822   0.409  52.862  1.00  0.00     0.116 A 
HETATM    4  C11 UNL     1      27.824   0.313  53.994  1.00  0.00     0.030 C 
HETATM    5  C12 UNL     1      28.840  -0.702  53.517  1.00  0.00     0.004 C 
HETATM    6  C13 UNL     1      28.242  -1.882  52.852  1.00  0.00     0.020 C 
HETATM    7  C14 UNL     1      26.774  -2.017  52.844  1.00  0.00     0.124 C 
HETATM    8  N1  UNL     1      26.021  -0.813  52.993  1.00  0.00    -0.371 N 
ENDROOT
BRANCH   1   9
HETATM    9  C4  UNL     1      23.503  -0.263  53.452  1.00  0.00     0.041 C 
HETATM   10  C3  UNL     1      22.514   0.190  52.702  1.00  0.00     0.028 C 
HETATM   11  C2  UNL     1      21.054  -0.091  52.912  1.00  0.00     0.169 C 
HETATM   12  C15 UNL     1      20.797  -0.030  54.393  1.00  0.00     0.136 C 
HETATM   13  N2  UNL     1      21.258  -1.294  54.963  1.00  0.00    -0.261 NA
HETATM   14  S1  UNL     1      23.013  -1.294  54.823  1.00  0.00    -0.043 SA
HETATM   15  H18 UNL     1      20.885  -2.038  54.324  1.00  0.00     0.135 HD
BRANCH  11  16
HETATM   16  O2  UNL     1      20.264   0.842  52.198  1.00  0.00    -0.318 OA
BRANCH  16  17
HETATM   17  C1  UNL     1      20.163   2.133  52.738  1.00  0.00     0.398 C 
HETATM   18  O1  UNL     1      19.778   3.253  52.321  1.00  0.00    -0.276 OA
ENDBRANCH  16  17
ENDBRANCH  11  16
ENDBRANCH   1   9
BRANCH   2  19
HETATM   19  C7  UNL     1      25.327   2.621  53.187  1.00  0.00     0.049 C 
BRANCH  19  20
HETATM   20  C8  UNL     1      24.738   3.096  51.882  1.00  0.00     0.114 C 
BRANCH  20  21
HETATM   21  C9  UNL     1      25.772   3.262  50.830  1.00  0.00     0.139 C 
HETATM   22  O3  UNL     1      25.262   3.238  49.686  1.00  0.00    -0.650 OA
BRANCH  21  23
HETATM   23  O4  UNL     1      27.138   3.430  50.912  1.00  0.00    -0.776 OA
HETATM   24  H8  UNL     1      27.707   2.682  51.292  1.00  0.00     0.167 HD
ENDBRANCH  21  23
ENDBRANCH  20  21
ENDBRANCH  19  20
ENDBRANCH   2  19
TORSDOF 7
ENDMDL
MODEL 7
REMARK VINA RESULT:      -6.6      3.118      6.383
REMARK  7 active torsions:
REMARK  status: ('A' for Active; 'I' for Inactive)
REMARK    1  A    between atoms: C1_2  and  O2_3 
REMARK    2  A    between atoms: O2_3  and  C2_4 
REMARK    3  A    between atoms: C4_6  and  C5_7 
REMARK    4  A    between atoms: C6_8  and  C7_9 
REMARK    5  A    between atoms: C7_9  and  C8_10 
REMARK    6  A    between atoms: C8_10  and  C9_11 
REMARK    7  A    between atoms: C9_11  and  O4_13 
ROOT
HETATM    1  C5  UNL     1      24.718   1.722  51.731  1.00  0.00     0.053 A 
HETATM    2  C6  UNL     1      26.030   1.526  51.759  1.00  0.00    -0.029 A 
HETATM    3  C10 UNL     1      26.250   2.840  51.172  1.00  0.00     0.116 A 
HETATM    4  C11 UNL     1      26.648   2.897  49.712  1.00  0.00     0.030 C 
HETATM    5  C12 UNL     1      26.576   4.366  49.354  1.00  0.00     0.004 C 
HETATM    6  C13 UNL     1      25.389   5.059  49.905  1.00  0.00     0.020 C 
HETATM    7  C14 UNL     1      24.365   4.258  50.599  1.00  0.00     0.124 C 
HETATM    8  N1  UNL     1      24.793   3.011  51.148  1.00  0.00    -0.371 N 
ENDROOT
BRANCH   1   9
HETATM    9  C4  UNL     1      23.568   0.920  52.141  1.00  0.00     0.041 C 
HETATM   10  C3  UNL     1      22.380   0.997  51.569  1.00  0.00     0.028 C 
HETATM   11  C2  UNL     1      21.169   0.197  51.952  1.00  0.00     0.169 C 
HETATM   12  C15 UNL     1      21.140   0.124  53.454  1.00  0.00     0.136 C 
HETATM   13  N2  UNL     1      22.104  -0.897  53.855  1.00  0.00    -0.261 NA
HETATM   14  S1  UNL     1      23.699  -0.252  53.479  1.00  0.00    -0.043 SA
HETATM   15  H18 UNL     1      21.929  -1.710  53.215  1.00  0.00     0.135 HD
BRANCH  11  16
HETATM   16  O2  UNL     1      19.997   0.794  51.427  1.00  0.00    -0.318 OA
BRANCH  16  17
HETATM   17  C1  UNL     1      18.770   0.314  51.909  1.00  0.00     0.398 C 
HETATM   18  O1  UNL     1      18.127  -0.760  51.817  1.00  0.00    -0.276 OA
ENDBRANCH  16  17
ENDBRANCH  11  16
ENDBRANCH   1   9
BRANCH   2  19
HETATM   19  C7  UNL     1      26.959   0.455  52.193  1.00  0.00     0.049 C 
BRANCH  19  20
HETATM   20  C8  UNL     1      27.393   0.711  53.614  1.00  0.00     0.114 C 
BRANCH  20  21
HETATM   21  C9  UNL     1      28.704   1.403  53.682  1.00  0.00     0.139 C 
HETATM   22  O3  UNL     1      28.569   2.595  54.046  1.00  0.00    -0.650 OA
BRANCH  21  23
HETATM   23  O4  UNL     1      29.984   0.962  53.420  1.00  0.00    -0.776 OA
HETATM   24  H8  UNL     1      30.386   1.124  52.504  1.00  0.00     0.167 HD
ENDBRANCH  21  23
ENDBRANCH  20  21
ENDBRANCH  19  20
ENDBRANCH   2  19
TORSDOF 7
ENDMDL
MODEL 8
REMARK VINA RESULT:      -6.6      3.512      5.695
REMARK  7 active torsions:
REMARK  status: ('A' for Active; 'I' for Inactive)
REMARK    1  A    between atoms: C1_2  and  O2_3 
REMARK    2  A    between atoms: O2_3  and  C2_4 
REMARK    3  A    between atoms: C4_6  and  C5_7 
REMARK    4  A    between atoms: C6_8  and  C7_9 
REMARK    5  A    between atoms: C7_9  and  C8_10 
REMARK    6  A    between atoms: C8_10  and  C9_11 
REMARK    7  A    between atoms: C9_11  and  O4_13 
ROOT
HETATM    1  C5  UNL     1      25.118   2.728  50.745  1.00  0.00     0.053 A 
HETATM    2  C6  UNL     1      25.668   2.040  51.737  1.00  0.00    -0.029 A 
HETATM    3  C10 UNL     1      24.453   1.250  51.877  1.00  0.00     0.116 A 
HETATM    4  C11 UNL     1      23.555   1.552  53.059  1.00  0.00     0.030 C 
HETATM    5  C12 UNL     1      22.300   0.746  52.800  1.00  0.00     0.004 C 
HETATM    6  C13 UNL     1      21.842   0.788  51.392  1.00  0.00     0.020 C 
HETATM    7  C14 UNL     1      22.538   1.684  50.451  1.00  0.00     0.124 C 
HETATM    8  N1  UNL     1      23.879   2.043  50.785  1.00  0.00    -0.371 N 
ENDROOT
BRANCH   1   9
HETATM    9  C4  UNL     1      25.586   3.816  49.890  1.00  0.00     0.041 C 
HETATM   10  C3  UNL     1      26.825   3.916  49.444  1.00  0.00     0.028 C 
HETATM   11  C2  UNL     1      27.355   5.012  48.564  1.00  0.00     0.169 C 
HETATM   12  C15 UNL     1      26.757   6.302  49.052  1.00  0.00     0.136 C 
HETATM   13  N2  UNL     1      25.391   6.368  48.535  1.00  0.00    -0.261 NA
HETATM   14  S1  UNL     1      24.480   5.117  49.376  1.00  0.00    -0.043 SA
HETATM   15  H18 UNL     1      25.464   6.087  47.526  1.00  0.00     0.135 HD
BRANCH  11  16
HETATM   16  O2  UNL     1      28.770   5.036  48.604  1.00  0.00    -0.318 OA
BRANCH  16  17
HETATM   17  C1  UNL     1      29.396   6.236  48.236  1.00  0.00     0.398 C 
HETATM   18  O1  UNL     1      30.153   6.604  47.304  1.00  0.00    -0.276 OA
ENDBRANCH  16  17
ENDBRANCH  11  16
ENDBRANCH   1   9
BRANCH   2  19
HETATM   19  C7  UNL     1      26.966   2.018  52.455  1.00  0.00     0.049 C 
BRANCH  19  20
HETATM   20  C8  UNL     1      27.312   0.597  52.825  1.00  0.00     0.114 C 
BRANCH  20  21
HETATM   21  C9  UNL     1      27.491   0.429  54.289  1.00  0.00     0.139 C 
HETATM   22  O3  UNL     1      26.611   1.053  54.927  1.00  0.00    -0.650 OA
BRANCH  21  23
HETATM   23  O4  UNL     1      28.427  -0.271  55.019  1.00  0.00    -0.776 OA
HETATM   24  H8  UNL     1      28.269  -0.424  56.009  1.00  0.00     0.167 HD
ENDBRANCH  21  23
ENDBRANCH  20  21
ENDBRANCH  19  20
ENDBRANCH   2  19
TORSDOF 7
ENDMDL
MODEL 9
REMARK VINA RESULT:      -6.5      3.062      4.443
REMARK  7 active torsions:
REMARK  status: ('A' for Active; 'I' for Inactive)
REMARK    1  A    between atoms: C1_2  and  O2_3 
REMARK    2  A    between atoms: O2_3  and  C2_4 
REMARK    3  A    between atoms: C4_6  and  C5_7 
REMARK    4  A    between atoms: C6_8  and  C7_9 
REMARK    5  A    between atoms: C7_9  and  C8_10 
REMARK    6  A    between atoms: C8_10  and  C9_11 
REMARK    7  A    between atoms: C9_11  and  O4_13 
ROOT
HETATM    1  C5  UNL     1      23.626   1.297  51.682  1.00  0.00     0.053 A 
HETATM    2  C6  UNL     1      22.368   0.892  51.564  1.00  0.00    -0.029 A 
HETATM    3  C10 UNL     1      22.181   1.772  50.419  1.00  0.00     0.116 A 
HETATM    4  C11 UNL     1      21.379   3.039  50.634  1.00  0.00     0.030 C 
HETATM    5  C12 UNL     1      21.558   3.825  49.353  1.00  0.00     0.004 C 
HETATM    6  C13 UNL     1      22.944   3.813  48.832  1.00  0.00     0.020 C 
HETATM    7  C14 UNL     1      23.998   3.184  49.648  1.00  0.00     0.124 C 
HETATM    8  N1  UNL     1      23.573   2.201  50.592  1.00  0.00    -0.371 N 
ENDROOT
BRANCH   1   9
HETATM    9  C4  UNL     1      24.713   0.960  52.596  1.00  0.00     0.041 C 
HETATM   10  C3  UNL     1      25.553   1.850  53.096  1.00  0.00     0.028 C 
HETATM   11  C2  UNL     1      26.684   1.556  54.038  1.00  0.00     0.169 C 
HETATM   12  C15 UNL     1      27.326   0.276  53.578  1.00  0.00     0.136 C 
HETATM   13  N2  UNL     1      26.481  -0.822  54.042  1.00  0.00    -0.261 NA
HETATM   14  S1  UNL     1      24.986  -0.724  53.116  1.00  0.00    -0.043 SA
HETATM   15  H18 UNL     1      26.254  -0.594  55.040  1.00  0.00     0.135 HD
BRANCH  11  16
HETATM   16  O2  UNL     1      27.604   2.633  54.056  1.00  0.00    -0.318 OA
BRANCH  16  17
HETATM   17  C1  UNL     1      28.965   2.304  54.131  1.00  0.00     0.398 C 
HETATM   18  O1  UNL     1      29.847   2.332  55.024  1.00  0.00    -0.276 OA
ENDBRANCH  16  17
ENDBRANCH  11  16
ENDBRANCH   1   9
BRANCH   2  19
HETATM   19  C7  UNL     1      21.462  -0.055  52.258  1.00  0.00     0.049 C 
BRANCH  19  20
HETATM   20  C8  UNL     1      21.450   0.250  53.735  1.00  0.00     0.114 C 
BRANCH  20  21
HETATM   21  C9  UNL     1      21.454  -0.984  54.560  1.00  0.00     0.139 C 
HETATM   22  O3  UNL     1      20.484  -1.723  54.274  1.00  0.00    -0.650 OA
BRANCH  21  23
HETATM   23  O4  UNL     1      22.316  -1.422  55.542  1.00  0.00    -0.776 OA
HETATM   24  H8  UNL     1      22.020  -2.165  56.165  1.00  0.00     0.167 HD
ENDBRANCH  21  23
ENDBRANCH  20  21
ENDBRANCH  19  20
ENDBRANCH   2  19
TORSDOF 7
ENDMDL
