MODEL 1
REMARK VINA RESULT:      -8.0      0.000      0.000
REMARK  3 active torsions:
REMARK  status: ('A' for Active; 'I' for Inactive)
REMARK       I    between atoms: C1_2  and  N1_3 
REMARK    1  A    between atoms: C1_2  and  C8_13 
REMARK    2  A    between atoms: N1_3  and  S1_4 
REMARK    3  A    between atoms: S1_4  and  C2_6 
ROOT
HETATM    1  O1  UNL     1      25.110   3.066  49.677  1.00  0.00    -0.264 OA
HETATM    2  C1  UNL     1      26.147   3.736  49.993  1.00  0.00     0.287 C 
HETATM    3  N1  UNL     1      26.690   3.288  51.203  1.00  0.00    -0.266 N 
HETATM    4  H1  UNL     1      27.545   3.749  51.584  1.00  0.00     0.180 HD
ENDROOT
BRANCH   3   5
HETATM    5  S1  UNL     1      26.081   2.007  52.179  1.00  0.00     0.153 S 
HETATM    6  O2  UNL     1      25.090   2.429  53.226  1.00  0.00    -0.230 OA
BRANCH   5   7
HETATM    7  C2  UNL     1      27.281   0.863  52.707  1.00  0.00     0.052 A 
HETATM    8  C3  UNL     1      27.210  -0.510  52.632  1.00  0.00     0.026 A 
HETATM    9  C4  UNL     1      28.231  -1.317  53.086  1.00  0.00     0.044 A 
HETATM   10  C5  UNL     1      29.374  -0.763  53.640  1.00  0.00     0.116 A 
HETATM   11  F1  UNL     1      30.404  -1.519  54.101  1.00  0.00    -0.206 F 
HETATM   12  C6  UNL     1      29.476   0.617  53.731  1.00  0.00     0.044 A 
HETATM   13  C7  UNL     1      28.434   1.413  53.266  1.00  0.00     0.026 A 
ENDBRANCH   5   7
ENDBRANCH   3   5
BRANCH   2  14
HETATM   14  C8  UNL     1      26.657   4.820  49.160  1.00  0.00     0.143 C 
HETATM   15  C9  UNL     1      25.991   5.909  48.851  1.00  0.00     0.046 C 
HETATM   16  C10 UNL     1      26.337   7.072  48.048  1.00  0.00     0.045 C 
HETATM   17  C11 UNL     1      27.535   7.413  47.575  1.00  0.00     0.118 C 
HETATM   18  F2  UNL     1      27.476   8.557  46.871  1.00  0.00    -0.206 F 
HETATM   19  C12 UNL     1      28.775   6.669  47.772  1.00  0.00     0.067 C 
HETATM   20  C13 UNL     1      28.913   5.457  48.262  1.00  0.00     0.145 C 
HETATM   21  O3  UNL     1      27.969   4.575  48.711  1.00  0.00    -0.317 OA
ENDBRANCH   2  14
TORSDOF 3
ENDMDL
MODEL 2
REMARK VINA RESULT:      -7.8      1.423      7.731
REMARK  3 active torsions:
REMARK  status: ('A' for Active; 'I' for Inactive)
REMARK       I    between atoms: C1_2  and  N1_3 
REMARK    1  A    between atoms: C1_2  and  C8_13 
REMARK    2  A    between atoms: N1_3  and  S1_4 
REMARK    3  A    between atoms: S1_4  and  C2_6 
ROOT
HETATM    1  O1  UNL     1      25.428   2.480  52.669  1.00  0.00    -0.264 OA
HETATM    2  C1  UNL     1      26.325   1.907  51.968  1.00  0.00     0.287 C 
HETATM    3  N1  UNL     1      26.384   2.452  50.679  1.00  0.00    -0.266 N 
HETATM    4  H1  UNL     1      27.077   2.077  49.994  1.00  0.00     0.180 HD
ENDROOT
BRANCH   3   5
HETATM    5  S1  UNL     1      25.402   3.727  50.068  1.00  0.00     0.153 S 
HETATM    6  O2  UNL     1      24.117   3.281  49.430  1.00  0.00    -0.230 OA
BRANCH   5   7
HETATM    7  C2  UNL     1      26.271   4.965  49.207  1.00  0.00     0.052 A 
HETATM    8  C3  UNL     1      25.784   6.182  48.788  1.00  0.00     0.026 A 
HETATM    9  C4  UNL     1      26.574   7.086  48.110  1.00  0.00     0.044 A 
HETATM   10  C5  UNL     1      27.898   6.792  47.826  1.00  0.00     0.116 A 
HETATM   11  F1  UNL     1      28.712   7.652  47.160  1.00  0.00    -0.206 F 
HETATM   12  C6  UNL     1      28.418   5.573  48.233  1.00  0.00     0.044 A 
HETATM   13  C7  UNL     1      27.603   4.675  48.917  1.00  0.00     0.026 A 
ENDBRANCH   5   7
ENDBRANCH   3   5
BRANCH   2  14
HETATM   14  C8  UNL     1      27.154   0.828  52.493  1.00  0.00     0.143 C 
HETATM   15  C9  UNL     1      26.948  -0.452  52.279  1.00  0.00     0.046 C 
HETATM   16  C10 UNL     1      27.660  -1.643  52.717  1.00  0.00     0.045 C 
HETATM   17  C11 UNL     1      28.855  -1.714  53.302  1.00  0.00     0.118 C 
HETATM   18  F2  UNL     1      29.196  -2.987  53.566  1.00  0.00    -0.206 F 
HETATM   19  C12 UNL     1      29.714  -0.581  53.632  1.00  0.00     0.067 C 
HETATM   20  C13 UNL     1      29.401   0.696  53.605  1.00  0.00     0.145 C 
HETATM   21  O3  UNL     1      28.224   1.309  53.272  1.00  0.00    -0.317 OA
ENDBRANCH   2  14
TORSDOF 3
ENDMDL
MODEL 3
REMARK VINA RESULT:      -7.5      4.111      7.675
REMARK  3 active torsions:
REMARK  status: ('A' for Active; 'I' for Inactive)
REMARK       I    between atoms: C1_2  and  N1_3 
REMARK    1  A    between atoms: C1_2  and  C8_13 
REMARK    2  A    between atoms: N1_3  and  S1_4 
REMARK    3  A    between atoms: S1_4  and  C2_6 
ROOT
HETATM    1  O1  UNL     1      24.944   2.454  53.332  1.00  0.00    -0.264 OA
HETATM    2  C1  UNL     1      25.314   1.250  53.138  1.00  0.00     0.287 C 
HETATM    3  N1  UNL     1      24.272   0.479  52.610  1.00  0.00    -0.266 N 
HETATM    4  H1  UNL     1      24.435  -0.531  52.401  1.00  0.00     0.180 HD
ENDROOT
BRANCH   3   5
HETATM    5  S1  UNL     1      22.681   1.028  52.251  1.00  0.00     0.153 S 
HETATM    6  O2  UNL     1      21.579   0.220  52.876  1.00  0.00    -0.230 OA
BRANCH   5   7
HETATM    7  C2  UNL     1      22.425   1.477  50.589  1.00  0.00     0.052 A 
HETATM    8  C3  UNL     1      21.490   0.956  49.724  1.00  0.00     0.026 A 
HETATM    9  C4  UNL     1      21.381   1.394  48.421  1.00  0.00     0.044 A 
HETATM   10  C5  UNL     1      22.222   2.384  47.938  1.00  0.00     0.116 A 
HETATM   11  F1  UNL     1      22.151   2.846  46.662  1.00  0.00    -0.206 F 
HETATM   12  C6  UNL     1      23.175   2.929  48.785  1.00  0.00     0.044 A 
HETATM   13  C7  UNL     1      23.267   2.472  50.096  1.00  0.00     0.026 A 
ENDBRANCH   5   7
ENDBRANCH   3   5
BRANCH   2  14
HETATM   14  C8  UNL     1      26.665   0.792  53.444  1.00  0.00     0.143 C 
HETATM   15  C9  UNL     1      27.116  -0.422  53.226  1.00  0.00     0.046 C 
HETATM   16  C10 UNL     1      28.411  -1.042  53.466  1.00  0.00     0.045 C 
HETATM   17  C11 UNL     1      29.555  -0.446  53.797  1.00  0.00     0.118 C 
HETATM   18  F2  UNL     1      30.550  -1.339  53.938  1.00  0.00    -0.206 F 
HETATM   19  C12 UNL     1      29.747   0.988  53.992  1.00  0.00     0.067 C 
HETATM   20  C13 UNL     1      28.819   1.916  54.077  1.00  0.00     0.145 C 
HETATM   21  O3  UNL     1      27.457   1.810  54.010  1.00  0.00    -0.317 OA
ENDBRANCH   2  14
TORSDOF 3
ENDMDL
MODEL 4
REMARK VINA RESULT:      -7.5      3.958      4.697
REMARK  3 active torsions:
REMARK  status: ('A' for Active; 'I' for Inactive)
REMARK       I    between atoms: C1_2  and  N1_3 
REMARK    1  A    between atoms: C1_2  and  C8_13 
REMARK    2  A    between atoms: N1_3  and  S1_4 
REMARK    3  A    between atoms: S1_4  and  C2_6 
ROOT
HETATM    1  O1  UNL     1      23.774   4.132  52.630  1.00  0.00    -0.264 OA
HETATM    2  C1  UNL     1      23.921   3.869  51.391  1.00  0.00     0.287 C 
HETATM    3  N1  UNL     1      22.926   2.994  50.938  1.00  0.00    -0.266 N 
HETATM    4  H1  UNL     1      22.924   2.693  49.938  1.00  0.00     0.180 HD
ENDROOT
BRANCH   3   5
HETATM    5  S1  UNL     1      21.649   2.329  51.881  1.00  0.00     0.153 S 
HETATM    6  O2  UNL     1      20.718   3.342  52.484  1.00  0.00    -0.230 OA
BRANCH   5   7
HETATM    7  C2  UNL     1      22.127   1.033  52.941  1.00  0.00     0.052 A 
HETATM    8  C3  UNL     1      23.366   0.440  53.019  1.00  0.00     0.026 A 
HETATM    9  C4  UNL     1      23.627  -0.585  53.904  1.00  0.00     0.044 A 
HETATM   10  C5  UNL     1      22.636  -1.054  54.752  1.00  0.00     0.116 A 
HETATM   11  F1  UNL     1      22.847  -2.061  55.639  1.00  0.00    -0.206 F 
HETATM   12  C6  UNL     1      21.376  -0.476  54.697  1.00  0.00     0.044 A 
HETATM   13  C7  UNL     1      21.135   0.557  53.796  1.00  0.00     0.026 A 
ENDBRANCH   5   7
ENDBRANCH   3   5
BRANCH   2  14
HETATM   14  C8  UNL     1      25.005   4.437  50.598  1.00  0.00     0.143 C 
HETATM   15  C9  UNL     1      25.921   3.739  49.965  1.00  0.00     0.046 C 
HETATM   16  C10 UNL     1      27.055   4.132  49.143  1.00  0.00     0.045 C 
HETATM   17  C11 UNL     1      27.332   5.340  48.654  1.00  0.00     0.118 C 
HETATM   18  F2  UNL     1      28.468   5.329  47.935  1.00  0.00    -0.206 F 
HETATM   19  C12 UNL     1      26.532   6.546  48.850  1.00  0.00     0.067 C 
HETATM   20  C13 UNL     1      25.531   6.716  49.685  1.00  0.00     0.145 C 
HETATM   21  O3  UNL     1      24.970   5.845  50.578  1.00  0.00    -0.317 OA
ENDBRANCH   2  14
TORSDOF 3
ENDMDL
MODEL 5
REMARK VINA RESULT:      -7.3      1.969      2.514
REMARK  3 active torsions:
REMARK  status: ('A' for Active; 'I' for Inactive)
REMARK       I    between atoms: C1_2  and  N1_3 
REMARK    1  A    between atoms: C1_2  and  C8_13 
REMARK    2  A    between atoms: N1_3  and  S1_4 
REMARK    3  A    between atoms: S1_4  and  C2_6 
ROOT
HETATM    1  O1  UNL     1      24.814   3.530  49.038  1.00  0.00    -0.264 OA
HETATM    2  C1  UNL     1      25.573   4.305  49.708  1.00  0.00     0.287 C 
HETATM    3  N1  UNL     1      25.364   4.153  51.084  1.00  0.00    -0.266 N 
HETATM    4  H1  UNL     1      25.920   4.728  51.754  1.00  0.00     0.180 HD
ENDROOT
BRANCH   3   5
HETATM    5  S1  UNL     1      24.246   3.078  51.831  1.00  0.00     0.153 S 
HETATM    6  O2  UNL     1      23.360   3.710  52.866  1.00  0.00    -0.230 OA
BRANCH   5   7
HETATM    7  C2  UNL     1      24.908   1.527  52.264  1.00  0.00     0.052 A 
HETATM    8  C3  UNL     1      24.331   0.575  53.072  1.00  0.00     0.026 A 
HETATM    9  C4  UNL     1      24.955  -0.624  53.344  1.00  0.00     0.044 A 
HETATM   10  C5  UNL     1      26.199  -0.909  52.805  1.00  0.00     0.116 A 
HETATM   11  F1  UNL     1      26.852  -2.075  53.045  1.00  0.00    -0.206 F 
HETATM   12  C6  UNL     1      26.808   0.031  51.986  1.00  0.00     0.044 A 
HETATM   13  C7  UNL     1      26.160   1.234  51.725  1.00  0.00     0.026 A 
ENDBRANCH   5   7
ENDBRANCH   3   5
BRANCH   2  14
HETATM   14  C8  UNL     1      26.518   5.213  49.067  1.00  0.00     0.143 C 
HETATM   15  C9  UNL     1      27.750   4.904  48.732  1.00  0.00     0.046 C 
HETATM   16  C10 UNL     1      28.812   5.670  48.098  1.00  0.00     0.045 C 
HETATM   17  C11 UNL     1      28.721   6.859  47.502  1.00  0.00     0.118 C 
HETATM   18  F2  UNL     1      29.912   7.261  47.028  1.00  0.00    -0.206 F 
HETATM   19  C12 UNL     1      27.504   7.654  47.364  1.00  0.00     0.067 C 
HETATM   20  C13 UNL     1      26.347   7.457  47.955  1.00  0.00     0.145 C 
HETATM   21  O3  UNL     1      25.961   6.486  48.838  1.00  0.00    -0.317 OA
ENDBRANCH   2  14
TORSDOF 3
ENDMDL
MODEL 6
REMARK VINA RESULT:      -7.2      5.229      7.798
REMARK  3 active torsions:
REMARK  status: ('A' for Active; 'I' for Inactive)
REMARK       I    between atoms: C1_2  and  N1_3 
REMARK    1  A    between atoms: C1_2  and  C8_13 
REMARK    2  A    between atoms: N1_3  and  S1_4 
REMARK    3  A    between atoms: S1_4  and  C2_6 
ROOT
HETATM    1  O1  UNL     1      24.755   1.760  51.027  1.00  0.00    -0.264 OA
HETATM    2  C1  UNL     1      24.899   1.309  52.211  1.00  0.00     0.287 C 
HETATM    3  N1  UNL     1      23.672   1.245  52.881  1.00  0.00    -0.266 N 
HETATM    4  H1  UNL     1      23.640   0.893  53.863  1.00  0.00     0.180 HD
ENDROOT
BRANCH   3   5
HETATM    5  S1  UNL     1      22.139   1.699  52.242  1.00  0.00     0.153 S 
HETATM    6  O2  UNL     1      21.805   3.157  52.383  1.00  0.00    -0.230 OA
BRANCH   5   7
HETATM    7  C2  UNL     1      20.842   0.599  52.612  1.00  0.00     0.052 A 
HETATM    8  C3  UNL     1      19.586   0.579  52.051  1.00  0.00     0.026 A 
HETATM    9  C4  UNL     1      18.637  -0.348  52.428  1.00  0.00     0.044 A 
HETATM   10  C5  UNL     1      18.924  -1.298  53.395  1.00  0.00     0.116 A 
HETATM   11  F1  UNL     1      18.020  -2.229  53.797  1.00  0.00    -0.206 F 
HETATM   12  C6  UNL     1      20.181  -1.304  53.979  1.00  0.00     0.044 A 
HETATM   13  C7  UNL     1      21.124  -0.359  53.583  1.00  0.00     0.026 A 
ENDBRANCH   5   7
ENDBRANCH   3   5
BRANCH   2  14
HETATM   14  C8  UNL     1      26.201   0.926  52.745  1.00  0.00     0.143 C 
HETATM   15  C9  UNL     1      26.710  -0.284  52.694  1.00  0.00     0.046 C 
HETATM   16  C10 UNL     1      27.970  -0.836  53.167  1.00  0.00     0.045 C 
HETATM   17  C11 UNL     1      29.039  -0.174  53.609  1.00  0.00     0.118 C 
HETATM   18  F2  UNL     1      30.024  -1.017  53.965  1.00  0.00    -0.206 F 
HETATM   19  C12 UNL     1      29.164   1.276  53.712  1.00  0.00     0.067 C 
HETATM   20  C13 UNL     1      28.211   2.173  53.588  1.00  0.00     0.145 C 
HETATM   21  O3  UNL     1      26.876   2.013  53.334  1.00  0.00    -0.317 OA
ENDBRANCH   2  14
TORSDOF 3
ENDMDL
MODEL 7
REMARK VINA RESULT:      -7.1      4.148      8.327
REMARK  3 active torsions:
REMARK  status: ('A' for Active; 'I' for Inactive)
REMARK       I    between atoms: C1_2  and  N1_3 
REMARK    1  A    between atoms: C1_2  and  C8_13 
REMARK    2  A    between atoms: N1_3  and  S1_4 
REMARK    3  A    between atoms: S1_4  and  C2_6 
ROOT
HETATM    1  O1  UNL     1      22.373   1.561  50.014  1.00  0.00    -0.264 OA
HETATM    2  C1  UNL     1      22.565   1.810  51.249  1.00  0.00     0.287 C 
HETATM    3  N1  UNL     1      22.885   3.158  51.449  1.00  0.00    -0.266 N 
HETATM    4  H1  UNL     1      23.069   3.504  52.417  1.00  0.00     0.180 HD
ENDROOT
BRANCH   3   5
HETATM    5  S1  UNL     1      23.015   4.365  50.229  1.00  0.00     0.153 S 
HETATM    6  O2  UNL     1      21.942   4.317  49.178  1.00  0.00    -0.230 OA
BRANCH   5   7
HETATM    7  C2  UNL     1      24.630   4.625  49.633  1.00  0.00     0.052 A 
HETATM    8  C3  UNL     1      25.129   5.772  49.060  1.00  0.00     0.026 A 
HETATM    9  C4  UNL     1      26.434   5.859  48.624  1.00  0.00     0.044 A 
HETATM   10  C5  UNL     1      27.293   4.779  48.751  1.00  0.00     0.116 A 
HETATM   11  F1  UNL     1      28.586   4.819  48.335  1.00  0.00    -0.206 F 
HETATM   12  C6  UNL     1      26.820   3.608  49.324  1.00  0.00     0.044 A 
HETATM   13  C7  UNL     1      25.500   3.543  49.758  1.00  0.00     0.026 A 
ENDBRANCH   5   7
ENDBRANCH   3   5
BRANCH   2  14
HETATM   14  C8  UNL     1      22.452   0.781  52.277  1.00  0.00     0.143 C 
HETATM   15  C9  UNL     1      23.436   0.377  53.049  1.00  0.00     0.046 C 
HETATM   16  C10 UNL     1      23.502  -0.619  54.107  1.00  0.00     0.045 C 
HETATM   17  C11 UNL     1      22.490  -1.247  54.705  1.00  0.00     0.118 C 
HETATM   18  F2  UNL     1      22.931  -2.105  55.641  1.00  0.00    -0.206 F 
HETATM   19  C12 UNL     1      21.073  -1.058  54.410  1.00  0.00     0.067 C 
HETATM   20  C13 UNL     1      20.546  -0.409  53.395  1.00  0.00     0.145 C 
HETATM   21  O3  UNL     1      21.150   0.253  52.362  1.00  0.00    -0.317 OA
ENDBRANCH   2  14
TORSDOF 3
ENDMDL
MODEL 8
REMARK VINA RESULT:      -7.0      3.588      7.790
REMARK  3 active torsions:
REMARK  status: ('A' for Active; 'I' for Inactive)
REMARK       I    between atoms: C1_2  and  N1_3 
REMARK    1  A    between atoms: C1_2  and  C8_13 
REMARK    2  A    between atoms: N1_3  and  S1_4 
REMARK    3  A    between atoms: S1_4  and  C2_6 
ROOT
HETATM    1  O1  UNL     1      23.306   3.192  50.242  1.00  0.00    -0.264 OA
HETATM    2  C1  UNL     1      23.563   3.239  51.489  1.00  0.00     0.287 C 
HETATM    3  N1  UNL     1      24.027   4.505  51.863  1.00  0.00    -0.266 N 
HETATM    4  H1  UNL     1      24.277   4.688  52.861  1.00  0.00     0.180 HD
ENDROOT
BRANCH   3   5
HETATM    5  S1  UNL     1      24.242   5.859  50.821  1.00  0.00     0.153 S 
HETATM    6  O2  UNL     1      22.998   6.309  50.109  1.00  0.00    -0.230 OA
BRANCH   5   7
HETATM    7  C2  UNL     1      25.681   5.802  49.843  1.00  0.00     0.052 A 
HETATM    8  C3  UNL     1      26.383   4.680  49.466  1.00  0.00     0.026 A 
HETATM    9  C4  UNL     1      27.516   4.761  48.684  1.00  0.00     0.044 A 
HETATM   10  C5  UNL     1      27.987   5.990  48.250  1.00  0.00     0.116 A 
HETATM   11  F1  UNL     1      29.099   6.118  47.480  1.00  0.00    -0.206 F 
HETATM   12  C6  UNL     1      27.302   7.139  48.615  1.00  0.00     0.044 A 
HETATM   13  C7  UNL     1      26.160   7.034  49.404  1.00  0.00     0.026 A 
ENDBRANCH   5   7
ENDBRANCH   3   5
BRANCH   2  14
HETATM   14  C8  UNL     1      23.378   2.088  52.366  1.00  0.00     0.143 C 
HETATM   15  C9  UNL     1      22.219   1.546  52.664  1.00  0.00     0.046 C 
HETATM   16  C10 UNL     1      21.854   0.416  53.505  1.00  0.00     0.045 C 
HETATM   17  C11 UNL     1      22.661  -0.499  54.041  1.00  0.00     0.118 C 
HETATM   18  F2  UNL     1      21.969  -1.398  54.763  1.00  0.00    -0.206 F 
HETATM   19  C12 UNL     1      24.111  -0.554  53.889  1.00  0.00     0.067 C 
HETATM   20  C13 UNL     1      24.900   0.370  53.384  1.00  0.00     0.145 C 
HETATM   21  O3  UNL     1      24.599   1.602  52.873  1.00  0.00    -0.317 OA
ENDBRANCH   2  14
TORSDOF 3
ENDMDL
MODEL 9
REMARK VINA RESULT:      -7.0      1.466      7.935
REMARK  3 active torsions:
REMARK  status: ('A' for Active; 'I' for Inactive)
REMARK       I    between atoms: C1_2  and  N1_3 
REMARK    1  A    between atoms: C1_2  and  C8_13 
REMARK    2  A    between atoms: N1_3  and  S1_4 
REMARK    3  A    between atoms: S1_4  and  C2_6 
ROOT
HETATM    1  O1  UNL     1      25.211   1.983  52.659  1.00  0.00    -0.264 OA
HETATM    2  C1  UNL     1      26.283   1.762  52.006  1.00  0.00     0.287 C 
HETATM    3  N1  UNL     1      26.339   2.544  50.846  1.00  0.00    -0.266 N 
HETATM    4  H1  UNL     1      27.166   2.465  50.213  1.00  0.00     0.180 HD
ENDROOT
BRANCH   3   5
HETATM    5  S1  UNL     1      25.149   3.671  50.320  1.00  0.00     0.153 S 
HETATM    6  O2  UNL     1      23.882   3.053  49.800  1.00  0.00    -0.230 OA
BRANCH   5   7
HETATM    7  C2  UNL     1      25.771   4.999  49.381  1.00  0.00     0.052 A 
HETATM    8  C3  UNL     1      27.059   5.160  48.924  1.00  0.00     0.026 A 
HETATM    9  C4  UNL     1      27.434   6.261  48.184  1.00  0.00     0.044 A 
HETATM   10  C5  UNL     1      26.515   7.250  47.875  1.00  0.00     0.116 A 
HETATM   11  F1  UNL     1      26.840   8.352  47.149  1.00  0.00    -0.206 F 
HETATM   12  C6  UNL     1      25.208   7.117  48.321  1.00  0.00     0.044 A 
HETATM   13  C7  UNL     1      24.851   5.997  49.066  1.00  0.00     0.026 A 
ENDBRANCH   5   7
ENDBRANCH   3   5
BRANCH   2  14
HETATM   14  C8  UNL     1      27.287   0.805  52.458  1.00  0.00     0.143 C 
HETATM   15  C9  UNL     1      28.382   1.115  53.114  1.00  0.00     0.046 C 
HETATM   16  C10 UNL     1      29.474   0.306  53.633  1.00  0.00     0.045 C 
HETATM   17  C11 UNL     1      29.528  -1.021  53.744  1.00  0.00     0.118 C 
HETATM   18  F2  UNL     1      30.699  -1.420  54.269  1.00  0.00    -0.206 F 
HETATM   19  C12 UNL     1      28.476  -1.955  53.355  1.00  0.00     0.067 C 
HETATM   20  C13 UNL     1      27.392  -1.695  52.657  1.00  0.00     0.145 C 
HETATM   21  O3  UNL     1      26.953  -0.519  52.114  1.00  0.00    -0.317 OA
ENDBRANCH   2  14
TORSDOF 3
ENDMDL
