MODEL 1
REMARK VINA RESULT:      -8.2      0.000      0.000
REMARK  4 active torsions:
REMARK  status: ('A' for Active; 'I' for Inactive)
REMARK    1  A    between atoms: C2_2  and  N1_3 
REMARK    2  A    between atoms: N1_3  and  C3_4 
REMARK    3  A    between atoms: C6_7  and  N2_8 
REMARK    4  A    between atoms: N2_8  and  C7_9 
ROOT
HETATM    1  C3  UNL     1      23.445   2.897  50.369  1.00  0.00     0.021 A 
HETATM    2  C4  UNL     1      23.674   2.148  51.485  1.00  0.00     0.042 A 
HETATM    3  C5  UNL     1      22.716   1.251  51.890  1.00  0.00     0.022 A 
HETATM    4  C6  UNL     1      23.047   0.547  53.024  1.00  0.00     0.067 A 
HETATM    5  C13 UNL     1      22.115  -0.366  53.466  1.00  0.00     0.089 A 
HETATM    6  C14 UNL     1      22.395  -1.141  54.654  1.00  0.00     0.103 C 
HETATM    7  N3  UNL     1      22.625  -1.784  55.601  1.00  0.00    -0.191 NA
HETATM    8  C15 UNL     1      20.949  -0.490  52.739  1.00  0.00     0.142 A 
HETATM    9  N4  UNL     1      20.709   0.239  51.642  1.00  0.00    -0.259 NA
HETATM   10  C16 UNL     1      21.565   1.145  51.152  1.00  0.00     0.066 A 
HETATM   11  C17 UNL     1      21.264   1.864  50.018  1.00  0.00     0.025 A 
HETATM   12  C18 UNL     1      22.255   2.776  49.621  1.00  0.00     0.058 A 
HETATM   13  O1  UNL     1      21.841   3.443  48.466  1.00  0.00     0.000 OA
HETATM   14  C19 UNL     1      22.205   2.949  47.216  1.00  0.00     0.000 A 
HETATM   15  O2  UNL     1      22.647   2.248  48.187  1.00  0.00     0.000 OA
ENDROOT
BRANCH   4  16
HETATM   16  N2  UNL     1      24.255   0.726  53.722  1.00  0.00    -0.354 N 
HETATM   17  H8  UNL     1      23.915   1.327  54.512  1.00  0.00     0.166 HD
BRANCH  16  18
HETATM   18  C7  UNL     1      25.583   0.307  53.554  1.00  0.00     0.033 A 
HETATM   19  C8  UNL     1      25.777  -0.928  52.968  1.00  0.00     0.029 A 
HETATM   20  C9  UNL     1      27.069  -1.363  52.798  1.00  0.00     0.004 A 
HETATM   21  C10 UNL     1      28.149  -0.579  53.205  1.00  0.00     0.019 A 
HETATM   22  C11 UNL     1      27.877   0.639  53.779  1.00  0.00     0.013 A 
HETATM   23 BR1  UNL     1      29.415   1.647  54.307  1.00  0.00    -0.051 Br
HETATM   24  C12 UNL     1      26.597   1.124  53.974  1.00  0.00     0.048 A 
ENDBRANCH  16  18
ENDBRANCH   4  16
BRANCH   1  25
HETATM   25  N1  UNL     1      24.162   3.889  49.658  1.00  0.00    -0.393 N 
HETATM   26  H6  UNL     1      23.749   4.701  50.229  1.00  0.00     0.159 HD
BRANCH  25  27
HETATM   27  C2  UNL     1      24.851   4.893  48.981  1.00  0.00     0.115 C 
HETATM   28  C1  UNL     1      26.359   4.940  49.147  1.00  0.00     0.026 C 
ENDBRANCH  25  27
ENDBRANCH   1  25
TORSDOF 4
ENDMDL
MODEL 2
REMARK VINA RESULT:      -8.1      3.458      6.777
REMARK  4 active torsions:
REMARK  status: ('A' for Active; 'I' for Inactive)
REMARK    1  A    between atoms: C2_2  and  N1_3 
REMARK    2  A    between atoms: N1_3  and  C3_4 
REMARK    3  A    between atoms: C6_7  and  N2_8 
REMARK    4  A    between atoms: N2_8  and  C7_9 
ROOT
HETATM    1  C3  UNL     1      27.026   1.214  52.471  1.00  0.00     0.021 A 
HETATM    2  C4  UNL     1      26.575   2.010  51.459  1.00  0.00     0.042 A 
HETATM    3  C5  UNL     1      25.230   2.031  51.181  1.00  0.00     0.022 A 
HETATM    4  C6  UNL     1      24.882   2.866  50.145  1.00  0.00     0.067 A 
HETATM    5  C13 UNL     1      23.543   2.920  49.831  1.00  0.00     0.089 A 
HETATM    6  C14 UNL     1      23.104   3.776  48.752  1.00  0.00     0.103 C 
HETATM    7  N3  UNL     1      22.743   4.481  47.894  1.00  0.00    -0.191 NA
HETATM    8  C15 UNL     1      22.681   2.140  50.576  1.00  0.00     0.142 A 
HETATM    9  N4  UNL     1      23.108   1.353  51.571  1.00  0.00    -0.259 NA
HETATM   10  C16 UNL     1      24.394   1.248  51.934  1.00  0.00     0.066 A 
HETATM   11  C17 UNL     1      24.773   0.422  52.967  1.00  0.00     0.025 A 
HETATM   12  C18 UNL     1      26.151   0.415  53.236  1.00  0.00     0.058 A 
HETATM   13  O1  UNL     1      26.415  -0.454  54.298  1.00  0.00     0.000 OA
HETATM   14  C19 UNL     1      26.459   0.041  55.599  1.00  0.00     0.000 A 
HETATM   15  O2  UNL     1      26.209   0.936  54.724  1.00  0.00     0.000 OA
ENDROOT
BRANCH   4  16
HETATM   16  N2  UNL     1      25.815   3.632  49.422  1.00  0.00    -0.354 N 
HETATM   17  H8  UNL     1      26.248   2.877  48.836  1.00  0.00     0.166 HD
BRANCH  16  18
HETATM   18  C7  UNL     1      26.181   4.986  49.374  1.00  0.00     0.033 A 
HETATM   19  C8  UNL     1      25.438   5.859  50.142  1.00  0.00     0.029 A 
HETATM   20  C9  UNL     1      25.774   7.191  50.108  1.00  0.00     0.004 A 
HETATM   21  C10 UNL     1      26.834   7.643  49.321  1.00  0.00     0.019 A 
HETATM   22  C11 UNL     1      27.528   6.714  48.584  1.00  0.00     0.013 A 
HETATM   23 BR1  UNL     1      28.962   7.420  47.535  1.00  0.00    -0.051 Br
HETATM   24  C12 UNL     1      27.231   5.363  48.582  1.00  0.00     0.048 A 
ENDBRANCH  16  18
ENDBRANCH   4  16
BRANCH   1  25
HETATM   25  N1  UNL     1      28.290   0.931  53.042  1.00  0.00    -0.393 N 
HETATM   26  H6  UNL     1      28.570   0.244  52.265  1.00  0.00     0.159 HD
BRANCH  25  27
HETATM   27  C2  UNL     1      29.540   0.629  53.575  1.00  0.00     0.115 C 
HETATM   28  C1  UNL     1      29.928  -0.837  53.659  1.00  0.00     0.026 C 
ENDBRANCH  25  27
ENDBRANCH   1  25
TORSDOF 4
ENDMDL
MODEL 3
REMARK VINA RESULT:      -8.0      3.153      6.056
REMARK  4 active torsions:
REMARK  status: ('A' for Active; 'I' for Inactive)
REMARK    1  A    between atoms: C2_2  and  N1_3 
REMARK    2  A    between atoms: N1_3  and  C3_4 
REMARK    3  A    between atoms: C6_7  and  N2_8 
REMARK    4  A    between atoms: N2_8  and  C7_9 
ROOT
HETATM    1  C3  UNL     1      23.840   0.929  52.821  1.00  0.00     0.021 A 
HETATM    2  C4  UNL     1      23.901   2.230  52.417  1.00  0.00     0.042 A 
HETATM    3  C5  UNL     1      22.732   2.887  52.120  1.00  0.00     0.022 A 
HETATM    4  C6  UNL     1      22.905   4.193  51.725  1.00  0.00     0.067 A 
HETATM    5  C13 UNL     1      21.760   4.892  51.418  1.00  0.00     0.089 A 
HETATM    6  C14 UNL     1      21.865   6.270  50.993  1.00  0.00     0.103 C 
HETATM    7  N3  UNL     1      21.945   7.389  50.669  1.00  0.00    -0.191 NA
HETATM    8  C15 UNL     1      20.556   4.227  51.534  1.00  0.00     0.142 A 
HETATM    9  N4  UNL     1      20.480   2.950  51.929  1.00  0.00    -0.259 NA
HETATM   10  C16 UNL     1      21.549   2.207  52.243  1.00  0.00     0.066 A 
HETATM   11  C17 UNL     1      21.408   0.897  52.644  1.00  0.00     0.025 A 
HETATM   12  C18 UNL     1      22.614   0.242  52.942  1.00  0.00     0.058 A 
HETATM   13  O1  UNL     1      22.347  -1.071  53.335  1.00  0.00     0.000 OA
HETATM   14  C19 UNL     1      22.189  -1.368  54.687  1.00  0.00     0.000 A 
HETATM   15  O2  UNL     1      22.428  -0.134  54.463  1.00  0.00     0.000 OA
ENDROOT
BRANCH   4  16
HETATM   16  N2  UNL     1      24.165   4.811  51.622  1.00  0.00    -0.354 N 
HETATM   17  H8  UNL     1      24.237   5.226  52.583  1.00  0.00     0.166 HD
BRANCH  16  18
HETATM   18  C7  UNL     1      25.146   4.931  50.626  1.00  0.00     0.033 A 
HETATM   19  C8  UNL     1      25.845   3.788  50.298  1.00  0.00     0.029 A 
HETATM   20  C9  UNL     1      26.814   3.882  49.329  1.00  0.00     0.004 A 
HETATM   21  C10 UNL     1      27.081   5.098  48.698  1.00  0.00     0.019 A 
HETATM   22  C11 UNL     1      26.343   6.193  49.077  1.00  0.00     0.013 A 
HETATM   23 BR1  UNL     1      26.775   7.816  48.162  1.00  0.00    -0.051 Br
HETATM   24  C12 UNL     1      25.357   6.153  50.046  1.00  0.00     0.048 A 
ENDBRANCH  16  18
ENDBRANCH   4  16
BRANCH   1  25
HETATM   25  N1  UNL     1      24.787  -0.051  53.204  1.00  0.00    -0.393 N 
HETATM   26  H6  UNL     1      25.116   0.498  54.068  1.00  0.00     0.159 HD
BRANCH  25  27
HETATM   27  C2  UNL     1      25.729  -0.993  53.612  1.00  0.00     0.115 C 
HETATM   28  C1  UNL     1      26.750  -1.450  52.586  1.00  0.00     0.026 C 
ENDBRANCH  25  27
ENDBRANCH   1  25
TORSDOF 4
ENDMDL
MODEL 4
REMARK VINA RESULT:      -8.0      2.420      3.429
REMARK  4 active torsions:
REMARK  status: ('A' for Active; 'I' for Inactive)
REMARK    1  A    between atoms: C2_2  and  N1_3 
REMARK    2  A    between atoms: N1_3  and  C3_4 
REMARK    3  A    between atoms: C6_7  and  N2_8 
REMARK    4  A    between atoms: N2_8  and  C7_9 
ROOT
HETATM    1  C3  UNL     1      25.993   4.973  49.738  1.00  0.00     0.021 A 
HETATM    2  C4  UNL     1      25.907   3.766  50.366  1.00  0.00     0.042 A 
HETATM    3  C5  UNL     1      24.753   3.451  51.041  1.00  0.00     0.022 A 
HETATM    4  C6  UNL     1      24.769   2.211  51.637  1.00  0.00     0.067 A 
HETATM    5  C13 UNL     1      23.632   1.852  52.323  1.00  0.00     0.089 A 
HETATM    6  C14 UNL     1      23.579   0.563  52.977  1.00  0.00     0.103 C 
HETATM    7  N3  UNL     1      23.524  -0.484  53.489  1.00  0.00    -0.191 NA
HETATM    8  C15 UNL     1      22.590   2.757  52.350  1.00  0.00     0.142 A 
HETATM    9  N4  UNL     1      22.660   3.946  51.739  1.00  0.00    -0.259 NA
HETATM   10  C16 UNL     1      23.731   4.365  51.053  1.00  0.00     0.066 A 
HETATM   11  C17 UNL     1      23.744   5.599  50.444  1.00  0.00     0.025 A 
HETATM   12  C18 UNL     1      24.933   5.903  49.761  1.00  0.00     0.058 A 
HETATM   13  O1  UNL     1      24.830   7.172  49.186  1.00  0.00     0.000 OA
HETATM   14  C19 UNL     1      24.384   7.301  47.873  1.00  0.00     0.000 A 
HETATM   15  O2  UNL     1      24.432   6.090  48.276  1.00  0.00     0.000 OA
ENDROOT
BRANCH   4  16
HETATM   16  N2  UNL     1      25.870   1.337  51.575  1.00  0.00    -0.354 N 
HETATM   17  H8  UNL     1      25.652   0.842  50.676  1.00  0.00     0.166 HD
BRANCH  16  18
HETATM   18  C7  UNL     1      26.993   1.079  52.375  1.00  0.00     0.033 A 
HETATM   19  C8  UNL     1      27.539   2.153  53.048  1.00  0.00     0.029 A 
HETATM   20  C9  UNL     1      28.643   1.927  53.834  1.00  0.00     0.004 A 
HETATM   21  C10 UNL     1      29.193   0.648  53.946  1.00  0.00     0.019 A 
HETATM   22  C11 UNL     1      28.593  -0.371  53.247  1.00  0.00     0.013 A 
HETATM   23 BR1  UNL     1      29.412  -2.087  53.457  1.00  0.00    -0.051 Br
HETATM   24  C12 UNL     1      27.482  -0.197  52.442  1.00  0.00     0.048 A 
ENDBRANCH  16  18
ENDBRANCH   4  16
BRANCH   1  25
HETATM   25  N1  UNL     1      26.977   5.639  48.967  1.00  0.00    -0.393 N 
HETATM   26  H6  UNL     1      27.593   4.764  48.863  1.00  0.00     0.159 HD
BRANCH  25  27
HETATM   27  C2  UNL     1      27.965   6.260  48.207  1.00  0.00     0.115 C 
HETATM   28  C1  UNL     1      29.346   5.630  48.207  1.00  0.00     0.026 C 
ENDBRANCH  25  27
ENDBRANCH   1  25
TORSDOF 4
ENDMDL
MODEL 5
REMARK VINA RESULT:      -7.9      2.210      5.163
REMARK  4 active torsions:
REMARK  status: ('A' for Active; 'I' for Inactive)
REMARK    1  A    between atoms: C2_2  and  N1_3 
REMARK    2  A    between atoms: N1_3  and  C3_4 
REMARK    3  A    between atoms: C6_7  and  N2_8 
REMARK    4  A    between atoms: N2_8  and  C7_9 
ROOT
HETATM    1  C3  UNL     1      22.793   0.970  52.573  1.00  0.00     0.021 A 
HETATM    2  C4  UNL     1      23.960   1.608  52.271  1.00  0.00     0.042 A 
HETATM    3  C5  UNL     1      24.082   2.224  51.050  1.00  0.00     0.022 A 
HETATM    4  C6  UNL     1      25.296   2.839  50.848  1.00  0.00     0.067 A 
HETATM    5  C13 UNL     1      25.463   3.471  49.637  1.00  0.00     0.089 A 
HETATM    6  C14 UNL     1      26.715   4.137  49.355  1.00  0.00     0.103 C 
HETATM    7  N3  UNL     1      27.718   4.693  49.131  1.00  0.00    -0.191 NA
HETATM    8  C15 UNL     1      24.410   3.432  48.746  1.00  0.00     0.142 A 
HETATM    9  N4  UNL     1      23.259   2.809  49.026  1.00  0.00    -0.259 NA
HETATM   10  C16 UNL     1      23.023   2.173  50.181  1.00  0.00     0.066 A 
HETATM   11  C17 UNL     1      21.817   1.550  50.413  1.00  0.00     0.025 A 
HETATM   12  C18 UNL     1      21.712   0.926  51.667  1.00  0.00     0.058 A 
HETATM   13  O1  UNL     1      20.453   0.332  51.789  1.00  0.00     0.000 OA
HETATM   14  C19 UNL     1      19.410   1.041  52.379  1.00  0.00     0.000 A 
HETATM   15  O2  UNL     1      20.505   1.697  52.329  1.00  0.00     0.000 OA
ENDROOT
BRANCH   4  16
HETATM   16  N2  UNL     1      26.332   2.836  51.800  1.00  0.00    -0.354 N 
HETATM   17  H8  UNL     1      26.423   3.869  51.965  1.00  0.00     0.166 HD
BRANCH  16  18
HETATM   18  C7  UNL     1      27.109   1.856  52.435  1.00  0.00     0.033 A 
HETATM   19  C8  UNL     1      28.105   2.301  53.281  1.00  0.00     0.029 A 
HETATM   20  C9  UNL     1      28.883   1.360  53.911  1.00  0.00     0.004 A 
HETATM   21  C10 UNL     1      28.669  -0.003  53.700  1.00  0.00     0.019 A 
HETATM   22  C11 UNL     1      27.658  -0.370  52.845  1.00  0.00     0.013 A 
HETATM   23 BR1  UNL     1      27.437  -2.256  52.615  1.00  0.00    -0.051 Br
HETATM   24  C12 UNL     1      26.848   0.536  52.186  1.00  0.00     0.048 A 
ENDBRANCH  16  18
ENDBRANCH   4  16
BRANCH   1  25
HETATM   25  N1  UNL     1      22.299   0.248  53.685  1.00  0.00    -0.393 N 
HETATM   26  H6  UNL     1      23.271   0.117  54.126  1.00  0.00     0.159 HD
BRANCH  25  27
HETATM   27  C2  UNL     1      21.849  -0.467  54.794  1.00  0.00     0.115 C 
HETATM   28  C1  UNL     1      21.035  -1.722  54.533  1.00  0.00     0.026 C 
ENDBRANCH  25  27
ENDBRANCH   1  25
TORSDOF 4
ENDMDL
MODEL 6
REMARK VINA RESULT:      -7.7      7.102     10.437
REMARK  4 active torsions:
REMARK  status: ('A' for Active; 'I' for Inactive)
REMARK    1  A    between atoms: C2_2  and  N1_3 
REMARK    2  A    between atoms: N1_3  and  C3_4 
REMARK    3  A    between atoms: C6_7  and  N2_8 
REMARK    4  A    between atoms: N2_8  and  C7_9 
ROOT
HETATM    1  C3  UNL     1      31.322   5.310  47.699  1.00  0.00     0.021 A 
HETATM    2  C4  UNL     1      30.168   6.034  47.776  1.00  0.00     0.042 A 
HETATM    3  C5  UNL     1      30.190   7.251  48.411  1.00  0.00     0.022 A 
HETATM    4  C6  UNL     1      28.977   7.898  48.431  1.00  0.00     0.067 A 
HETATM    5  C13 UNL     1      28.952   9.124  49.057  1.00  0.00     0.089 A 
HETATM    6  C14 UNL     1      27.709   9.861  49.117  1.00  0.00     0.103 C 
HETATM    7  N3  UNL     1      26.712  10.468  49.151  1.00  0.00    -0.191 NA
HETATM    8  C15 UNL     1      30.132   9.587  49.601  1.00  0.00     0.142 A 
HETATM    9  N4  UNL     1      31.273   8.888  49.535  1.00  0.00    -0.259 NA
HETATM   10  C16 UNL     1      31.375   7.691  48.944  1.00  0.00     0.066 A 
HETATM   11  C17 UNL     1      32.576   7.019  48.906  1.00  0.00     0.025 A 
HETATM   12  C18 UNL     1      32.533   5.777  48.252  1.00  0.00     0.058 A 
HETATM   13  O1  UNL     1      33.801   5.192  48.277  1.00  0.00     0.000 OA
HETATM   14  C19 UNL     1      34.674   5.395  47.211  1.00  0.00     0.000 A 
HETATM   15  O2  UNL     1      33.550   5.983  47.065  1.00  0.00     0.000 OA
ENDROOT
BRANCH   4  16
HETATM   16  N2  UNL     1      27.806   7.366  47.860  1.00  0.00    -0.354 N 
HETATM   17  H8  UNL     1      27.899   7.742  46.885  1.00  0.00     0.166 HD
BRANCH  16  18
HETATM   18  C7  UNL     1      26.744   6.567  48.309  1.00  0.00     0.033 A 
HETATM   19  C8  UNL     1      25.468   7.039  48.078  1.00  0.00     0.029 A 
HETATM   20  C9  UNL     1      24.412   6.276  48.514  1.00  0.00     0.004 A 
HETATM   21  C10 UNL     1      24.626   5.062  49.168  1.00  0.00     0.019 A 
HETATM   22  C11 UNL     1      25.924   4.657  49.360  1.00  0.00     0.013 A 
HETATM   23 BR1  UNL     1      26.125   2.984  50.265  1.00  0.00    -0.051 Br
HETATM   24  C12 UNL     1      27.023   5.386  48.943  1.00  0.00     0.048 A 
ENDBRANCH  16  18
ENDBRANCH   4  16
BRANCH   1  25
HETATM   25  N1  UNL     1      31.691   4.061  47.146  1.00  0.00    -0.393 N 
HETATM   26  H6  UNL     1      31.280   4.285  46.178  1.00  0.00     0.159 HD
BRANCH  25  27
HETATM   27  C2  UNL     1      32.039   2.842  46.567  1.00  0.00     0.115 C 
HETATM   28  C1  UNL     1      32.887   1.892  47.394  1.00  0.00     0.026 C 
ENDBRANCH  25  27
ENDBRANCH   1  25
TORSDOF 4
ENDMDL
MODEL 7
REMARK VINA RESULT:      -7.5      3.978      6.948
REMARK  4 active torsions:
REMARK  status: ('A' for Active; 'I' for Inactive)
REMARK    1  A    between atoms: C2_2  and  N1_3 
REMARK    2  A    between atoms: N1_3  and  C3_4 
REMARK    3  A    between atoms: C6_7  and  N2_8 
REMARK    4  A    between atoms: N2_8  and  C7_9 
ROOT
HETATM    1  C3  UNL     1      24.491   1.034  52.882  1.00  0.00     0.021 A 
HETATM    2  C4  UNL     1      23.309   1.263  52.242  1.00  0.00     0.042 A 
HETATM    3  C5  UNL     1      22.837   2.550  52.162  1.00  0.00     0.022 A 
HETATM    4  C6  UNL     1      21.640   2.670  51.495  1.00  0.00     0.067 A 
HETATM    5  C13 UNL     1      21.129   3.944  51.389  1.00  0.00     0.089 A 
HETATM    6  C14 UNL     1      19.873   4.146  50.702  1.00  0.00     0.103 C 
HETATM    7  N3  UNL     1      18.868   4.316  50.131  1.00  0.00    -0.191 NA
HETATM    8  C15 UNL     1      21.855   4.972  51.954  1.00  0.00     0.142 A 
HETATM    9  N4  UNL     1      23.017   4.763  52.587  1.00  0.00    -0.259 NA
HETATM   10  C16 UNL     1      23.576   3.555  52.730  1.00  0.00     0.066 A 
HETATM   11  C17 UNL     1      24.774   3.402  53.390  1.00  0.00     0.025 A 
HETATM   12  C18 UNL     1      25.240   2.079  53.462  1.00  0.00     0.058 A 
HETATM   13  O1  UNL     1      26.455   2.049  54.150  1.00  0.00     0.000 OA
HETATM   14  C19 UNL     1      27.651   2.123  53.440  1.00  0.00     0.000 A 
HETATM   15  O2  UNL     1      26.615   2.162  52.694  1.00  0.00     0.000 OA
ENDROOT
BRANCH   4  16
HETATM   16  N2  UNL     1      20.946   1.576  50.945  1.00  0.00    -0.354 N 
HETATM   17  H8  UNL     1      21.491   1.450  50.057  1.00  0.00     0.166 HD
BRANCH  16  18
HETATM   18  C7  UNL     1      19.853   0.786  51.329  1.00  0.00     0.033 A 
HETATM   19  C8  UNL     1      19.921   0.189  52.572  1.00  0.00     0.029 A 
HETATM   20  C9  UNL     1      18.864  -0.595  52.968  1.00  0.00     0.004 A 
HETATM   21  C10 UNL     1      17.758  -0.779  52.137  1.00  0.00     0.019 A 
HETATM   22  C11 UNL     1      17.762  -0.152  50.915  1.00  0.00     0.013 A 
HETATM   23 BR1  UNL     1      16.208  -0.460  49.842  1.00  0.00    -0.051 Br
HETATM   24  C12 UNL     1      18.798   0.646  50.468  1.00  0.00     0.048 A 
ENDBRANCH  16  18
ENDBRANCH   4  16
BRANCH   1  25
HETATM   25  N1  UNL     1      25.280  -0.108  53.162  1.00  0.00    -0.393 N 
HETATM   26  H6  UNL     1      25.554   0.230  54.145  1.00  0.00     0.159 HD
BRANCH  25  27
HETATM   27  C2  UNL     1      26.064  -1.217  53.472  1.00  0.00     0.115 C 
HETATM   28  C1  UNL     1      27.291  -1.468  52.612  1.00  0.00     0.026 C 
ENDBRANCH  25  27
ENDBRANCH   1  25
TORSDOF 4
ENDMDL
MODEL 8
REMARK VINA RESULT:      -7.4      3.486      7.267
REMARK  4 active torsions:
REMARK  status: ('A' for Active; 'I' for Inactive)
REMARK    1  A    between atoms: C2_2  and  N1_3 
REMARK    2  A    between atoms: N1_3  and  C3_4 
REMARK    3  A    between atoms: C6_7  and  N2_8 
REMARK    4  A    between atoms: N2_8  and  C7_9 
ROOT
HETATM    1  C3  UNL     1      24.921   0.847  52.888  1.00  0.00     0.021 A 
HETATM    2  C4  UNL     1      24.282   1.801  52.152  1.00  0.00     0.042 A 
HETATM    3  C5  UNL     1      25.016   2.574  51.286  1.00  0.00     0.022 A 
HETATM    4  C6  UNL     1      24.276   3.503  50.593  1.00  0.00     0.067 A 
HETATM    5  C13 UNL     1      24.971   4.300  49.712  1.00  0.00     0.089 A 
HETATM    6  C14 UNL     1      24.258   5.300  48.950  1.00  0.00     0.103 C 
HETATM    7  N3  UNL     1      23.682   6.096  48.318  1.00  0.00    -0.191 NA
HETATM    8  C15 UNL     1      26.332   4.096  49.605  1.00  0.00     0.142 A 
HETATM    9  N4  UNL     1      26.974   3.164  50.321  1.00  0.00    -0.259 NA
HETATM   10  C16 UNL     1      26.366   2.353  51.196  1.00  0.00     0.066 A 
HETATM   11  C17 UNL     1      27.080   1.412  51.903  1.00  0.00     0.025 A 
HETATM   12  C18 UNL     1      26.311   0.633  52.783  1.00  0.00     0.058 A 
HETATM   13  O1  UNL     1      27.138  -0.281  53.441  1.00  0.00     0.000 OA
HETATM   14  C19 UNL     1      27.305  -1.561  52.917  1.00  0.00     0.000 A 
HETATM   15  O2  UNL     1      26.527  -0.825  52.221  1.00  0.00     0.000 OA
ENDROOT
BRANCH   4  16
HETATM   16  N2  UNL     1      22.887   3.662  50.754  1.00  0.00    -0.354 N 
HETATM   17  H8  UNL     1      22.874   4.564  51.290  1.00  0.00     0.166 HD
BRANCH  16  18
HETATM   18  C7  UNL     1      21.744   2.940  50.381  1.00  0.00     0.033 A 
HETATM   19  C8  UNL     1      21.902   1.992  49.390  1.00  0.00     0.029 A 
HETATM   20  C9  UNL     1      20.795   1.276  49.003  1.00  0.00     0.004 A 
HETATM   21  C10 UNL     1      19.552   1.502  49.596  1.00  0.00     0.019 A 
HETATM   22  C11 UNL     1      19.473   2.461  50.576  1.00  0.00     0.013 A 
HETATM   23 BR1  UNL     1      17.733   2.705  51.332  1.00  0.00    -0.051 Br
HETATM   24  C12 UNL     1      20.555   3.210  51.002  1.00  0.00     0.048 A 
ENDBRANCH  16  18
ENDBRANCH   4  16
BRANCH   1  25
HETATM   25  N1  UNL     1      24.527  -0.114  53.849  1.00  0.00    -0.393 N 
HETATM   26  H6  UNL     1      23.836   0.549  54.337  1.00  0.00     0.159 HD
BRANCH  25  27
HETATM   27  C2  UNL     1      24.115  -1.033  54.812  1.00  0.00     0.115 C 
HETATM   28  C1  UNL     1      22.621  -1.209  55.016  1.00  0.00     0.026 C 
ENDBRANCH  25  27
ENDBRANCH   1  25
TORSDOF 4
ENDMDL
MODEL 9
REMARK VINA RESULT:      -7.3      2.795      4.248
REMARK  4 active torsions:
REMARK  status: ('A' for Active; 'I' for Inactive)
REMARK    1  A    between atoms: C2_2  and  N1_3 
REMARK    2  A    between atoms: N1_3  and  C3_4 
REMARK    3  A    between atoms: C6_7  and  N2_8 
REMARK    4  A    between atoms: N2_8  and  C7_9 
ROOT
HETATM    1  C3  UNL     1      26.173   4.990  49.619  1.00  0.00     0.021 A 
HETATM    2  C4  UNL     1      25.414   3.995  50.162  1.00  0.00     0.042 A 
HETATM    3  C5  UNL     1      24.214   4.321  50.745  1.00  0.00     0.022 A 
HETATM    4  C6  UNL     1      23.528   3.245  51.260  1.00  0.00     0.067 A 
HETATM    5  C13 UNL     1      22.318   3.524  51.854  1.00  0.00     0.089 A 
HETATM    6  C14 UNL     1      21.542   2.443  52.419  1.00  0.00     0.103 C 
HETATM    7  N3  UNL     1      20.904   1.569  52.858  1.00  0.00    -0.191 NA
HETATM    8  C15 UNL     1      21.907   4.842  51.878  1.00  0.00     0.142 A 
HETATM    9  N4  UNL     1      22.641   5.829  51.350  1.00  0.00    -0.259 NA
HETATM   10  C16 UNL     1      23.827   5.635  50.757  1.00  0.00     0.066 A 
HETATM   11  C17 UNL     1      24.536   6.691  50.231  1.00  0.00     0.025 A 
HETATM   12  C18 UNL     1      25.760   6.338  49.639  1.00  0.00     0.058 A 
HETATM   13  O1  UNL     1      26.386   7.484  49.143  1.00  0.00     0.000 OA
HETATM   14  C19 UNL     1      26.187   7.860  47.817  1.00  0.00     0.000 A 
HETATM   15  O2  UNL     1      25.558   6.797  48.143  1.00  0.00     0.000 OA
ENDROOT
BRANCH   4  16
HETATM   16  N2  UNL     1      24.008   1.924  51.207  1.00  0.00    -0.354 N 
HETATM   17  H8  UNL     1      23.584   1.619  50.296  1.00  0.00     0.166 HD
BRANCH  16  18
HETATM   18  C7  UNL     1      24.808   1.112  52.025  1.00  0.00     0.033 A 
HETATM   19  C8  UNL     1      26.126   0.953  51.648  1.00  0.00     0.029 A 
HETATM   20  C9  UNL     1      26.928   0.159  52.430  1.00  0.00     0.004 A 
HETATM   21  C10 UNL     1      26.422  -0.467  53.571  1.00  0.00     0.019 A 
HETATM   22  C11 UNL     1      25.101  -0.260  53.883  1.00  0.00     0.013 A 
HETATM   23 BR1  UNL     1      24.492  -1.155  55.461  1.00  0.00    -0.051 Br
HETATM   24  C12 UNL     1      24.250   0.528  53.130  1.00  0.00     0.048 A 
ENDBRANCH  16  18
ENDBRANCH   4  16
BRANCH   1  25
HETATM   25  N1  UNL     1      27.420   5.054  48.952  1.00  0.00    -0.393 N 
HETATM   26  H6  UNL     1      27.004   5.484  48.059  1.00  0.00     0.159 HD
BRANCH  25  27
HETATM   27  C2  UNL     1      28.629   5.132  48.264  1.00  0.00     0.115 C 
HETATM   28  C1  UNL     1      29.459   6.389  48.451  1.00  0.00     0.026 C 
ENDBRANCH  25  27
ENDBRANCH   1  25
TORSDOF 4
ENDMDL
