MODEL 1
REMARK VINA RESULT:      -9.2      0.000      0.000
REMARK  2 active torsions:
REMARK  status: ('A' for Active; 'I' for Inactive)
REMARK    1  A    between atoms: N2_9  and  C8_10 
REMARK    2  A    between atoms: C9_12  and  O1_13 
ROOT
HETATM    1  C1  UNL     1      27.077  -0.615  52.773  1.00  0.00     0.022 C 
HETATM    2  C2  UNL     1      26.195   0.283  52.484  1.00  0.00    -0.023 C 
HETATM    3  C3  UNL     1      26.398   1.433  51.467  1.00  0.00     0.008 C 
HETATM    4  C4  UNL     1      25.612   2.470  50.969  1.00  0.00     0.001 C 
HETATM    5  C5  UNL     1      24.341   3.032  51.062  1.00  0.00     0.141 C 
HETATM    6  C6  UNL     1      23.219   2.488  50.115  1.00  0.00     0.092 C 
HETATM    7  C7  UNL     1      22.185   2.957  51.129  1.00  0.00     0.057 C 
HETATM    8  N1  UNL     1      22.531   4.186  50.940  1.00  0.00    -0.174 NA
HETATM    9  N2  UNL     1      23.957   4.370  50.826  1.00  0.00    -0.237 N 
HETATM   10  C11 UNL     1      21.282   2.169  51.933  1.00  0.00     0.025 C 
HETATM   11  C12 UNL     1      20.825   1.312  52.768  1.00  0.00    -0.015 C 
HETATM   12  C13 UNL     1      21.185   0.262  53.719  1.00  0.00     0.123 A 
HETATM   13  C14 UNL     1      21.711  -0.668  54.545  1.00  0.00     0.051 A 
HETATM   14 CL1  UNL     1      22.874  -1.641  55.359  1.00  0.00    -0.190 Cl
HETATM   15  C15 UNL     1      22.864  -0.180  53.957  1.00  0.00     0.102 A 
HETATM   16  C16 UNL     1      23.791   0.229  53.466  1.00  0.00    -0.115 C 
HETATM   17  C17 UNL     1      24.912   0.749  52.849  1.00  0.00     0.271 C 
HETATM   18  F1  UNL     1      25.128   1.964  53.619  1.00  0.00    -0.232 F 
ENDROOT
BRANCH   9  19
HETATM   19  C8  UNL     1      24.555   5.635  50.553  1.00  0.00     0.192 A 
HETATM   20  N3  UNL     1      25.644   6.096  50.245  1.00  0.00    -0.198 NA
HETATM   21  C9  UNL     1      25.812   7.398  50.068  1.00  0.00     0.171 A 
HETATM   22  C10 UNL     1      24.668   8.278  50.247  1.00  0.00     0.111 A 
HETATM   23  S1  UNL     1      23.391   7.029  50.683  1.00  0.00    -0.058 SA
BRANCH  21  24
HETATM   24  O1  UNL     1      27.140   7.728  49.716  1.00  0.00    -0.344 OA
HETATM   25  H8  UNL     1      27.480   8.679  49.791  1.00  0.00     0.219 HD
ENDBRANCH  21  24
ENDBRANCH   9  19
TORSDOF 2
ENDMDL
MODEL 2
REMARK VINA RESULT:      -8.2      3.855      5.326
REMARK  2 active torsions:
REMARK  status: ('A' for Active; 'I' for Inactive)
REMARK    1  A    between atoms: N2_9  and  C8_10 
REMARK    2  A    between atoms: C9_12  and  O1_13 
ROOT
HETATM    1  C1  UNL     1      25.905   3.490  49.911  1.00  0.00     0.022 C 
HETATM    2  C2  UNL     1      24.847   2.969  50.436  1.00  0.00    -0.023 C 
HETATM    3  C3  UNL     1      23.416   3.089  49.856  1.00  0.00     0.008 C 
HETATM    4  C4  UNL     1      22.159   2.600  50.204  1.00  0.00     0.001 C 
HETATM    5  C5  UNL     1      21.504   1.814  51.149  1.00  0.00     0.141 C 
HETATM    6  C6  UNL     1      21.403   0.274  50.890  1.00  0.00     0.092 C 
HETATM    7  C7  UNL     1      21.268   0.065  52.391  1.00  0.00     0.057 C 
HETATM    8  N1  UNL     1      20.148   0.707  52.398  1.00  0.00    -0.174 NA
HETATM    9  N2  UNL     1      20.155   1.881  51.559  1.00  0.00    -0.237 N 
HETATM   10  C11 UNL     1      22.177  -0.589  53.301  1.00  0.00     0.025 C 
HETATM   11  C12 UNL     1      23.230  -0.893  53.965  1.00  0.00    -0.015 C 
HETATM   12  C13 UNL     1      24.630  -0.549  54.205  1.00  0.00     0.123 A 
HETATM   13  C14 UNL     1      25.896  -0.083  54.289  1.00  0.00     0.051 A 
HETATM   14 CL1  UNL     1      27.291   0.879  53.993  1.00  0.00    -0.190 Cl
HETATM   15  C15 UNL     1      25.384   0.764  53.322  1.00  0.00     0.102 A 
HETATM   16  C16 UNL     1      24.951   1.442  52.535  1.00  0.00    -0.115 C 
HETATM   17  C17 UNL     1      24.395   2.261  51.572  1.00  0.00     0.271 C 
HETATM   18  F1  UNL     1      23.684   3.229  52.393  1.00  0.00    -0.232 F 
ENDROOT
BRANCH   9  19
HETATM   19  C8  UNL     1      19.006   2.703  51.369  1.00  0.00     0.192 A 
HETATM   20  N3  UNL     1      18.183   3.311  52.037  1.00  0.00    -0.198 NA
HETATM   21  C9  UNL     1      17.209   4.001  51.464  1.00  0.00     0.171 A 
HETATM   22  C10 UNL     1      17.134   4.024  50.012  1.00  0.00     0.111 A 
HETATM   23  S1  UNL     1      18.586   2.967  49.617  1.00  0.00    -0.058 SA
BRANCH  21  24
HETATM   24  O1  UNL     1      16.366   4.631  52.407  1.00  0.00    -0.344 OA
HETATM   25  H8  UNL     1      15.841   5.463  52.165  1.00  0.00     0.219 HD
ENDBRANCH  21  24
ENDBRANCH   9  19
TORSDOF 2
ENDMDL
MODEL 3
REMARK VINA RESULT:      -8.0      4.054      6.150
REMARK  2 active torsions:
REMARK  status: ('A' for Active; 'I' for Inactive)
REMARK    1  A    between atoms: N2_9  and  C8_10 
REMARK    2  A    between atoms: C9_12  and  O1_13 
ROOT
HETATM    1  C1  UNL     1      23.042  -1.634  55.693  1.00  0.00     0.022 C 
HETATM    2  C2  UNL     1      22.741  -0.873  54.694  1.00  0.00    -0.023 C 
HETATM    3  C3  UNL     1      21.326  -0.318  54.395  1.00  0.00     0.008 C 
HETATM    4  C4  UNL     1      20.773   0.527  53.435  1.00  0.00     0.001 C 
HETATM    5  C5  UNL     1      21.100   1.285  52.313  1.00  0.00     0.141 C 
HETATM    6  C6  UNL     1      21.559   2.765  52.528  1.00  0.00     0.092 C 
HETATM    7  C7  UNL     1      22.305   2.690  51.204  1.00  0.00     0.057 C 
HETATM    8  N1  UNL     1      21.194   2.534  50.566  1.00  0.00    -0.174 NA
HETATM    9  N2  UNL     1      20.269   1.649  51.232  1.00  0.00    -0.237 N 
HETATM   10  C11 UNL     1      23.727   2.744  50.961  1.00  0.00     0.025 C 
HETATM   11  C12 UNL     1      24.980   2.480  50.990  1.00  0.00    -0.015 C 
HETATM   12  C13 UNL     1      26.000   1.589  51.540  1.00  0.00     0.123 A 
HETATM   13  C14 UNL     1      26.787   0.672  52.145  1.00  0.00     0.051 A 
HETATM   14 CL1  UNL     1      27.265  -0.662  53.120  1.00  0.00    -0.190 Cl
HETATM   15  C15 UNL     1      25.551   0.305  52.646  1.00  0.00     0.102 A 
HETATM   16  C16 UNL     1      24.537   0.023  53.046  1.00  0.00    -0.115 C 
HETATM   17  C17 UNL     1      23.281  -0.303  53.520  1.00  0.00     0.271 C 
HETATM   18  F1  UNL     1      22.746  -1.078  52.411  1.00  0.00    -0.232 F 
ENDROOT
BRANCH   9  19
HETATM   19  C8  UNL     1      18.959   1.384  50.736  1.00  0.00     0.192 A 
HETATM   20  N3  UNL     1      18.378   0.546  50.063  1.00  0.00    -0.198 NA
HETATM   21  C9  UNL     1      17.082   0.651  49.807  1.00  0.00     0.171 A 
HETATM   22  C10 UNL     1      16.357   1.790  50.347  1.00  0.00     0.111 A 
HETATM   23  S1  UNL     1      17.733   2.638  51.223  1.00  0.00    -0.058 SA
BRANCH  21  24
HETATM   24  O1  UNL     1      16.600  -0.415  49.015  1.00  0.00    -0.344 OA
HETATM   25  H8  UNL     1      16.177  -1.232  49.439  1.00  0.00     0.219 HD
ENDBRANCH  21  24
ENDBRANCH   9  19
TORSDOF 2
ENDMDL
MODEL 4
REMARK VINA RESULT:      -8.0      3.401      5.327
REMARK  2 active torsions:
REMARK  status: ('A' for Active; 'I' for Inactive)
REMARK    1  A    between atoms: N2_9  and  C8_10 
REMARK    2  A    between atoms: C9_12  and  O1_13 
ROOT
HETATM    1  C1  UNL     1      21.993  -1.069  54.920  1.00  0.00     0.022 C 
HETATM    2  C2  UNL     1      22.080  -0.149  54.019  1.00  0.00    -0.023 C 
HETATM    3  C3  UNL     1      20.954   0.853  53.661  1.00  0.00     0.008 C 
HETATM    4  C4  UNL     1      20.822   1.928  52.784  1.00  0.00     0.001 C 
HETATM    5  C5  UNL     1      21.519   2.661  51.827  1.00  0.00     0.141 C 
HETATM    6  C6  UNL     1      22.363   3.890  52.305  1.00  0.00     0.092 C 
HETATM    7  C7  UNL     1      23.235   3.728  51.068  1.00  0.00     0.057 C 
HETATM    8  N1  UNL     1      22.232   4.000  50.303  1.00  0.00    -0.174 NA
HETATM    9  N2  UNL     1      21.000   3.384  50.731  1.00  0.00    -0.237 N 
HETATM   10  C11 UNL     1      24.628   3.358  50.984  1.00  0.00     0.025 C 
HETATM   11  C12 UNL     1      25.727   2.711  51.103  1.00  0.00    -0.015 C 
HETATM   12  C13 UNL     1      26.344   1.490  51.618  1.00  0.00     0.123 A 
HETATM   13  C14 UNL     1      26.726   0.312  52.159  1.00  0.00     0.051 A 
HETATM   14 CL1  UNL     1      26.639  -1.202  52.970  1.00  0.00    -0.190 Cl
HETATM   15  C15 UNL     1      25.378   0.301  52.470  1.00  0.00     0.102 A 
HETATM   16  C16 UNL     1      24.280   0.311  52.716  1.00  0.00    -0.115 C 
HETATM   17  C17 UNL     1      22.929   0.347  53.005  1.00  0.00     0.271 C 
HETATM   18  F1  UNL     1      22.353  -0.095  51.744  1.00  0.00    -0.232 F 
ENDROOT
BRANCH   9  19
HETATM   19  C8  UNL     1      19.756   3.600  50.068  1.00  0.00     0.192 A 
HETATM   20  N3  UNL     1      18.685   4.151  50.270  1.00  0.00    -0.198 NA
HETATM   21  C9  UNL     1      17.723   4.135  49.360  1.00  0.00     0.171 A 
HETATM   22  C10 UNL     1      17.965   3.444  48.103  1.00  0.00     0.111 A 
HETATM   23  S1  UNL     1      19.681   2.856  48.408  1.00  0.00    -0.058 SA
BRANCH  21  24
HETATM   24  O1  UNL     1      16.565   4.826  49.784  1.00  0.00    -0.344 OA
HETATM   25  H8  UNL     1      16.590   5.822  49.969  1.00  0.00     0.219 HD
ENDBRANCH  21  24
ENDBRANCH   9  19
TORSDOF 2
ENDMDL
MODEL 5
REMARK VINA RESULT:      -8.0      1.615      1.779
REMARK  2 active torsions:
REMARK  status: ('A' for Active; 'I' for Inactive)
REMARK    1  A    between atoms: N2_9  and  C8_10 
REMARK    2  A    between atoms: C9_12  and  O1_13 
ROOT
HETATM    1  C1  UNL     1      26.777   0.313  52.292  1.00  0.00     0.022 C 
HETATM    2  C2  UNL     1      25.688   0.995  52.162  1.00  0.00    -0.023 C 
HETATM    3  C3  UNL     1      25.483   2.160  51.162  1.00  0.00     0.008 C 
HETATM    4  C4  UNL     1      24.425   2.998  50.816  1.00  0.00     0.001 C 
HETATM    5  C5  UNL     1      23.090   3.267  51.109  1.00  0.00     0.141 C 
HETATM    6  C6  UNL     1      21.987   2.488  50.318  1.00  0.00     0.092 C 
HETATM    7  C7  UNL     1      21.037   2.720  51.484  1.00  0.00     0.057 C 
HETATM    8  N1  UNL     1      21.075   3.994  51.286  1.00  0.00    -0.174 NA
HETATM    9  N2  UNL     1      22.394   4.487  50.972  1.00  0.00    -0.237 N 
HETATM   10  C11 UNL     1      20.456   1.753  52.385  1.00  0.00     0.025 C 
HETATM   11  C12 UNL     1      20.325   0.817  53.250  1.00  0.00    -0.015 C 
HETATM   12  C13 UNL     1      21.041  -0.126  54.106  1.00  0.00     0.123 A 
HETATM   13  C14 UNL     1      21.874  -0.917  54.818  1.00  0.00     0.051 A 
HETATM   14 CL1  UNL     1      23.327  -1.608  55.425  1.00  0.00    -0.190 Cl
HETATM   15  C15 UNL     1      22.793  -0.187  54.085  1.00  0.00     0.102 A 
HETATM   16  C16 UNL     1      23.525   0.415  53.478  1.00  0.00    -0.115 C 
HETATM   17  C17 UNL     1      24.402   1.168  52.722  1.00  0.00     0.271 C 
HETATM   18  F1  UNL     1      24.460   2.401  53.491  1.00  0.00    -0.232 F 
ENDROOT
BRANCH   9  19
HETATM   19  C8  UNL     1      22.655   5.853  50.655  1.00  0.00     0.192 A 
HETATM   20  N3  UNL     1      22.108   6.793  50.100  1.00  0.00    -0.198 NA
HETATM   21  C9  UNL     1      22.703   7.973  50.003  1.00  0.00     0.171 A 
HETATM   22  C10 UNL     1      24.031   8.131  50.574  1.00  0.00     0.111 A 
HETATM   23  S1  UNL     1      24.281   6.432  51.232  1.00  0.00    -0.058 SA
BRANCH  21  24
HETATM   24  O1  UNL     1      21.908   8.925  49.327  1.00  0.00    -0.344 OA
HETATM   25  H8  UNL     1      21.942   9.906  49.577  1.00  0.00     0.219 HD
ENDBRANCH  21  24
ENDBRANCH   9  19
TORSDOF 2
ENDMDL
MODEL 6
REMARK VINA RESULT:      -7.7      4.052      5.953
REMARK  2 active torsions:
REMARK  status: ('A' for Active; 'I' for Inactive)
REMARK    1  A    between atoms: N2_9  and  C8_10 
REMARK    2  A    between atoms: C9_12  and  O1_13 
ROOT
HETATM    1  C1  UNL     1      24.161   5.900  48.474  1.00  0.00     0.022 C 
HETATM    2  C2  UNL     1      24.120   4.831  49.198  1.00  0.00    -0.023 C 
HETATM    3  C3  UNL     1      25.106   4.497  50.345  1.00  0.00     0.008 C 
HETATM    4  C4  UNL     1      25.242   3.462  51.268  1.00  0.00     0.001 C 
HETATM    5  C5  UNL     1      24.662   2.263  51.674  1.00  0.00     0.141 C 
HETATM    6  C6  UNL     1      23.532   2.315  52.755  1.00  0.00     0.092 C 
HETATM    7  C7  UNL     1      23.001   0.995  52.214  1.00  0.00     0.057 C 
HETATM    8  N1  UNL     1      24.087   0.393  52.567  1.00  0.00    -0.174 NA
HETATM    9  N2  UNL     1      25.280   1.162  52.304  1.00  0.00    -0.237 N 
HETATM   10  C11 UNL     1      21.749   0.726  51.548  1.00  0.00     0.025 C 
HETATM   11  C12 UNL     1      20.781   0.764  50.710  1.00  0.00    -0.015 C 
HETATM   12  C13 UNL     1      20.286   1.389  49.485  1.00  0.00     0.123 A 
HETATM   13  C14 UNL     1      20.004   2.074  48.356  1.00  0.00     0.051 A 
HETATM   14 CL1  UNL     1      20.168   3.176  47.045  1.00  0.00    -0.190 Cl
HETATM   15  C15 UNL     1      21.228   2.630  48.681  1.00  0.00     0.102 A 
HETATM   16  C16 UNL     1      22.224   3.071  48.964  1.00  0.00    -0.115 C 
HETATM   17  C17 UNL     1      23.447   3.596  49.333  1.00  0.00     0.271 C 
HETATM   18  F1  UNL     1      24.360   2.583  48.826  1.00  0.00    -0.232 F 
ENDROOT
BRANCH   9  19
HETATM   19  C8  UNL     1      26.584   0.716  52.670  1.00  0.00     0.192 A 
HETATM   20  N3  UNL     1      27.688   1.182  52.908  1.00  0.00    -0.198 NA
HETATM   21  C9  UNL     1      28.706   0.402  53.235  1.00  0.00     0.171 A 
HETATM   22  C10 UNL     1      28.487  -1.034  53.308  1.00  0.00     0.111 A 
HETATM   23  S1  UNL     1      26.704  -1.090  52.863  1.00  0.00    -0.058 SA
BRANCH  21  24
HETATM   24  O1  UNL     1      29.893   1.132  53.469  1.00  0.00    -0.344 OA
HETATM   25  H8  UNL     1      30.533   0.866  54.208  1.00  0.00     0.219 HD
ENDBRANCH  21  24
ENDBRANCH   9  19
TORSDOF 2
ENDMDL
MODEL 7
REMARK VINA RESULT:      -7.7      3.485      4.561
REMARK  2 active torsions:
REMARK  status: ('A' for Active; 'I' for Inactive)
REMARK    1  A    between atoms: N2_9  and  C8_10 
REMARK    2  A    between atoms: C9_12  and  O1_13 
ROOT
HETATM    1  C1  UNL     1      26.598   3.275  50.047  1.00  0.00     0.022 C 
HETATM    2  C2  UNL     1      25.367   2.937  50.239  1.00  0.00    -0.023 C 
HETATM    3  C3  UNL     1      24.186   3.319  49.312  1.00  0.00     0.008 C 
HETATM    4  C4  UNL     1      22.819   3.052  49.283  1.00  0.00     0.001 C 
HETATM    5  C5  UNL     1      21.813   2.374  49.967  1.00  0.00     0.141 C 
HETATM    6  C6  UNL     1      21.535   0.881  49.588  1.00  0.00     0.092 C 
HETATM    7  C7  UNL     1      20.965   0.669  50.983  1.00  0.00     0.057 C 
HETATM    8  N1  UNL     1      20.007   1.498  50.737  1.00  0.00    -0.174 NA
HETATM    9  N2  UNL     1      20.433   2.669  50.011  1.00  0.00    -0.237 N 
HETATM   10  C11 UNL     1      21.474  -0.154  52.054  1.00  0.00     0.025 C 
HETATM   11  C12 UNL     1      22.243  -0.652  52.949  1.00  0.00    -0.015 C 
HETATM   12  C13 UNL     1      23.563  -0.565  53.573  1.00  0.00     0.123 A 
HETATM   13  C14 UNL     1      24.817  -0.330  54.018  1.00  0.00     0.051 A 
HETATM   14 CL1  UNL     1      26.378   0.377  54.165  1.00  0.00    -0.190 Cl
HETATM   15  C15 UNL     1      24.733   0.613  53.009  1.00  0.00     0.102 A 
HETATM   16  C16 UNL     1      24.646   1.373  52.183  1.00  0.00    -0.115 C 
HETATM   17  C17 UNL     1      24.513   2.297  51.165  1.00  0.00     0.271 C 
HETATM   18  F1  UNL     1      23.775   3.358  51.834  1.00  0.00    -0.232 F 
ENDROOT
BRANCH   9  19
HETATM   19  C8  UNL     1      19.529   3.684  49.581  1.00  0.00     0.192 A 
HETATM   20  N3  UNL     1      19.489   4.900  49.472  1.00  0.00    -0.198 NA
HETATM   21  C9  UNL     1      18.412   5.511  49.001  1.00  0.00     0.171 A 
HETATM   22  C10 UNL     1      17.268   4.703  48.612  1.00  0.00     0.111 A 
HETATM   23  S1  UNL     1      17.931   3.033  49.001  1.00  0.00    -0.058 SA
BRANCH  21  24
HETATM   24  O1  UNL     1      18.565   6.916  48.954  1.00  0.00    -0.344 OA
HETATM   25  H8  UNL     1      18.193   7.456  48.182  1.00  0.00     0.219 HD
ENDBRANCH  21  24
ENDBRANCH   9  19
TORSDOF 2
ENDMDL
MODEL 8
REMARK VINA RESULT:      -7.3      8.430     11.393
REMARK  2 active torsions:
REMARK  status: ('A' for Active; 'I' for Inactive)
REMARK    1  A    between atoms: N2_9  and  C8_10 
REMARK    2  A    between atoms: C9_12  and  O1_13 
ROOT
HETATM    1  C1  UNL     1      35.066   3.202  46.685  1.00  0.00     0.022 C 
HETATM    2  C2  UNL     1      34.076   4.031  46.662  1.00  0.00    -0.023 C 
HETATM    3  C3  UNL     1      32.988   4.146  47.758  1.00  0.00     0.008 C 
HETATM    4  C4  UNL     1      31.878   4.961  47.974  1.00  0.00     0.001 C 
HETATM    5  C5  UNL     1      31.165   6.022  47.422  1.00  0.00     0.141 C 
HETATM    6  C6  UNL     1      31.595   7.479  47.797  1.00  0.00     0.092 C 
HETATM    7  C7  UNL     1      30.977   7.960  46.492  1.00  0.00     0.057 C 
HETATM    8  N1  UNL     1      29.805   7.601  46.894  1.00  0.00    -0.174 NA
HETATM    9  N2  UNL     1      29.797   6.334  47.584  1.00  0.00    -0.237 N 
HETATM   10  C11 UNL     1      31.628   8.531  45.337  1.00  0.00     0.025 C 
HETATM   11  C12 UNL     1      32.401   8.692  44.328  1.00  0.00    -0.015 C 
HETATM   12  C13 UNL     1      33.459   8.082  43.525  1.00  0.00     0.123 A 
HETATM   13  C14 UNL     1      34.423   7.360  42.913  1.00  0.00     0.051 A 
HETATM   14 CL1  UNL     1      35.505   6.070  42.563  1.00  0.00    -0.190 Cl
HETATM   15  C15 UNL     1      34.093   6.504  43.948  1.00  0.00     0.102 A 
HETATM   16  C16 UNL     1      33.813   5.821  44.798  1.00  0.00    -0.115 C 
HETATM   17  C17 UNL     1      33.450   5.002  45.849  1.00  0.00     0.271 C 
HETATM   18  F1  UNL     1      32.248   4.373  45.322  1.00  0.00    -0.232 F 
ENDROOT
BRANCH   9  19
HETATM   19  C8  UNL     1      28.621   5.776  48.166  1.00  0.00     0.192 A 
HETATM   20  N3  UNL     1      28.210   4.697  48.565  1.00  0.00    -0.198 NA
HETATM   21  C9  UNL     1      26.992   4.573  49.072  1.00  0.00     0.171 A 
HETATM   22  C10 UNL     1      26.146   5.753  49.147  1.00  0.00     0.111 A 
HETATM   23  S1  UNL     1      27.293   6.994  48.422  1.00  0.00    -0.058 SA
BRANCH  21  24
HETATM   24  O1  UNL     1      26.707   3.249  49.475  1.00  0.00    -0.344 OA
HETATM   25  H8  UNL     1      27.274   2.472  49.156  1.00  0.00     0.219 HD
ENDBRANCH  21  24
ENDBRANCH   9  19
TORSDOF 2
ENDMDL
MODEL 9
REMARK VINA RESULT:      -7.2      9.181     11.270
REMARK  2 active torsions:
REMARK  status: ('A' for Active; 'I' for Inactive)
REMARK    1  A    between atoms: N2_9  and  C8_10 
REMARK    2  A    between atoms: C9_12  and  O1_13 
ROOT
HETATM    1  C1  UNL     1      35.371   5.817  49.230  1.00  0.00     0.022 C 
HETATM    2  C2  UNL     1      34.375   6.315  48.576  1.00  0.00    -0.023 C 
HETATM    3  C3  UNL     1      33.446   7.441  49.093  1.00  0.00     0.008 C 
HETATM    4  C4  UNL     1      32.364   8.152  48.578  1.00  0.00     0.001 C 
HETATM    5  C5  UNL     1      31.565   8.275  47.444  1.00  0.00     0.141 C 
HETATM    6  C6  UNL     1      32.021   9.264  46.321  1.00  0.00     0.092 C 
HETATM    7  C7  UNL     1      31.222   8.442  45.320  1.00  0.00     0.057 C 
HETATM    8  N1  UNL     1      30.121   8.745  45.922  1.00  0.00    -0.174 NA
HETATM    9  N2  UNL     1      30.228   8.721  47.361  1.00  0.00    -0.237 N 
HETATM   10  C11 UNL     1      31.699   7.651  44.211  1.00  0.00     0.025 C 
HETATM   11  C12 UNL     1      32.323   6.771  43.520  1.00  0.00    -0.015 C 
HETATM   12  C13 UNL     1      33.271   5.660  43.578  1.00  0.00     0.123 A 
HETATM   13  C14 UNL     1      34.152   4.668  43.833  1.00  0.00     0.051 A 
HETATM   14 CL1  UNL     1      35.196   3.612  44.701  1.00  0.00    -0.190 Cl
HETATM   15  C15 UNL     1      33.981   5.180  45.107  1.00  0.00     0.102 A 
HETATM   16  C16 UNL     1      33.831   5.611  46.135  1.00  0.00    -0.115 C 
HETATM   17  C17 UNL     1      33.628   6.159  47.387  1.00  0.00     0.271 C 
HETATM   18  F1  UNL     1      32.375   5.530  47.777  1.00  0.00    -0.232 F 
ENDROOT
BRANCH   9  19
HETATM   19  C8  UNL     1      29.152   9.083  48.223  1.00  0.00     0.192 A 
HETATM   20  N3  UNL     1      28.902   9.133  49.417  1.00  0.00    -0.198 NA
HETATM   21  C9  UNL     1      27.723   9.551  49.854  1.00  0.00     0.171 A 
HETATM   22  C10 UNL     1      26.722   9.952  48.878  1.00  0.00     0.111 A 
HETATM   23  S1  UNL     1      27.672   9.657  47.332  1.00  0.00    -0.058 SA
BRANCH  21  24
HETATM   24  O1  UNL     1      27.633   9.535  51.264  1.00  0.00    -0.344 OA
HETATM   25  H8  UNL     1      26.967  10.122  51.752  1.00  0.00     0.219 HD
ENDBRANCH  21  24
ENDBRANCH   9  19
TORSDOF 2
ENDMDL
