MODEL 1
REMARK VINA RESULT:      -9.1      0.000      0.000
REMARK  0 active torsions:
REMARK  status: ('A' for Active; 'I' for Inactive)
ROOT
HETATM    1  C1  UNL     1      27.534   4.532  48.583  1.00  0.00     0.017 C 
HETATM    2  C2  UNL     1      26.793   3.983  49.446  1.00  0.00    -0.082 C 
HETATM    3  C3  UNL     1      25.919   3.310  50.501  1.00  0.00    -0.000 C 
HETATM    4  C4  UNL     1      24.662   3.493  50.037  1.00  0.00     0.016 C 
HETATM    5  C5  UNL     1      23.230   3.353  50.108  1.00  0.00    -0.002 C 
HETATM    6  C6  UNL     1      21.995   3.033  50.520  1.00  0.00    -0.022 C 
HETATM    7  C7  UNL     1      21.346   2.363  51.631  1.00  0.00     0.010 C 
HETATM    8  C8  UNL     1      20.442   1.206  51.303  1.00  0.00     0.034 C 
HETATM    9  C9  UNL     1      20.288   0.338  52.580  1.00  0.00     0.169 C 
HETATM   10  O1  UNL     1      21.295  -0.380  52.982  1.00  0.00    -0.382 OA
HETATM   11  C10 UNL     1      22.293  -1.097  53.390  1.00  0.00     0.162 C 
HETATM   12  C11 UNL     1      23.571  -0.999  53.708  1.00  0.00     0.021 A 
HETATM   13  C12 UNL     1      24.919  -0.540  53.976  1.00  0.00     0.057 A 
HETATM   14  C13 UNL     1      25.945   0.318  54.088  1.00  0.00     0.025 C 
HETATM   15  C14 UNL     1      26.043   1.750  53.861  1.00  0.00     0.110 C 
HETATM   16  C15 UNL     1      26.815   2.112  52.641  1.00  0.00     0.024 C 
HETATM   17  N1  UNL     1      27.927   1.446  52.861  1.00  0.00    -0.250 NA
HETATM   18  C16 UNL     1      28.171   0.343  53.705  1.00  0.00     0.232 C 
HETATM   19  N2  UNL     1      27.189  -0.187  54.437  1.00  0.00    -0.250 NA
HETATM   20  C17 UNL     1      26.943   2.857  51.391  1.00  0.00     0.103 C 
HETATM   21  O2  UNL     1      23.694   0.354  53.486  1.00  0.00     0.000 OA
HETATM   22  C18 UNL     1      23.219   0.840  52.221  1.00  0.00     0.001 C 
HETATM   23  C19 UNL     1      22.259   1.896  52.675  1.00  0.00     0.008 C 
ENDROOT
TORSDOF 0
ENDMDL
MODEL 2
REMARK VINA RESULT:      -8.8      2.607      5.161
REMARK  0 active torsions:
REMARK  status: ('A' for Active; 'I' for Inactive)
ROOT
HETATM    1  C1  UNL     1      21.569   4.379  49.341  1.00  0.00     0.017 C 
HETATM    2  C2  UNL     1      22.159   3.467  49.985  1.00  0.00    -0.082 C 
HETATM    3  C3  UNL     1      22.849   2.354  50.772  1.00  0.00    -0.000 C 
HETATM    4  C4  UNL     1      24.158   2.683  50.704  1.00  0.00     0.016 C 
HETATM    5  C5  UNL     1      25.555   2.473  50.989  1.00  0.00    -0.002 C 
HETATM    6  C6  UNL     1      26.704   1.951  51.442  1.00  0.00    -0.022 C 
HETATM    7  C7  UNL     1      27.166   0.806  52.204  1.00  0.00     0.010 C 
HETATM    8  C8  UNL     1      27.982   1.085  53.437  1.00  0.00     0.034 C 
HETATM    9  C9  UNL     1      27.917  -0.168  54.351  1.00  0.00     0.169 C 
HETATM   10  O1  UNL     1      26.808  -0.439  54.975  1.00  0.00    -0.382 OA
HETATM   11  C10 UNL     1      25.709  -0.717  55.599  1.00  0.00     0.162 C 
HETATM   12  C11 UNL     1      24.420  -0.909  55.381  1.00  0.00     0.021 A 
HETATM   13  C12 UNL     1      23.102  -1.057  54.796  1.00  0.00     0.057 A 
HETATM   14  C13 UNL     1      22.159  -1.097  53.842  1.00  0.00     0.025 C 
HETATM   15  C14 UNL     1      22.225  -0.915  52.402  1.00  0.00     0.110 C 
HETATM   16  C15 UNL     1      21.623   0.362  51.931  1.00  0.00     0.024 C 
HETATM   17  N1  UNL     1      20.434   0.280  52.487  1.00  0.00    -0.250 NA
HETATM   18  C16 UNL     1      19.998  -0.493  53.583  1.00  0.00     0.232 C 
HETATM   19  N2  UNL     1      20.842  -1.299  54.229  1.00  0.00    -0.250 NA
HETATM   20  C17 UNL     1      21.698   1.590  51.143  1.00  0.00     0.103 C 
HETATM   21  O2  UNL     1      24.453  -0.726  54.017  1.00  0.00     0.000 OA
HETATM   22  C18 UNL     1      25.102   0.465  53.547  1.00  0.00     0.001 C 
HETATM   23  C19 UNL     1      26.108  -0.122  52.605  1.00  0.00     0.008 C 
ENDROOT
TORSDOF 0
ENDMDL
MODEL 3
REMARK VINA RESULT:      -8.8      2.969      6.624
REMARK  0 active torsions:
REMARK  status: ('A' for Active; 'I' for Inactive)
ROOT
HETATM    1  C1  UNL     1      18.547  -0.892  53.082  1.00  0.00     0.017 C 
HETATM    2  C2  UNL     1      19.614  -0.218  53.025  1.00  0.00    -0.082 C 
HETATM    3  C3  UNL     1      20.889   0.618  52.943  1.00  0.00    -0.000 C 
HETATM    4  C4  UNL     1      21.852  -0.232  53.364  1.00  0.00     0.016 C 
HETATM    5  C5  UNL     1      23.215  -0.580  53.681  1.00  0.00    -0.002 C 
HETATM    6  C6  UNL     1      24.541  -0.518  53.864  1.00  0.00    -0.022 C 
HETATM    7  C7  UNL     1      25.625   0.438  53.733  1.00  0.00     0.010 C 
HETATM    8  C8  UNL     1      26.782   0.048  52.854  1.00  0.00     0.034 C 
HETATM    9  C9  UNL     1      27.528   1.343  52.437  1.00  0.00     0.169 C 
HETATM   10  O1  UNL     1      26.968   2.149  51.583  1.00  0.00    -0.382 OA
HETATM   11  C10 UNL     1      26.418   2.956  50.733  1.00  0.00     0.162 C 
HETATM   12  C11 UNL     1      25.300   3.629  50.526  1.00  0.00     0.021 A 
HETATM   13  C12 UNL     1      23.977   4.215  50.615  1.00  0.00     0.057 A 
HETATM   14  C13 UNL     1      22.767   4.490  51.127  1.00  0.00     0.025 C 
HETATM   15  C14 UNL     1      22.112   4.066  52.353  1.00  0.00     0.110 C 
HETATM   16  C15 UNL     1      21.002   3.098  52.136  1.00  0.00     0.024 C 
HETATM   17  N1  UNL     1      20.287   3.756  51.251  1.00  0.00    -0.250 NA
HETATM   18  C16 UNL     1      20.657   4.807  50.386  1.00  0.00     0.232 C 
HETATM   19  N2  UNL     1      21.904   5.281  50.384  1.00  0.00    -0.250 NA
HETATM   20  C17 UNL     1      20.330   1.841  52.455  1.00  0.00     0.103 C 
HETATM   21  O2  UNL     1      24.651   3.231  51.673  1.00  0.00     0.000 OA
HETATM   22  C18 UNL     1      24.614   1.819  51.930  1.00  0.00     0.001 C 
HETATM   23  C19 UNL     1      25.208   1.774  53.305  1.00  0.00     0.008 C 
ENDROOT
TORSDOF 0
ENDMDL
MODEL 4
REMARK VINA RESULT:      -8.8      1.878      4.463
REMARK  0 active torsions:
REMARK  status: ('A' for Active; 'I' for Inactive)
ROOT
HETATM    1  C1  UNL     1      29.405   0.593  53.824  1.00  0.00     0.017 C 
HETATM    2  C2  UNL     1      28.227   0.736  53.391  1.00  0.00    -0.082 C 
HETATM    3  C3  UNL     1      26.812   0.928  52.851  1.00  0.00    -0.000 C 
HETATM    4  C4  UNL     1      26.059   0.134  53.646  1.00  0.00     0.016 C 
HETATM    5  C5  UNL     1      24.812  -0.447  54.076  1.00  0.00    -0.002 C 
HETATM    6  C6  UNL     1      23.513  -0.763  54.168  1.00  0.00    -0.022 C 
HETATM    7  C7  UNL     1      22.259  -0.461  53.503  1.00  0.00     0.010 C 
HETATM    8  C8  UNL     1      21.146   0.089  54.353  1.00  0.00     0.034 C 
HETATM    9  C9  UNL     1      20.139   0.812  53.419  1.00  0.00     0.169 C 
HETATM   10  O1  UNL     1      20.479   1.946  52.881  1.00  0.00    -0.382 OA
HETATM   11  C10 UNL     1      20.808   3.075  52.339  1.00  0.00     0.162 C 
HETATM   12  C11 UNL     1      21.760   3.630  51.610  1.00  0.00     0.021 A 
HETATM   13  C12 UNL     1      22.947   3.904  50.825  1.00  0.00     0.057 A 
HETATM   14  C13 UNL     1      24.111   3.666  50.200  1.00  0.00     0.025 C 
HETATM   15  C14 UNL     1      24.911   2.460  50.063  1.00  0.00     0.110 C 
HETATM   16  C15 UNL     1      26.171   2.484  50.855  1.00  0.00     0.024 C 
HETATM   17  N1  UNL     1      26.690   3.618  50.438  1.00  0.00    -0.250 NA
HETATM   18  C16 UNL     1      26.070   4.727  49.825  1.00  0.00     0.232 C 
HETATM   19  N2  UNL     1      24.757   4.729  49.588  1.00  0.00    -0.250 NA
HETATM   20  C17 UNL     1      27.092   1.856  51.800  1.00  0.00     0.103 C 
HETATM   21  O2  UNL     1      22.544   2.506  51.478  1.00  0.00     0.000 OA
HETATM   22  C18 UNL     1      22.869   1.806  52.688  1.00  0.00     0.001 C 
HETATM   23  C19 UNL     1      22.382   0.430  52.350  1.00  0.00     0.008 C 
ENDROOT
TORSDOF 0
ENDMDL
MODEL 5
REMARK VINA RESULT:      -8.7      2.202      5.073
REMARK  0 active torsions:
REMARK  status: ('A' for Active; 'I' for Inactive)
ROOT
HETATM    1  C1  UNL     1      21.908  -1.631  54.953  1.00  0.00     0.017 C 
HETATM    2  C2  UNL     1      22.356  -0.959  53.982  1.00  0.00    -0.082 C 
HETATM    3  C3  UNL     1      22.921  -0.146  52.820  1.00  0.00    -0.000 C 
HETATM    4  C4  UNL     1      21.837   0.106  52.052  1.00  0.00     0.016 C 
HETATM    5  C5  UNL     1      21.176   0.671  50.903  1.00  0.00    -0.002 C 
HETATM    6  C6  UNL     1      20.941   1.316  49.752  1.00  0.00    -0.022 C 
HETATM    7  C7  UNL     1      21.669   2.053  48.735  1.00  0.00     0.010 C 
HETATM    8  C8  UNL     1      21.209   3.455  48.442  1.00  0.00     0.034 C 
HETATM    9  C9  UNL     1      22.381   4.213  47.764  1.00  0.00     0.169 C 
HETATM   10  O1  UNL     1      23.414   4.551  48.478  1.00  0.00    -0.382 OA
HETATM   11  C10 UNL     1      24.447   4.889  49.182  1.00  0.00     0.162 C 
HETATM   12  C11 UNL     1      25.354   4.377  49.993  1.00  0.00     0.021 A 
HETATM   13  C12 UNL     1      26.169   3.506  50.817  1.00  0.00     0.057 A 
HETATM   14  C13 UNL     1      26.590   2.368  51.392  1.00  0.00     0.025 C 
HETATM   15  C14 UNL     1      26.105   1.000  51.308  1.00  0.00     0.110 C 
HETATM   16  C15 UNL     1      25.429   0.528  52.547  1.00  0.00     0.024 C 
HETATM   17  N1  UNL     1      26.356   0.799  53.439  1.00  0.00    -0.250 NA
HETATM   18  C16 UNL     1      27.442   1.696  53.373  1.00  0.00     0.232 C 
HETATM   19  N2  UNL     1      27.651   2.436  52.282  1.00  0.00    -0.250 NA
HETATM   20  C17 UNL     1      24.295  -0.109  53.215  1.00  0.00     0.103 C 
HETATM   21  O2  UNL     1      24.906   3.076  49.944  1.00  0.00     0.000 OA
HETATM   22  C18 UNL     1      23.508   2.872  50.193  1.00  0.00     0.001 C 
HETATM   23  C19 UNL     1      23.113   2.124  48.956  1.00  0.00     0.008 C 
ENDROOT
TORSDOF 0
ENDMDL
MODEL 6
REMARK VINA RESULT:      -8.6      1.829      4.037
REMARK  0 active torsions:
REMARK  status: ('A' for Active; 'I' for Inactive)
ROOT
HETATM    1  C1  UNL     1      20.287   2.853  47.179  1.00  0.00     0.017 C 
HETATM    2  C2  UNL     1      20.876   2.606  48.269  1.00  0.00    -0.082 C 
HETATM    3  C3  UNL     1      21.609   2.319  49.578  1.00  0.00    -0.000 C 
HETATM    4  C4  UNL     1      20.742   1.540  50.263  1.00  0.00     0.016 C 
HETATM    5  C5  UNL     1      20.336   0.763  51.407  1.00  0.00    -0.002 C 
HETATM    6  C6  UNL     1      20.321   0.162  52.604  1.00  0.00    -0.022 C 
HETATM    7  C7  UNL     1      21.168   0.022  53.775  1.00  0.00     0.010 C 
HETATM    8  C8  UNL     1      21.522  -1.376  54.204  1.00  0.00     0.034 C 
HETATM    9  C9  UNL     1      22.795  -1.300  55.087  1.00  0.00     0.169 C 
HETATM   10  O1  UNL     1      23.939  -1.031  54.527  1.00  0.00    -0.382 OA
HETATM   11  C10 UNL     1      25.080  -0.764  53.978  1.00  0.00     0.162 C 
HETATM   12  C11 UNL     1      25.665   0.127  53.198  1.00  0.00     0.021 A 
HETATM   13  C12 UNL     1      25.978   1.261  52.350  1.00  0.00     0.057 A 
HETATM   14  C13 UNL     1      25.782   2.404  51.674  1.00  0.00     0.025 C 
HETATM   15  C14 UNL     1      24.616   3.259  51.530  1.00  0.00     0.110 C 
HETATM   16  C15 UNL     1      23.993   3.198  50.179  1.00  0.00     0.024 C 
HETATM   17  N1  UNL     1      25.039   3.452  49.426  1.00  0.00    -0.250 NA
HETATM   18  C16 UNL     1      26.415   3.332  49.714  1.00  0.00     0.232 C 
HETATM   19  N2  UNL     1      26.826   2.901  50.908  1.00  0.00    -0.250 NA
HETATM   20  C17 UNL     1      22.815   3.045  49.327  1.00  0.00     0.103 C 
HETATM   21  O2  UNL     1      24.571   0.946  53.032  1.00  0.00     0.000 OA
HETATM   22  C18 UNL     1      23.352   0.310  52.623  1.00  0.00     0.001 C 
HETATM   23  C19 UNL     1      22.424   0.769  53.707  1.00  0.00     0.008 C 
ENDROOT
TORSDOF 0
ENDMDL
MODEL 7
REMARK VINA RESULT:      -8.5      2.655      4.801
REMARK  0 active torsions:
REMARK  status: ('A' for Active; 'I' for Inactive)
ROOT
HETATM    1  C1  UNL     1      26.453   5.163  48.997  1.00  0.00     0.017 C 
HETATM    2  C2  UNL     1      25.834   4.206  49.542  1.00  0.00    -0.082 C 
HETATM    3  C3  UNL     1      25.064   3.057  50.187  1.00  0.00    -0.000 C 
HETATM    4  C4  UNL     1      25.953   2.528  51.057  1.00  0.00     0.016 C 
HETATM    5  C5  UNL     1      26.363   1.584  52.066  1.00  0.00    -0.002 C 
HETATM    6  C6  UNL     1      26.366   0.571  52.944  1.00  0.00    -0.022 C 
HETATM    7  C7  UNL     1      25.479  -0.474  53.420  1.00  0.00     0.010 C 
HETATM    8  C8  UNL     1      25.211  -0.526  54.899  1.00  0.00     0.034 C 
HETATM    9  C9  UNL     1      23.895  -1.317  55.123  1.00  0.00     0.169 C 
HETATM   10  O1  UNL     1      22.762  -0.767  54.795  1.00  0.00    -0.382 OA
HETATM   11  C10 UNL     1      21.631  -0.228  54.470  1.00  0.00     0.162 C 
HETATM   12  C11 UNL     1      21.018   0.347  53.451  1.00  0.00     0.021 A 
HETATM   13  C12 UNL     1      20.661   0.912  52.165  1.00  0.00     0.057 A 
HETATM   14  C13 UNL     1      20.802   1.275  50.880  1.00  0.00     0.025 C 
HETATM   15  C14 UNL     1      21.906   1.131  49.946  1.00  0.00     0.110 C 
HETATM   16  C15 UNL     1      22.595   2.413  49.632  1.00  0.00     0.024 C 
HETATM   17  N1  UNL     1      21.569   3.148  49.265  1.00  0.00    -0.250 NA
HETATM   18  C16 UNL     1      20.194   2.986  49.537  1.00  0.00     0.232 C 
HETATM   19  N2  UNL     1      19.761   1.962  50.274  1.00  0.00    -0.250 NA
HETATM   20  C17 UNL     1      23.819   3.200  49.498  1.00  0.00     0.103 C 
HETATM   21  O2  UNL     1      22.054   0.238  52.551  1.00  0.00     0.000 OA
HETATM   22  C18 UNL     1      23.336   0.711  52.990  1.00  0.00     0.001 C 
HETATM   23  C19 UNL     1      24.174  -0.509  52.759  1.00  0.00     0.008 C 
ENDROOT
TORSDOF 0
ENDMDL
MODEL 8
REMARK VINA RESULT:      -8.5      2.354      4.784
REMARK  0 active torsions:
REMARK  status: ('A' for Active; 'I' for Inactive)
ROOT
HETATM    1  C1  UNL     1      28.350  -1.075  53.093  1.00  0.00     0.017 C 
HETATM    2  C2  UNL     1      27.310  -0.408  52.831  1.00  0.00    -0.082 C 
HETATM    3  C3  UNL     1      26.038   0.381  52.528  1.00  0.00    -0.000 C 
HETATM    4  C4  UNL     1      26.449   1.320  51.647  1.00  0.00     0.016 C 
HETATM    5  C5  UNL     1      26.239   2.450  50.778  1.00  0.00    -0.002 C 
HETATM    6  C6  UNL     1      25.665   3.461  50.110  1.00  0.00    -0.022 C 
HETATM    7  C7  UNL     1      24.364   4.088  49.971  1.00  0.00     0.010 C 
HETATM    8  C8  UNL     1      23.793   4.182  48.583  1.00  0.00     0.034 C 
HETATM    9  C9  UNL     1      22.258   4.376  48.706  1.00  0.00     0.169 C 
HETATM   10  O1  UNL     1      21.523   3.374  49.093  1.00  0.00    -0.382 OA
HETATM   11  C10 UNL     1      20.784   2.383  49.478  1.00  0.00     0.162 C 
HETATM   12  C11 UNL     1      20.671   1.501  50.455  1.00  0.00     0.021 A 
HETATM   13  C12 UNL     1      20.839   0.706  51.655  1.00  0.00     0.057 A 
HETATM   14  C13 UNL     1      21.377   0.299  52.816  1.00  0.00     0.025 C 
HETATM   15  C14 UNL     1      22.509   0.787  53.586  1.00  0.00     0.110 C 
HETATM   16  C15 UNL     1      23.689  -0.120  53.553  1.00  0.00     0.024 C 
HETATM   17  N1  UNL     1      23.129  -1.248  53.929  1.00  0.00    -0.250 NA
HETATM   18  C16 UNL     1      21.776  -1.643  53.899  1.00  0.00     0.232 C 
HETATM   19  N2  UNL     1      20.835  -0.818  53.434  1.00  0.00    -0.250 NA
HETATM   20  C17 UNL     1      25.121  -0.338  53.358  1.00  0.00     0.103 C 
HETATM   21  O2  UNL     1      21.748   1.933  51.195  1.00  0.00     0.000 OA
HETATM   22  C18 UNL     1      22.989   2.084  50.491  1.00  0.00     0.001 C 
HETATM   23  C19 UNL     1      23.319   3.509  50.815  1.00  0.00     0.008 C 
ENDROOT
TORSDOF 0
ENDMDL
MODEL 9
REMARK VINA RESULT:      -8.0      6.345     10.077
REMARK  0 active torsions:
REMARK  status: ('A' for Active; 'I' for Inactive)
ROOT
HETATM    1  C1  UNL     1      26.315   3.240  49.447  1.00  0.00     0.017 C 
HETATM    2  C2  UNL     1      26.798   4.339  49.055  1.00  0.00    -0.082 C 
HETATM    3  C3  UNL     1      27.407   5.657  48.584  1.00  0.00    -0.000 C 
HETATM    4  C4  UNL     1      26.344   6.489  48.508  1.00  0.00     0.016 C 
HETATM    5  C5  UNL     1      25.720   7.759  48.238  1.00  0.00    -0.002 C 
HETATM    6  C6  UNL     1      25.521   9.040  47.896  1.00  0.00    -0.022 C 
HETATM    7  C7  UNL     1      26.283  10.185  47.433  1.00  0.00     0.010 C 
HETATM    8  C8  UNL     1      26.197  11.444  48.252  1.00  0.00     0.034 C 
HETATM    9  C9  UNL     1      27.432  12.322  47.916  1.00  0.00     0.169 C 
HETATM   10  O1  UNL     1      28.604  11.955  48.345  1.00  0.00    -0.382 OA
HETATM   11  C10 UNL     1      29.774  11.597  48.768  1.00  0.00     0.162 C 
HETATM   12  C11 UNL     1      30.603  10.569  48.759  1.00  0.00     0.021 A 
HETATM   13  C12 UNL     1      31.246   9.285  48.556  1.00  0.00     0.057 A 
HETATM   14  C13 UNL     1      31.406   8.026  48.118  1.00  0.00     0.025 C 
HETATM   15  C14 UNL     1      30.553   7.158  47.324  1.00  0.00     0.110 C 
HETATM   16  C15 UNL     1      29.944   6.044  48.101  1.00  0.00     0.024 C 
HETATM   17  N1  UNL     1      31.020   5.520  48.644  1.00  0.00    -0.250 NA
HETATM   18  C16 UNL     1      32.294   6.086  48.859  1.00  0.00     0.232 C 
HETATM   19  N2  UNL     1      32.553   7.343  48.492  1.00  0.00    -0.250 NA
HETATM   20  C17 UNL     1      28.778   5.257  48.495  1.00  0.00     0.103 C 
HETATM   21  O2  UNL     1      29.808   9.721  48.021  1.00  0.00     0.000 OA
HETATM   22  C18 UNL     1      28.455   9.561  48.469  1.00  0.00     0.001 C 
HETATM   23  C19 UNL     1      27.707   9.921  47.222  1.00  0.00     0.008 C 
ENDROOT
TORSDOF 0
ENDMDL
