MODEL 1
REMARK VINA RESULT:      -8.5      0.000      0.000
REMARK  4 active torsions:
REMARK  status: ('A' for Active; 'I' for Inactive)
REMARK    1  A    between atoms: C7_7  and  N1_8 
REMARK    2  A    between atoms: N1_8  and  C8_9 
REMARK    3  A    between atoms: C8_9  and  C9_10 
REMARK    4  A    between atoms: C9_10  and  P1_11 
ROOT
HETATM    1  N1  UNL     1      25.451   3.228  51.681  1.00  0.00    -0.389 N 
HETATM    2  H8  UNL     1      25.778   3.852  52.460  1.00  0.00     0.159 HD
ENDROOT
BRANCH   1   3
HETATM    3  C7  UNL     1      25.713   1.974  52.350  1.00  0.00     0.017 C 
HETATM    4  C6  UNL     1      27.143   1.631  52.233  1.00  0.00     0.091 A 
HETATM    5  C5  UNL     1      27.853   2.400  53.292  1.00  0.00    -0.013 A 
HETATM    6  C22 UNL     1      27.461   0.179  52.206  1.00  0.00     0.166 A 
HETATM    7  C4  UNL     1      28.735   1.996  54.191  1.00  0.00    -0.003 A 
HETATM    8  C3  UNL     1      29.070   0.590  54.150  1.00  0.00     0.005 A 
HETATM    9  C2  UNL     1      28.483  -0.174  53.242  1.00  0.00    -0.054 A 
HETATM   10  C1  UNL     1      28.894  -1.626  53.271  1.00  0.00     0.046 C 
HETATM   11  O1  UNL     1      26.373  -0.677  52.259  1.00  0.00    -0.360 OA
HETATM   12  C21 UNL     1      26.087  -1.131  53.538  1.00  0.00     0.317 C 
HETATM   13  N2  UNL     1      24.729  -0.688  53.906  1.00  0.00    -0.276 NA
HETATM   14  C20 UNL     1      24.118   0.414  53.611  1.00  0.00     0.115 C 
HETATM   15  C19 UNL     1      24.517   1.603  52.830  1.00  0.00     0.044 C 
ENDBRANCH   1   3
BRANCH   1  16
HETATM   16  C8  UNL     1      24.945   3.725  50.442  1.00  0.00     0.147 C 
BRANCH  16  17
HETATM   17  C9  UNL     1      23.625   4.400  50.715  1.00  0.00    -0.003 C 
BRANCH  17  18
HETATM   18  P1  UNL     1      22.288   3.910  49.960  1.00  0.00    -0.096 P 
HETATM   19  C10 UNL     1      22.616   3.376  48.264  1.00  0.00     0.062 A 
HETATM   20  C11 UNL     1      22.157   1.978  48.067  1.00  0.00    -0.021 A 
HETATM   21  C12 UNL     1      21.578   1.100  48.870  1.00  0.00     0.008 A 
HETATM   22  C13 UNL     1      21.217   1.293  50.257  1.00  0.00    -0.026 A 
HETATM   23  C14 UNL     1      20.621   0.343  51.030  1.00  0.00     0.012 A 
HETATM   24  C18 UNL     1      21.513   2.540  50.799  1.00  0.00    -0.024 A 
HETATM   25  C15 UNL     1      20.309   0.623  52.361  1.00  0.00     0.001 A 
HETATM   26  C16 UNL     1      20.597   1.860  52.917  1.00  0.00     0.001 A 
HETATM   27  C17 UNL     1      21.202   2.806  52.111  1.00  0.00     0.013 A 
HETATM   28  H12 UNL     1      21.355   4.979  49.935  1.00  0.00     0.062 HD
ENDBRANCH  17  18
ENDBRANCH  16  17
ENDBRANCH   1  16
TORSDOF 4
ENDMDL
MODEL 2
REMARK VINA RESULT:      -8.4      1.470      3.694
REMARK  4 active torsions:
REMARK  status: ('A' for Active; 'I' for Inactive)
REMARK    1  A    between atoms: C7_7  and  N1_8 
REMARK    2  A    between atoms: N1_8  and  C8_9 
REMARK    3  A    between atoms: C8_9  and  C9_10 
REMARK    4  A    between atoms: C9_10  and  P1_11 
ROOT
HETATM    1  N1  UNL     1      23.386   0.270  52.647  1.00  0.00    -0.389 N 
HETATM    2  H8  UNL     1      23.490  -0.515  51.956  1.00  0.00     0.159 HD
ENDROOT
BRANCH   1   3
HETATM    3  C7  UNL     1      24.745   0.755  52.553  1.00  0.00     0.017 C 
HETATM    4  C6  UNL     1      25.606   0.026  53.505  1.00  0.00     0.091 A 
HETATM    5  C5  UNL     1      25.969  -1.262  52.851  1.00  0.00    -0.013 A 
HETATM    6  C22 UNL     1      26.759   0.789  54.050  1.00  0.00     0.166 A 
HETATM    7  C4  UNL     1      27.149  -1.839  52.703  1.00  0.00    -0.003 A 
HETATM    8  C3  UNL     1      28.272  -1.114  53.257  1.00  0.00     0.005 A 
HETATM    9  C2  UNL     1      28.045   0.045  53.854  1.00  0.00    -0.054 A 
HETATM   10  C1  UNL     1      29.272   0.729  54.404  1.00  0.00     0.046 C 
HETATM   11  O1  UNL     1      26.868   2.103  53.624  1.00  0.00    -0.360 OA
HETATM   12  C21 UNL     1      27.729   2.268  52.548  1.00  0.00     0.317 C 
HETATM   13  N2  UNL     1      26.966   2.812  51.409  1.00  0.00    -0.276 NA
HETATM   14  C20 UNL     1      25.746   2.573  51.049  1.00  0.00     0.115 C 
HETATM   15  C19 UNL     1      24.689   1.703  51.607  1.00  0.00     0.044 C 
ENDBRANCH   1   3
BRANCH   1  16
HETATM   16  C8  UNL     1      22.166   0.555  53.330  1.00  0.00     0.147 C 
BRANCH  16  17
HETATM   17  C9  UNL     1      21.043   0.477  52.327  1.00  0.00    -0.003 C 
BRANCH  17  18
HETATM   18  P1  UNL     1      20.497   1.814  51.610  1.00  0.00    -0.096 P 
HETATM   19  C10 UNL     1      20.645   3.270  52.673  1.00  0.00     0.062 A 
HETATM   20  C11 UNL     1      21.449   4.319  51.998  1.00  0.00    -0.021 A 
HETATM   21  C12 UNL     1      22.044   4.377  50.817  1.00  0.00     0.008 A 
HETATM   22  C13 UNL     1      22.065   3.347  49.802  1.00  0.00    -0.026 A 
HETATM   23  C14 UNL     1      22.699   3.471  48.603  1.00  0.00     0.012 A 
HETATM   24  C18 UNL     1      21.383   2.172  50.105  1.00  0.00    -0.024 A 
HETATM   25  C15 UNL     1      22.663   2.421  47.684  1.00  0.00     0.001 A 
HETATM   26  C16 UNL     1      21.989   1.244  47.971  1.00  0.00     0.001 A 
HETATM   27  C17 UNL     1      21.354   1.144  49.194  1.00  0.00     0.013 A 
HETATM   28  H12 UNL     1      19.132   1.628  51.270  1.00  0.00     0.062 HD
ENDBRANCH  17  18
ENDBRANCH  16  17
ENDBRANCH   1  16
TORSDOF 4
ENDMDL
MODEL 3
REMARK VINA RESULT:      -8.3      2.454      7.257
REMARK  4 active torsions:
REMARK  status: ('A' for Active; 'I' for Inactive)
REMARK    1  A    between atoms: C7_7  and  N1_8 
REMARK    2  A    between atoms: N1_8  and  C8_9 
REMARK    3  A    between atoms: C8_9  and  C9_10 
REMARK    4  A    between atoms: C9_10  and  P1_11 
ROOT
HETATM    1  N1  UNL     1      24.631   3.553  52.300  1.00  0.00    -0.389 N 
HETATM    2  H8  UNL     1      25.468   3.956  51.811  1.00  0.00     0.159 HD
ENDROOT
BRANCH   1   3
HETATM    3  C7  UNL     1      23.661   3.904  51.288  1.00  0.00     0.017 C 
HETATM    4  C6  UNL     1      23.703   2.922  50.188  1.00  0.00     0.091 A 
HETATM    5  C5  UNL     1      22.891   1.754  50.629  1.00  0.00    -0.013 A 
HETATM    6  C22 UNL     1      23.354   3.442  48.840  1.00  0.00     0.166 A 
HETATM    7  C4  UNL     1      21.930   1.099  50.000  1.00  0.00    -0.003 A 
HETATM    8  C3  UNL     1      21.607   1.583  48.676  1.00  0.00     0.005 A 
HETATM    9  C2  UNL     1      22.275   2.623  48.202  1.00  0.00    -0.054 A 
HETATM   10  C1  UNL     1      21.873   3.058  46.814  1.00  0.00     0.046 C 
HETATM   11  O1  UNL     1      23.064   4.796  48.773  1.00  0.00    -0.360 OA
HETATM   12  C21 UNL     1      21.708   5.076  48.838  1.00  0.00     0.317 C 
HETATM   13  N2  UNL     1      21.450   5.905  50.030  1.00  0.00    -0.276 NA
HETATM   14  C20 UNL     1      22.014   5.866  51.194  1.00  0.00     0.115 C 
HETATM   15  C19 UNL     1      23.085   5.019  51.761  1.00  0.00     0.044 C 
ENDBRANCH   1   3
BRANCH   1  16
HETATM   16  C8  UNL     1      24.704   2.906  53.571  1.00  0.00     0.147 C 
BRANCH  16  17
HETATM   17  C9  UNL     1      25.366   1.566  53.373  1.00  0.00    -0.003 C 
BRANCH  17  18
HETATM   18  P1  UNL     1      26.829   1.472  52.702  1.00  0.00    -0.096 P 
HETATM   19  C10 UNL     1      28.006   2.616  53.463  1.00  0.00     0.062 A 
HETATM   20  C11 UNL     1      29.184   1.873  53.978  1.00  0.00    -0.021 A 
HETATM   21  C12 UNL     1      29.510   0.591  53.978  1.00  0.00     0.008 A 
HETATM   22  C13 UNL     1      28.739  -0.504  53.433  1.00  0.00    -0.026 A 
HETATM   23  C14 UNL     1      29.133  -1.807  53.466  1.00  0.00     0.012 A 
HETATM   24  C18 UNL     1      27.523  -0.165  52.845  1.00  0.00    -0.024 A 
HETATM   25  C15 UNL     1      28.320  -2.796  52.912  1.00  0.00     0.001 A 
HETATM   26  C16 UNL     1      27.106  -2.476  52.323  1.00  0.00     0.001 A 
HETATM   27  C17 UNL     1      26.729  -1.146  52.302  1.00  0.00     0.013 A 
HETATM   28  H12 UNL     1      26.722   1.772  51.320  1.00  0.00     0.062 HD
ENDBRANCH  17  18
ENDBRANCH  16  17
ENDBRANCH   1  16
TORSDOF 4
ENDMDL
MODEL 4
REMARK VINA RESULT:      -8.3      2.688      7.355
REMARK  4 active torsions:
REMARK  status: ('A' for Active; 'I' for Inactive)
REMARK    1  A    between atoms: C7_7  and  N1_8 
REMARK    2  A    between atoms: N1_8  and  C8_9 
REMARK    3  A    between atoms: C8_9  and  C9_10 
REMARK    4  A    between atoms: C9_10  and  P1_11 
ROOT
HETATM    1  N1  UNL     1      22.647   0.573  53.455  1.00  0.00    -0.389 N 
HETATM    2  H8  UNL     1      22.666   1.189  54.306  1.00  0.00     0.159 HD
ENDROOT
BRANCH   1   3
HETATM    3  C7  UNL     1      21.716   1.374  52.691  1.00  0.00     0.017 C 
HETATM    4  C6  UNL     1      22.381   2.604  52.218  1.00  0.00     0.091 A 
HETATM    5  C5  UNL     1      23.142   2.232  50.993  1.00  0.00    -0.013 A 
HETATM    6  C22 UNL     1      21.506   3.795  52.064  1.00  0.00     0.166 A 
HETATM    7  C4  UNL     1      23.176   2.809  49.804  1.00  0.00    -0.003 A 
HETATM    8  C3  UNL     1      22.348   3.987  49.657  1.00  0.00     0.005 A 
HETATM    9  C2  UNL     1      21.631   4.389  50.694  1.00  0.00    -0.054 A 
HETATM   10  C1  UNL     1      20.800   5.625  50.452  1.00  0.00     0.046 C 
HETATM   11  O1  UNL     1      20.177   3.616  52.415  1.00  0.00    -0.360 OA
HETATM   12  C21 UNL     1      19.354   3.319  51.339  1.00  0.00     0.317 C 
HETATM   13  N2  UNL     1      18.749   1.992  51.555  1.00  0.00    -0.276 NA
HETATM   14  C20 UNL     1      19.259   0.939  52.109  1.00  0.00     0.115 C 
HETATM   15  C19 UNL     1      20.580   0.663  52.711  1.00  0.00     0.044 C 
ENDBRANCH   1   3
BRANCH   1  16
HETATM   16  C8  UNL     1      23.404  -0.632  53.344  1.00  0.00     0.147 C 
BRANCH  16  17
HETATM   17  C9  UNL     1      24.788  -0.361  53.875  1.00  0.00    -0.003 C 
BRANCH  17  18
HETATM   18  P1  UNL     1      25.921   0.265  52.914  1.00  0.00    -0.096 P 
HETATM   19  C10 UNL     1      26.197   2.023  53.237  1.00  0.00     0.062 A 
HETATM   20  C11 UNL     1      27.623   2.266  53.570  1.00  0.00    -0.021 A 
HETATM   21  C12 UNL     1      28.674   1.468  53.666  1.00  0.00     0.008 A 
HETATM   22  C13 UNL     1      28.703   0.037  53.454  1.00  0.00    -0.026 A 
HETATM   23  C14 UNL     1      29.823  -0.729  53.570  1.00  0.00     0.012 A 
HETATM   24  C18 UNL     1      27.491  -0.556  53.112  1.00  0.00    -0.024 A 
HETATM   25  C15 UNL     1      29.753  -2.104  53.345  1.00  0.00     0.001 A 
HETATM   26  C16 UNL     1      28.554  -2.712  53.004  1.00  0.00     0.001 A 
HETATM   27  C17 UNL     1      27.432  -1.912  52.893  1.00  0.00     0.013 A 
HETATM   28  H12 UNL     1      25.520   0.101  51.563  1.00  0.00     0.062 HD
ENDBRANCH  17  18
ENDBRANCH  16  17
ENDBRANCH   1  16
TORSDOF 4
ENDMDL
MODEL 5
REMARK VINA RESULT:      -8.3      3.427      6.270
REMARK  4 active torsions:
REMARK  status: ('A' for Active; 'I' for Inactive)
REMARK    1  A    between atoms: C7_7  and  N1_8 
REMARK    2  A    between atoms: N1_8  and  C8_9 
REMARK    3  A    between atoms: C8_9  and  C9_10 
REMARK    4  A    between atoms: C9_10  and  P1_11 
ROOT
HETATM    1  N1  UNL     1      23.270   4.513  50.596  1.00  0.00    -0.389 N 
HETATM    2  H8  UNL     1      23.017   3.722  49.953  1.00  0.00     0.159 HD
ENDROOT
BRANCH   1   3
HETATM    3  C7  UNL     1      23.904   5.344  49.596  1.00  0.00     0.017 C 
HETATM    4  C6  UNL     1      25.301   5.617  49.983  1.00  0.00     0.091 A 
HETATM    5  C5  UNL     1      26.097   4.429  49.570  1.00  0.00    -0.013 A 
HETATM    6  C22 UNL     1      25.856   6.919  49.529  1.00  0.00     0.166 A 
HETATM    7  C4  UNL     1      27.227   4.355  48.886  1.00  0.00    -0.003 A 
HETATM    8  C3  UNL     1      27.786   5.622  48.468  1.00  0.00     0.005 A 
HETATM    9  C2  UNL     1      27.143   6.734  48.786  1.00  0.00    -0.054 A 
HETATM   10  C1  UNL     1      27.799   8.007  48.311  1.00  0.00     0.046 C 
HETATM   11  O1  UNL     1      24.982   7.735  48.827  1.00  0.00    -0.360 OA
HETATM   12  C21 UNL     1      25.098   7.615  47.450  1.00  0.00     0.317 C 
HETATM   13  N2  UNL     1      23.812   7.139  46.905  1.00  0.00    -0.276 NA
HETATM   14  C20 UNL     1      22.962   6.308  47.416  1.00  0.00     0.115 C 
HETATM   15  C19 UNL     1      22.944   5.544  48.682  1.00  0.00     0.044 C 
ENDBRANCH   1   3
BRANCH   1  16
HETATM   16  C8  UNL     1      22.963   4.517  51.990  1.00  0.00     0.147 C 
BRANCH  16  17
HETATM   17  C9  UNL     1      23.827   3.478  52.658  1.00  0.00    -0.003 C 
BRANCH  17  18
HETATM   18  P1  UNL     1      23.905   1.980  52.067  1.00  0.00    -0.096 P 
HETATM   19  C10 UNL     1      25.610   1.405  51.882  1.00  0.00     0.062 A 
HETATM   20  C11 UNL     1      25.813   0.148  52.644  1.00  0.00    -0.021 A 
HETATM   21  C12 UNL     1      25.010  -0.590  53.394  1.00  0.00     0.008 A 
HETATM   22  C13 UNL     1      23.617  -0.337  53.687  1.00  0.00    -0.026 A 
HETATM   23  C14 UNL     1      22.844  -1.140  54.471  1.00  0.00     0.012 A 
HETATM   24  C18 UNL     1      23.067   0.806  53.114  1.00  0.00    -0.024 A 
HETATM   25  C15 UNL     1      21.506  -0.814  54.696  1.00  0.00     0.001 A 
HETATM   26  C16 UNL     1      20.943   0.321  54.134  1.00  0.00     0.001 A 
HETATM   27  C17 UNL     1      21.749   1.118  53.342  1.00  0.00     0.013 A 
HETATM   28  H12 UNL     1      23.269   1.953  50.799  1.00  0.00     0.062 HD
ENDBRANCH  17  18
ENDBRANCH  16  17
ENDBRANCH   1  16
TORSDOF 4
ENDMDL
MODEL 6
REMARK VINA RESULT:      -8.2      1.910      3.133
REMARK  4 active torsions:
REMARK  status: ('A' for Active; 'I' for Inactive)
REMARK    1  A    between atoms: C7_7  and  N1_8 
REMARK    2  A    between atoms: N1_8  and  C8_9 
REMARK    3  A    between atoms: C8_9  and  C9_10 
REMARK    4  A    between atoms: C9_10  and  P1_11 
ROOT
HETATM    1  N1  UNL     1      23.231   4.679  52.047  1.00  0.00    -0.389 N 
HETATM    2  H8  UNL     1      22.796   4.300  52.925  1.00  0.00     0.159 HD
ENDROOT
BRANCH   1   3
HETATM    3  C7  UNL     1      24.258   3.669  51.921  1.00  0.00     0.017 C 
HETATM    4  C6  UNL     1      24.229   2.774  53.094  1.00  0.00     0.091 A 
HETATM    5  C5  UNL     1      23.151   1.778  52.843  1.00  0.00    -0.013 A 
HETATM    6  C22 UNL     1      25.535   2.184  53.490  1.00  0.00     0.166 A 
HETATM    7  C4  UNL     1      23.170   0.459  52.941  1.00  0.00    -0.003 A 
HETATM    8  C3  UNL     1      24.430  -0.118  53.356  1.00  0.00     0.005 A 
HETATM    9  C2  UNL     1      25.449   0.692  53.596  1.00  0.00    -0.054 A 
HETATM   10  C1  UNL     1      26.722   0.005  54.024  1.00  0.00     0.046 C 
HETATM   11  O1  UNL     1      26.627   2.573  52.731  1.00  0.00    -0.360 OA
HETATM   12  C21 UNL     1      26.941   1.682  51.715  1.00  0.00     0.317 C 
HETATM   13  N2  UNL     1      26.817   2.376  50.420  1.00  0.00    -0.276 NA
HETATM   14  C20 UNL     1      25.970   3.284  50.053  1.00  0.00     0.115 C 
HETATM   15  C19 UNL     1      24.850   3.949  50.751  1.00  0.00     0.044 C 
ENDBRANCH   1   3
BRANCH   1  16
HETATM   16  C8  UNL     1      22.757   5.850  51.382  1.00  0.00     0.147 C 
BRANCH  16  17
HETATM   17  C9  UNL     1      21.304   5.637  51.044  1.00  0.00    -0.003 C 
BRANCH  17  18
HETATM   18  P1  UNL     1      20.886   4.798  49.733  1.00  0.00    -0.096 P 
HETATM   19  C10 UNL     1      22.078   4.994  48.386  1.00  0.00     0.062 A 
HETATM   20  C11 UNL     1      22.598   3.669  47.965  1.00  0.00    -0.021 A 
HETATM   21  C12 UNL     1      22.357   2.435  48.375  1.00  0.00     0.008 A 
HETATM   22  C13 UNL     1      21.450   2.029  49.427  1.00  0.00    -0.026 A 
HETATM   23  C14 UNL     1      21.248   0.735  49.802  1.00  0.00     0.012 A 
HETATM   24  C18 UNL     1      20.761   3.052  50.071  1.00  0.00    -0.024 A 
HETATM   25  C15 UNL     1      20.350   0.440  50.829  1.00  0.00     0.001 A 
HETATM   26  C16 UNL     1      19.656   1.447  51.482  1.00  0.00     0.001 A 
HETATM   27  C17 UNL     1      19.880   2.751  51.082  1.00  0.00     0.013 A 
HETATM   28  H12 UNL     1      19.613   5.240  49.289  1.00  0.00     0.062 HD
ENDBRANCH  17  18
ENDBRANCH  16  17
ENDBRANCH   1  16
TORSDOF 4
ENDMDL
MODEL 7
REMARK VINA RESULT:      -8.2      2.440      4.684
REMARK  4 active torsions:
REMARK  status: ('A' for Active; 'I' for Inactive)
REMARK    1  A    between atoms: C7_7  and  N1_8 
REMARK    2  A    between atoms: N1_8  and  C8_9 
REMARK    3  A    between atoms: C8_9  and  C9_10 
REMARK    4  A    between atoms: C9_10  and  P1_11 
ROOT
HETATM    1  N1  UNL     1      24.462   2.075  51.372  1.00  0.00    -0.389 N 
HETATM    2  H8  UNL     1      24.713   1.577  50.482  1.00  0.00     0.159 HD
ENDROOT
BRANCH   1   3
HETATM    3  C7  UNL     1      25.127   1.158  52.270  1.00  0.00     0.017 C 
HETATM    4  C6  UNL     1      26.569   1.109  51.961  1.00  0.00     0.091 A 
HETATM    5  C5  UNL     1      27.188   2.288  52.629  1.00  0.00    -0.013 A 
HETATM    6  C22 UNL     1      27.248  -0.183  52.239  1.00  0.00     0.166 A 
HETATM    7  C4  UNL     1      28.254   2.365  53.407  1.00  0.00    -0.003 A 
HETATM    8  C3  UNL     1      28.935   1.113  53.656  1.00  0.00     0.005 A 
HETATM    9  C2  UNL     1      28.454   0.010  53.107  1.00  0.00    -0.054 A 
HETATM   10  C1  UNL     1      29.228  -1.247  53.418  1.00  0.00     0.046 C 
HETATM   11  O1  UNL     1      26.437  -1.198  52.722  1.00  0.00    -0.360 OA
HETATM   12  C21 UNL     1      26.450  -1.307  54.104  1.00  0.00     0.317 C 
HETATM   13  N2  UNL     1      25.084  -1.075  54.611  1.00  0.00    -0.276 NA
HETATM   14  C20 UNL     1      24.174  -0.265  54.176  1.00  0.00     0.115 C 
HETATM   15  C19 UNL     1      24.143   0.699  53.056  1.00  0.00     0.044 C 
ENDBRANCH   1   3
BRANCH   1  16
HETATM   16  C8  UNL     1      23.688   3.275  51.405  1.00  0.00     0.147 C 
BRANCH  16  17
HETATM   17  C9  UNL     1      24.557   4.401  50.906  1.00  0.00    -0.003 C 
BRANCH  17  18
HETATM   18  P1  UNL     1      24.467   4.881  49.370  1.00  0.00    -0.096 P 
HETATM   19  C10 UNL     1      23.202   6.151  49.122  1.00  0.00     0.062 A 
HETATM   20  C11 UNL     1      23.806   7.368  48.525  1.00  0.00    -0.021 A 
HETATM   21  C12 UNL     1      25.041   7.673  48.159  1.00  0.00     0.008 A 
HETATM   22  C13 UNL     1      26.211   6.830  48.256  1.00  0.00    -0.026 A 
HETATM   23  C14 UNL     1      27.459   7.207  47.859  1.00  0.00     0.012 A 
HETATM   24  C18 UNL     1      26.011   5.562  48.793  1.00  0.00    -0.024 A 
HETATM   25  C15 UNL     1      28.529   6.322  47.992  1.00  0.00     0.001 A 
HETATM   26  C16 UNL     1      28.347   5.055  48.526  1.00  0.00     0.001 A 
HETATM   27  C17 UNL     1      27.071   4.697  48.920  1.00  0.00     0.013 A 
HETATM   28  H12 UNL     1      24.161   3.761  48.555  1.00  0.00     0.062 HD
ENDBRANCH  17  18
ENDBRANCH  16  17
ENDBRANCH   1  16
TORSDOF 4
ENDMDL
MODEL 8
REMARK VINA RESULT:      -8.2      1.886      3.937
REMARK  4 active torsions:
REMARK  status: ('A' for Active; 'I' for Inactive)
REMARK    1  A    between atoms: C7_7  and  N1_8 
REMARK    2  A    between atoms: N1_8  and  C8_9 
REMARK    3  A    between atoms: C8_9  and  C9_10 
REMARK    4  A    between atoms: C9_10  and  P1_11 
ROOT
HETATM    1  N1  UNL     1      21.732   0.111  51.704  1.00  0.00    -0.389 N 
HETATM    2  H8  UNL     1      21.834  -0.853  51.302  1.00  0.00     0.159 HD
ENDROOT
BRANCH   1   3
HETATM    3  C7  UNL     1      22.723  -0.038  52.747  1.00  0.00     0.017 C 
HETATM    4  C6  UNL     1      23.963   0.665  52.365  1.00  0.00     0.091 A 
HETATM    5  C5  UNL     1      23.758   2.102  52.699  1.00  0.00    -0.013 A 
HETATM    6  C22 UNL     1      25.226   0.084  52.891  1.00  0.00     0.166 A 
HETATM    7  C4  UNL     1      24.532   2.940  53.367  1.00  0.00    -0.003 A 
HETATM    8  C3  UNL     1      25.776   2.386  53.856  1.00  0.00     0.005 A 
HETATM    9  C2  UNL     1      26.042   1.113  53.611  1.00  0.00    -0.054 A 
HETATM   10  C1  UNL     1      27.360   0.622  54.156  1.00  0.00     0.046 C 
HETATM   11  O1  UNL     1      25.088  -1.069  53.649  1.00  0.00    -0.360 OA
HETATM   12  C21 UNL     1      25.050  -0.833  55.015  1.00  0.00     0.317 C 
HETATM   13  N2  UNL     1      23.755  -1.303  55.541  1.00  0.00    -0.276 NA
HETATM   14  C20 UNL     1      22.585  -1.271  54.989  1.00  0.00     0.115 C 
HETATM   15  C19 UNL     1      22.107  -0.777  53.680  1.00  0.00     0.044 C 
ENDBRANCH   1   3
BRANCH   1  16
HETATM   16  C8  UNL     1      20.819   1.081  51.191  1.00  0.00     0.147 C 
BRANCH  16  17
HETATM   17  C9  UNL     1      21.220   1.391  49.771  1.00  0.00    -0.003 C 
BRANCH  17  18
HETATM   18  P1  UNL     1      21.273   2.917  49.254  1.00  0.00    -0.096 P 
HETATM   19  C10 UNL     1      19.943   3.923  49.954  1.00  0.00     0.062 A 
HETATM   20  C11 UNL     1      20.508   5.095  50.669  1.00  0.00    -0.021 A 
HETATM   21  C12 UNL     1      21.746   5.513  50.874  1.00  0.00     0.008 A 
HETATM   22  C13 UNL     1      22.965   4.884  50.415  1.00  0.00    -0.026 A 
HETATM   23  C14 UNL     1      24.214   5.368  50.662  1.00  0.00     0.012 A 
HETATM   24  C18 UNL     1      22.811   3.712  49.681  1.00  0.00    -0.024 A 
HETATM   25  C15 UNL     1      25.332   4.690  50.177  1.00  0.00     0.001 A 
HETATM   26  C16 UNL     1      25.197   3.521  49.443  1.00  0.00     0.001 A 
HETATM   27  C17 UNL     1      23.919   3.051  49.207  1.00  0.00     0.013 A 
HETATM   28  H12 UNL     1      21.164   2.927  47.839  1.00  0.00     0.062 HD
ENDBRANCH  17  18
ENDBRANCH  16  17
ENDBRANCH   1  16
TORSDOF 4
ENDMDL
MODEL 9
REMARK VINA RESULT:      -8.1      3.508      6.713
REMARK  4 active torsions:
REMARK  status: ('A' for Active; 'I' for Inactive)
REMARK    1  A    between atoms: C7_7  and  N1_8 
REMARK    2  A    between atoms: N1_8  and  C8_9 
REMARK    3  A    between atoms: C8_9  and  C9_10 
REMARK    4  A    between atoms: C9_10  and  P1_11 
ROOT
HETATM    1  N1  UNL     1      23.490   4.544  50.138  1.00  0.00    -0.389 N 
HETATM    2  H8  UNL     1      24.301   4.394  50.789  1.00  0.00     0.159 HD
ENDROOT
BRANCH   1   3
HETATM    3  C7  UNL     1      24.145   5.501  49.274  1.00  0.00     0.017 C 
HETATM    4  C6  UNL     1      25.512   5.766  49.762  1.00  0.00     0.091 A 
HETATM    5  C5  UNL     1      26.367   4.655  49.259  1.00  0.00    -0.013 A 
HETATM    6  C22 UNL     1      26.044   7.126  49.489  1.00  0.00     0.166 A 
HETATM    7  C4  UNL     1      27.530   4.692  48.632  1.00  0.00    -0.003 A 
HETATM    8  C3  UNL     1      28.067   6.013  48.390  1.00  0.00     0.005 A 
HETATM    9  C2  UNL     1      27.372   7.063  48.798  1.00  0.00    -0.054 A 
HETATM   10  C1  UNL     1      28.008   8.400  48.506  1.00  0.00     0.046 C 
HETATM   11  O1  UNL     1      25.180   7.993  48.839  1.00  0.00    -0.360 OA
HETATM   12  C21 UNL     1      25.367   8.036  47.465  1.00  0.00     0.317 C 
HETATM   13  N2  UNL     1      24.126   7.591  46.803  1.00  0.00    -0.276 NA
HETATM   14  C20 UNL     1      23.280   6.683  47.171  1.00  0.00     0.115 C 
HETATM   15  C19 UNL     1      23.225   5.779  48.339  1.00  0.00     0.044 C 
ENDBRANCH   1   3
BRANCH   1  16
HETATM   16  C8  UNL     1      22.236   3.879  50.286  1.00  0.00     0.147 C 
BRANCH  16  17
HETATM   17  C9  UNL     1      22.510   2.461  50.718  1.00  0.00    -0.003 C 
BRANCH  17  18
HETATM   18  P1  UNL     1      22.903   2.136  52.247  1.00  0.00    -0.096 P 
HETATM   19  C10 UNL     1      21.624   1.179  53.095  1.00  0.00     0.062 A 
HETATM   20  C11 UNL     1      22.196  -0.084  53.626  1.00  0.00    -0.021 A 
HETATM   21  C12 UNL     1      23.412  -0.606  53.594  1.00  0.00     0.008 A 
HETATM   22  C13 UNL     1      24.589  -0.032  52.981  1.00  0.00    -0.026 A 
HETATM   23  C14 UNL     1      25.816  -0.624  52.983  1.00  0.00     0.012 A 
HETATM   24  C18 UNL     1      24.418   1.203  52.361  1.00  0.00    -0.024 A 
HETATM   25  C15 UNL     1      26.896   0.009  52.365  1.00  0.00     0.001 A 
HETATM   26  C16 UNL     1      26.743   1.238  51.743  1.00  0.00     0.001 A 
HETATM   27  C17 UNL     1      25.487   1.817  51.755  1.00  0.00     0.013 A 
HETATM   28  H12 UNL     1      23.101   3.358  52.941  1.00  0.00     0.062 HD
ENDBRANCH  17  18
ENDBRANCH  16  17
ENDBRANCH   1  16
TORSDOF 4
ENDMDL
