MODEL 1
REMARK VINA RESULT:      -7.9      0.000      0.000
REMARK  4 active torsions:
REMARK  status: ('A' for Active; 'I' for Inactive)
REMARK    1  A    between atoms: O1_2  and  C2_3 
REMARK    2  A    between atoms: C7_8  and  C8_9 
REMARK    3  A    between atoms: C9_12  and  S1_13 
REMARK    4  A    between atoms: S1_13  and  C10_14 
ROOT
HETATM    1  C8  UNL     1      25.794   0.206  52.745  1.00  0.00     0.206 A 
HETATM    2  N1  UNL     1      24.665   0.086  53.463  1.00  0.00    -0.120 NA
HETATM    3  N2  UNL     1      23.782   0.858  52.854  1.00  0.00    -0.114 NA
HETATM    4  C9  UNL     1      24.327   1.454  51.780  1.00  0.00     0.236 A 
HETATM    5  O2  UNL     1      25.568   1.031  51.741  1.00  0.00    -0.263 OA
ENDROOT
BRANCH   1   6
HETATM    6  C7  UNL     1      27.064  -0.476  53.043  1.00  0.00     0.052 A 
HETATM    7  C2  UNL     1      28.076   0.122  53.754  1.00  0.00     0.082 A 
HETATM    8  C3  UNL     1      29.219  -0.623  53.968  1.00  0.00     0.038 A 
HETATM    9  C4  UNL     1      29.403  -1.915  53.518  1.00  0.00     0.003 A 
HETATM   10  C5  UNL     1      28.384  -2.521  52.801  1.00  0.00     0.001 A 
HETATM   11  C6  UNL     1      27.246  -1.776  52.588  1.00  0.00     0.019 A 
BRANCH   7  12
HETATM   12  O1  UNL     1      27.912   1.413  54.213  1.00  0.00    -0.355 OA
HETATM   13  C1  UNL     1      28.682   2.441  53.578  1.00  0.00     0.210 C 
ENDBRANCH   7  12
ENDBRANCH   1   6
BRANCH   4  14
HETATM   14  S1  UNL     1      23.680   2.588  50.563  1.00  0.00    -0.043 SA
BRANCH  14  15
HETATM   15  C10 UNL     1      24.971   3.598  49.869  1.00  0.00     0.009 A 
HETATM   16  C11 UNL     1      24.495   4.861  49.498  1.00  0.00     0.019 A 
HETATM   17  C12 UNL     1      25.367   5.795  48.932  1.00  0.00     0.001 A 
HETATM   18  C13 UNL     1      26.703   5.501  48.727  1.00  0.00     0.000 A 
HETATM   19  C14 UNL     1      27.122   4.261  49.102  1.00  0.00     0.001 A 
HETATM   20  C15 UNL     1      26.301   3.312  49.661  1.00  0.00     0.019 A 
ENDBRANCH  14  15
ENDBRANCH   4  14
TORSDOF 4
ENDMDL
MODEL 2
REMARK VINA RESULT:      -7.7      1.907      2.684
REMARK  4 active torsions:
REMARK  status: ('A' for Active; 'I' for Inactive)
REMARK    1  A    between atoms: O1_2  and  C2_3 
REMARK    2  A    between atoms: C7_8  and  C8_9 
REMARK    3  A    between atoms: C9_12  and  S1_13 
REMARK    4  A    between atoms: S1_13  and  C10_14 
ROOT
HETATM    1  C8  UNL     1      25.815  -0.080  53.303  1.00  0.00     0.206 A 
HETATM    2  N1  UNL     1      24.722  -0.638  53.848  1.00  0.00    -0.120 NA
HETATM    3  N2  UNL     1      23.730   0.184  53.555  1.00  0.00    -0.114 NA
HETATM    4  C9  UNL     1      24.173   1.236  52.845  1.00  0.00     0.236 A 
HETATM    5  O2  UNL     1      25.462   1.042  52.707  1.00  0.00    -0.263 OA
ENDROOT
BRANCH   1   6
HETATM    6  C7  UNL     1      27.175  -0.642  53.369  1.00  0.00     0.052 A 
HETATM    7  C2  UNL     1      28.236   0.050  53.901  1.00  0.00     0.082 A 
HETATM    8  C3  UNL     1      29.461  -0.585  53.906  1.00  0.00     0.038 A 
HETATM    9  C4  UNL     1      29.682  -1.857  53.416  1.00  0.00     0.003 A 
HETATM   10  C5  UNL     1      28.614  -2.558  52.880  1.00  0.00     0.001 A 
HETATM   11  C6  UNL     1      27.393  -1.922  52.875  1.00  0.00     0.019 A 
BRANCH   7  12
HETATM   12  O1  UNL     1      28.036   1.323  54.396  1.00  0.00    -0.355 OA
HETATM   13  C1  UNL     1      28.589   2.414  53.648  1.00  0.00     0.210 C 
ENDBRANCH   7  12
ENDBRANCH   1   6
BRANCH   4  14
HETATM   14  S1  UNL     1      23.356   2.666  52.157  1.00  0.00    -0.043 SA
BRANCH  14  15
HETATM   15  C10 UNL     1      22.864   2.380  50.470  1.00  0.00     0.009 A 
HETATM   16  C11 UNL     1      21.939   1.334  50.372  1.00  0.00     0.019 A 
HETATM   17  C12 UNL     1      21.436   0.964  49.122  1.00  0.00     0.001 A 
HETATM   18  C13 UNL     1      21.833   1.612  47.965  1.00  0.00     0.000 A 
HETATM   19  C14 UNL     1      22.734   2.622  48.108  1.00  0.00     0.001 A 
HETATM   20  C15 UNL     1      23.255   3.020  49.316  1.00  0.00     0.019 A 
ENDBRANCH  14  15
ENDBRANCH   4  14
TORSDOF 4
ENDMDL
MODEL 3
REMARK VINA RESULT:      -7.5      1.866      6.426
REMARK  4 active torsions:
REMARK  status: ('A' for Active; 'I' for Inactive)
REMARK    1  A    between atoms: O1_2  and  C2_3 
REMARK    2  A    between atoms: C7_8  and  C8_9 
REMARK    3  A    between atoms: C9_12  and  S1_13 
REMARK    4  A    between atoms: S1_13  and  C10_14 
ROOT
HETATM    1  C8  UNL     1      24.924   2.982  50.694  1.00  0.00     0.206 A 
HETATM    2  N1  UNL     1      23.713   2.522  50.341  1.00  0.00    -0.120 NA
HETATM    3  N2  UNL     1      23.460   1.531  51.177  1.00  0.00    -0.114 NA
HETATM    4  C9  UNL     1      24.477   1.361  52.039  1.00  0.00     0.236 A 
HETATM    5  O2  UNL     1      25.363   2.271  51.714  1.00  0.00    -0.263 OA
ENDROOT
BRANCH   1   6
HETATM    6  C7  UNL     1      25.631   4.096  50.039  1.00  0.00     0.052 A 
HETATM    7  C2  UNL     1      25.197   5.396  50.119  1.00  0.00     0.082 A 
HETATM    8  C3  UNL     1      25.947   6.351  49.462  1.00  0.00     0.038 A 
HETATM    9  C4  UNL     1      27.092   6.081  48.738  1.00  0.00     0.003 A 
HETATM   10  C5  UNL     1      27.532   4.770  48.656  1.00  0.00     0.001 A 
HETATM   11  C6  UNL     1      26.782   3.820  49.312  1.00  0.00     0.019 A 
BRANCH   7  12
HETATM   12  O1  UNL     1      24.055   5.688  50.838  1.00  0.00    -0.355 OA
HETATM   13  C1  UNL     1      23.061   6.496  50.196  1.00  0.00     0.210 C 
ENDBRANCH   7  12
ENDBRANCH   1   6
BRANCH   4  14
HETATM   14  S1  UNL     1      24.749   0.220  53.385  1.00  0.00    -0.043 SA
BRANCH  14  15
HETATM   15  C10 UNL     1      26.470  -0.213  53.528  1.00  0.00     0.009 A 
HETATM   16  C11 UNL     1      27.106   0.526  54.532  1.00  0.00     0.019 A 
HETATM   17  C12 UNL     1      28.464   0.323  54.792  1.00  0.00     0.001 A 
HETATM   18  C13 UNL     1      29.205  -0.601  54.075  1.00  0.00     0.000 A 
HETATM   19  C14 UNL     1      28.545  -1.297  53.108  1.00  0.00     0.001 A 
HETATM   20  C15 UNL     1      27.212  -1.130  52.819  1.00  0.00     0.019 A 
ENDBRANCH  14  15
ENDBRANCH   4  14
TORSDOF 4
ENDMDL
MODEL 4
REMARK VINA RESULT:      -7.4      2.390      3.039
REMARK  4 active torsions:
REMARK  status: ('A' for Active; 'I' for Inactive)
REMARK    1  A    between atoms: O1_2  and  C2_3 
REMARK    2  A    between atoms: C7_8  and  C8_9 
REMARK    3  A    between atoms: C9_12  and  S1_13 
REMARK    4  A    between atoms: S1_13  and  C10_14 
ROOT
HETATM    1  C8  UNL     1      24.465   2.956  52.515  1.00  0.00     0.206 A 
HETATM    2  N1  UNL     1      23.892   4.018  53.105  1.00  0.00    -0.120 NA
HETATM    3  N2  UNL     1      23.754   4.916  52.146  1.00  0.00    -0.114 NA
HETATM    4  C9  UNL     1      24.224   4.445  50.978  1.00  0.00     0.236 A 
HETATM    5  O2  UNL     1      24.655   3.235  51.240  1.00  0.00    -0.263 OA
ENDROOT
BRANCH   1   6
HETATM    6  C7  UNL     1      24.817   1.698  53.193  1.00  0.00     0.052 A 
HETATM    7  C2  UNL     1      25.999   1.528  53.871  1.00  0.00     0.082 A 
HETATM    8  C3  UNL     1      26.213   0.301  54.466  1.00  0.00     0.038 A 
HETATM    9  C4  UNL     1      25.321  -0.752  54.422  1.00  0.00     0.003 A 
HETATM   10  C5  UNL     1      24.127  -0.585  53.739  1.00  0.00     0.001 A 
HETATM   11  C6  UNL     1      23.917   0.640  53.146  1.00  0.00     0.019 A 
BRANCH   7  12
HETATM   12  O1  UNL     1      26.904   2.569  53.928  1.00  0.00    -0.355 OA
HETATM   13  C1  UNL     1      28.234   2.312  53.458  1.00  0.00     0.210 C 
ENDBRANCH   7  12
ENDBRANCH   1   6
BRANCH   4  14
HETATM   14  S1  UNL     1      24.326   5.148  49.340  1.00  0.00    -0.043 SA
BRANCH  14  15
HETATM   15  C10 UNL     1      26.016   5.453  48.872  1.00  0.00     0.009 A 
HETATM   16  C11 UNL     1      26.191   6.757  48.391  1.00  0.00     0.019 A 
HETATM   17  C12 UNL     1      27.455   7.182  47.974  1.00  0.00     0.001 A 
HETATM   18  C13 UNL     1      28.552   6.338  48.025  1.00  0.00     0.000 A 
HETATM   19  C14 UNL     1      28.335   5.080  48.499  1.00  0.00     0.001 A 
HETATM   20  C15 UNL     1      27.110   4.620  48.919  1.00  0.00     0.019 A 
ENDBRANCH  14  15
ENDBRANCH   4  14
TORSDOF 4
ENDMDL
MODEL 5
REMARK VINA RESULT:      -7.2      2.308      3.817
REMARK  4 active torsions:
REMARK  status: ('A' for Active; 'I' for Inactive)
REMARK    1  A    between atoms: O1_2  and  C2_3 
REMARK    2  A    between atoms: C7_8  and  C8_9 
REMARK    3  A    between atoms: C9_12  and  S1_13 
REMARK    4  A    between atoms: S1_13  and  C10_14 
ROOT
HETATM    1  C8  UNL     1      23.012   1.570  52.081  1.00  0.00     0.206 A 
HETATM    2  N1  UNL     1      22.513   1.341  50.855  1.00  0.00    -0.120 NA
HETATM    3  N2  UNL     1      22.644   2.485  50.208  1.00  0.00    -0.114 NA
HETATM    4  C9  UNL     1      23.208   3.418  50.993  1.00  0.00     0.236 A 
HETATM    5  O2  UNL     1      23.422   2.821  52.141  1.00  0.00    -0.263 OA
ENDROOT
BRANCH   1   6
HETATM    6  C7  UNL     1      23.080   0.577  53.167  1.00  0.00     0.052 A 
HETATM    7  C2  UNL     1      24.263   0.020  53.587  1.00  0.00     0.082 A 
HETATM    8  C3  UNL     1      24.195  -0.900  54.614  1.00  0.00     0.038 A 
HETATM    9  C4  UNL     1      23.025  -1.287  55.238  1.00  0.00     0.003 A 
HETATM   10  C5  UNL     1      21.830  -0.726  54.817  1.00  0.00     0.001 A 
HETATM   11  C6  UNL     1      21.901   0.190  53.791  1.00  0.00     0.019 A 
BRANCH   7  12
HETATM   12  O1  UNL     1      25.443   0.394  52.977  1.00  0.00    -0.355 OA
HETATM   13  C1  UNL     1      26.341  -0.652  52.582  1.00  0.00     0.210 C 
ENDBRANCH   7  12
ENDBRANCH   1   6
BRANCH   4  14
HETATM   14  S1  UNL     1      23.647   5.127  50.723  1.00  0.00    -0.043 SA
BRANCH  14  15
HETATM   15  C10 UNL     1      25.186   5.267  49.839  1.00  0.00     0.009 A 
HETATM   16  C11 UNL     1      25.891   4.058  49.837  1.00  0.00     0.019 A 
HETATM   17  C12 UNL     1      27.127   3.974  49.189  1.00  0.00     0.001 A 
HETATM   18  C13 UNL     1      27.678   5.067  48.543  1.00  0.00     0.000 A 
HETATM   19  C14 UNL     1      26.957   6.222  48.572  1.00  0.00     0.001 A 
HETATM   20  C15 UNL     1      25.740   6.350  49.196  1.00  0.00     0.019 A 
ENDBRANCH  14  15
ENDBRANCH   4  14
TORSDOF 4
ENDMDL
MODEL 6
REMARK VINA RESULT:      -7.2      2.952      4.227
REMARK  4 active torsions:
REMARK  status: ('A' for Active; 'I' for Inactive)
REMARK    1  A    between atoms: O1_2  and  C2_3 
REMARK    2  A    between atoms: C7_8  and  C8_9 
REMARK    3  A    between atoms: C9_12  and  S1_13 
REMARK    4  A    between atoms: S1_13  and  C10_14 
ROOT
HETATM    1  C8  UNL     1      25.749  -0.309  53.295  1.00  0.00     0.206 A 
HETATM    2  N1  UNL     1      24.759  -0.731  54.099  1.00  0.00    -0.120 NA
HETATM    3  N2  UNL     1      23.688  -0.063  53.711  1.00  0.00    -0.114 NA
HETATM    4  C9  UNL     1      23.980   0.760  52.689  1.00  0.00     0.236 A 
HETATM    5  O2  UNL     1      25.259   0.584  52.457  1.00  0.00    -0.263 OA
ENDROOT
BRANCH   1   6
HETATM    6  C7  UNL     1      27.144  -0.778  53.352  1.00  0.00     0.052 A 
HETATM    7  C2  UNL     1      28.166   0.001  53.836  1.00  0.00     0.082 A 
HETATM    8  C3  UNL     1      29.431  -0.552  53.837  1.00  0.00     0.038 A 
HETATM    9  C4  UNL     1      29.727  -1.824  53.388  1.00  0.00     0.003 A 
HETATM   10  C5  UNL     1      28.697  -2.612  52.899  1.00  0.00     0.001 A 
HETATM   11  C6  UNL     1      27.437  -2.058  52.898  1.00  0.00     0.019 A 
BRANCH   7  12
HETATM   12  O1  UNL     1      27.892   1.275  54.291  1.00  0.00    -0.355 OA
HETATM   13  C1  UNL     1      28.413   2.372  53.529  1.00  0.00     0.210 C 
ENDBRANCH   7  12
ENDBRANCH   1   6
BRANCH   4  14
HETATM   14  S1  UNL     1      22.999   1.905  51.734  1.00  0.00    -0.043 SA
BRANCH  14  15
HETATM   15  C10 UNL     1      21.374   1.252  51.413  1.00  0.00     0.009 A 
HETATM   16  C11 UNL     1      20.789   0.732  52.574  1.00  0.00     0.019 A 
HETATM   17  C12 UNL     1      19.508   0.174  52.518  1.00  0.00     0.001 A 
HETATM   18  C13 UNL     1      18.796   0.122  51.332  1.00  0.00     0.000 A 
HETATM   19  C14 UNL     1      19.405   0.639  50.229  1.00  0.00     0.001 A 
HETATM   20  C15 UNL     1      20.660   1.196  50.238  1.00  0.00     0.019 A 
ENDBRANCH  14  15
ENDBRANCH   4  14
TORSDOF 4
ENDMDL
MODEL 7
REMARK VINA RESULT:      -7.1      1.619      2.651
REMARK  4 active torsions:
REMARK  status: ('A' for Active; 'I' for Inactive)
REMARK    1  A    between atoms: O1_2  and  C2_3 
REMARK    2  A    between atoms: C7_8  and  C8_9 
REMARK    3  A    between atoms: C9_12  and  S1_13 
REMARK    4  A    between atoms: S1_13  and  C10_14 
ROOT
HETATM    1  C8  UNL     1      26.144   2.050  52.576  1.00  0.00     0.206 A 
HETATM    2  N1  UNL     1      25.194   2.593  53.356  1.00  0.00    -0.120 NA
HETATM    3  N2  UNL     1      24.480   3.359  52.551  1.00  0.00    -0.114 NA
HETATM    4  C9  UNL     1      24.956   3.309  51.295  1.00  0.00     0.236 A 
HETATM    5  O2  UNL     1      25.981   2.493  51.345  1.00  0.00    -0.263 OA
ENDROOT
BRANCH   1   6
HETATM    6  C7  UNL     1      27.186   1.117  53.037  1.00  0.00     0.052 A 
HETATM    7  C2  UNL     1      26.966  -0.232  53.168  1.00  0.00     0.082 A 
HETATM    8  C3  UNL     1      28.024  -1.002  53.609  1.00  0.00     0.038 A 
HETATM    9  C4  UNL     1      29.273  -0.504  53.921  1.00  0.00     0.003 A 
HETATM   10  C5  UNL     1      29.499   0.857  53.790  1.00  0.00     0.001 A 
HETATM   11  C6  UNL     1      28.442   1.623  53.351  1.00  0.00     0.019 A 
BRANCH   7  12
HETATM   12  O1  UNL     1      25.724  -0.750  52.860  1.00  0.00    -0.355 OA
HETATM   13  C1  UNL     1      24.776  -0.865  53.928  1.00  0.00     0.210 C 
ENDBRANCH   7  12
ENDBRANCH   1   6
BRANCH   4  14
HETATM   14  S1  UNL     1      24.450   4.094  49.774  1.00  0.00    -0.043 SA
BRANCH  14  15
HETATM   15  C10 UNL     1      25.747   5.118  49.113  1.00  0.00     0.009 A 
HETATM   16  C11 UNL     1      26.962   4.428  49.039  1.00  0.00     0.019 A 
HETATM   17  C12 UNL     1      28.100   5.071  48.543  1.00  0.00     0.001 A 
HETATM   18  C13 UNL     1      28.055   6.387  48.118  1.00  0.00     0.000 A 
HETATM   19  C14 UNL     1      26.853   7.020  48.208  1.00  0.00     0.001 A 
HETATM   20  C15 UNL     1      25.710   6.427  48.689  1.00  0.00     0.019 A 
ENDBRANCH  14  15
ENDBRANCH   4  14
TORSDOF 4
ENDMDL
MODEL 8
REMARK VINA RESULT:      -7.0      2.721      6.583
REMARK  4 active torsions:
REMARK  status: ('A' for Active; 'I' for Inactive)
REMARK    1  A    between atoms: O1_2  and  C2_3 
REMARK    2  A    between atoms: C7_8  and  C8_9 
REMARK    3  A    between atoms: C9_12  and  S1_13 
REMARK    4  A    between atoms: S1_13  and  C10_14 
ROOT
HETATM    1  C8  UNL     1      26.291   2.656  51.260  1.00  0.00     0.206 A 
HETATM    2  N1  UNL     1      27.462   2.410  51.869  1.00  0.00    -0.120 NA
HETATM    3  N2  UNL     1      27.266   1.305  52.566  1.00  0.00    -0.114 NA
HETATM    4  C9  UNL     1      26.008   0.856  52.408  1.00  0.00     0.236 A 
HETATM    5  O2  UNL     1      25.435   1.712  51.597  1.00  0.00    -0.263 OA
ENDROOT
BRANCH   1   6
HETATM    6  C7  UNL     1      26.025   3.796  50.367  1.00  0.00     0.052 A 
HETATM    7  C2  UNL     1      24.821   4.457  50.350  1.00  0.00     0.082 A 
HETATM    8  C3  UNL     1      24.695   5.511  49.467  1.00  0.00     0.038 A 
HETATM    9  C4  UNL     1      25.693   5.936  48.612  1.00  0.00     0.003 A 
HETATM   10  C5  UNL     1      26.908   5.271  48.627  1.00  0.00     0.001 A 
HETATM   11  C6  UNL     1      27.031   4.220  49.508  1.00  0.00     0.019 A 
BRANCH   7  12
HETATM   12  O1  UNL     1      23.810   4.049  51.197  1.00  0.00    -0.355 OA
HETATM   13  C1  UNL     1      23.447   4.935  52.263  1.00  0.00     0.210 C 
ENDBRANCH   7  12
ENDBRANCH   1   6
BRANCH   4  14
HETATM   14  S1  UNL     1      25.133  -0.555  53.063  1.00  0.00    -0.043 SA
BRANCH  14  15
HETATM   15  C10 UNL     1      23.430  -0.159  53.400  1.00  0.00     0.009 A 
HETATM   16  C11 UNL     1      22.919  -0.932  54.449  1.00  0.00     0.019 A 
HETATM   17  C12 UNL     1      21.593  -0.762  54.858  1.00  0.00     0.001 A 
HETATM   18  C13 UNL     1      20.764   0.161  54.246  1.00  0.00     0.000 A 
HETATM   19  C14 UNL     1      21.303   0.890  53.230  1.00  0.00     0.001 A 
HETATM   20  C15 UNL     1      22.599   0.756  52.796  1.00  0.00     0.019 A 
ENDBRANCH  14  15
ENDBRANCH   4  14
TORSDOF 4
ENDMDL
MODEL 9
REMARK VINA RESULT:      -7.0      3.208      6.401
REMARK  4 active torsions:
REMARK  status: ('A' for Active; 'I' for Inactive)
REMARK    1  A    between atoms: O1_2  and  C2_3 
REMARK    2  A    between atoms: C7_8  and  C8_9 
REMARK    3  A    between atoms: C9_12  and  S1_13 
REMARK    4  A    between atoms: S1_13  and  C10_14 
ROOT
HETATM    1  C8  UNL     1      22.448   2.004  52.047  1.00  0.00     0.206 A 
HETATM    2  N1  UNL     1      22.500   3.312  52.349  1.00  0.00    -0.120 NA
HETATM    3  N2  UNL     1      23.742   3.680  52.087  1.00  0.00    -0.114 NA
HETATM    4  C9  UNL     1      24.463   2.641  51.632  1.00  0.00     0.236 A 
HETATM    5  O2  UNL     1      23.636   1.624  51.620  1.00  0.00    -0.263 OA
ENDROOT
BRANCH   1   6
HETATM    6  C7  UNL     1      21.255   1.152  52.179  1.00  0.00     0.052 A 
HETATM    7  C2  UNL     1      21.059   0.313  53.248  1.00  0.00     0.082 A 
HETATM    8  C3  UNL     1      19.899  -0.436  53.256  1.00  0.00     0.038 A 
HETATM    9  C4  UNL     1      18.937  -0.392  52.267  1.00  0.00     0.003 A 
HETATM   10  C5  UNL     1      19.131   0.453  51.186  1.00  0.00     0.001 A 
HETATM   11  C6  UNL     1      20.289   1.198  51.181  1.00  0.00     0.019 A 
BRANCH   7  12
HETATM   12  O1  UNL     1      22.008   0.256  54.249  1.00  0.00    -0.355 OA
HETATM   13  C1  UNL     1      22.191  -1.002  54.911  1.00  0.00     0.210 C 
ENDBRANCH   7  12
ENDBRANCH   1   6
BRANCH   4  14
HETATM   14  S1  UNL     1      26.163   2.480  51.112  1.00  0.00    -0.043 SA
BRANCH  14  15
HETATM   15  C10 UNL     1      27.121   1.569  52.305  1.00  0.00     0.009 A 
HETATM   16  C11 UNL     1      26.865   0.195  52.231  1.00  0.00     0.019 A 
HETATM   17  C12 UNL     1      27.526  -0.685  53.093  1.00  0.00     0.001 A 
HETATM   18  C13 UNL     1      28.438  -0.227  54.027  1.00  0.00     0.000 A 
HETATM   19  C14 UNL     1      28.656   1.117  54.064  1.00  0.00     0.001 A 
HETATM   20  C15 UNL     1      28.028   2.017  53.237  1.00  0.00     0.019 A 
ENDBRANCH  14  15
ENDBRANCH   4  14
TORSDOF 4
ENDMDL
