MODEL 1
REMARK VINA RESULT:      -7.2      0.000      0.000
REMARK  10 active torsions:
REMARK  status: ('A' for Active; 'I' for Inactive)
REMARK    1  A    between atoms: C2_2  and  C3_3 
REMARK    2  A    between atoms: C3_3  and  C4_4 
REMARK    3  A    between atoms: C4_4  and  C5_5 
REMARK    4  A    between atoms: C5_5  and  C6_6 
REMARK    5  A    between atoms: C6_6  and  O1_7 
REMARK    6  A    between atoms: O1_7  and  C7_8 
REMARK    7  A    between atoms: C11_13  and  C12_14 
REMARK    8  A    between atoms: C12_14  and  N2_15 
REMARK    9  A    between atoms: N2_15  and  C13_16 
REMARK   10  A    between atoms: C20_27  and  O2_28 
ROOT
HETATM    1  C7  UNL     1      21.991   3.785  49.652  1.00  0.00     0.132 C 
HETATM    2  C8  UNL     1      21.566   3.814  50.889  1.00  0.00     0.122 C 
HETATM    3  N1  UNL     1      22.148   3.135  51.790  1.00  0.00    -0.241 NA
HETATM    4  C9  UNL     1      22.338   1.727  51.533  1.00  0.00     0.208 A 
HETATM    5  C10 UNL     1      23.471   1.152  52.251  1.00  0.00     0.067 A 
HETATM    6  C11 UNL     1      23.069   0.146  53.049  1.00  0.00     0.075 A 
HETATM    7  N3  UNL     1      21.676   0.083  52.836  1.00  0.00    -0.155 NA
HETATM    8  N4  UNL     1      21.239   0.928  52.017  1.00  0.00    -0.149 NA
HETATM    9  C19 UNL     1      22.453   1.520  50.051  1.00  0.00     0.075 C 
HETATM   10  C20 UNL     1      22.297   2.464  49.141  1.00  0.00     0.102 C 
ENDROOT
BRANCH   6  11
HETATM   11  C12 UNL     1      24.074  -0.564  53.860  1.00  0.00     0.180 C 
BRANCH  11  12
HETATM   12  N2  UNL     1      25.192  -0.917  53.016  1.00  0.00    -0.384 N 
HETATM   13  H17 UNL     1      24.902  -1.467  52.151  1.00  0.00     0.160 HD
BRANCH  12  14
HETATM   14  C13 UNL     1      26.577  -0.657  53.149  1.00  0.00     0.030 A 
HETATM   15  C14 UNL     1      27.513  -1.690  53.054  1.00  0.00     0.032 A 
HETATM   16  C15 UNL     1      28.852  -1.417  53.202  1.00  0.00     0.046 A 
HETATM   17  C16 UNL     1      29.332  -0.148  53.442  1.00  0.00     0.138 A 
HETATM   18  F1  UNL     1      30.665   0.039  53.575  1.00  0.00    -0.204 F 
HETATM   19  C17 UNL     1      28.426   0.907  53.543  1.00  0.00     0.074 A 
HETATM   20 CL1  UNL     1      29.001   2.530  53.849  1.00  0.00    -0.081 Cl
HETATM   21  C18 UNL     1      27.097   0.592  53.391  1.00  0.00     0.056 A 
ENDBRANCH  12  14
ENDBRANCH  11  12
ENDBRANCH   6  11
BRANCH  10  22
HETATM   22  O2  UNL     1      22.410   2.235  47.788  1.00  0.00    -0.358 OA
HETATM   23  H22 UNL     1      22.184   1.293  47.467  1.00  0.00     0.217 HD
ENDBRANCH  10  22
BRANCH   1  24
HETATM   24  O1  UNL     1      22.138   4.916  48.894  1.00  0.00    -0.346 OA
BRANCH  24  25
HETATM   25  C6  UNL     1      23.049   5.932  49.256  1.00  0.00     0.176 C 
BRANCH  25  26
HETATM   26  C5  UNL     1      24.290   5.685  48.389  1.00  0.00     0.027 C 
BRANCH  26  27
HETATM   27  C4  UNL     1      25.524   6.006  49.188  1.00  0.00     0.002 C 
BRANCH  27  28
HETATM   28  C3  UNL     1      26.528   4.873  49.113  1.00  0.00    -0.000 C 
BRANCH  28  29
HETATM   29  C2  UNL     1      25.888   3.538  49.459  1.00  0.00    -0.005 C 
HETATM   30  C1  UNL     1      26.479   2.933  50.694  1.00  0.00     0.005 C 
ENDBRANCH  28  29
ENDBRANCH  27  28
ENDBRANCH  26  27
ENDBRANCH  25  26
ENDBRANCH  24  25
ENDBRANCH   1  24
TORSDOF 10
ENDMDL
MODEL 2
REMARK VINA RESULT:      -7.1      4.153      7.193
REMARK  10 active torsions:
REMARK  status: ('A' for Active; 'I' for Inactive)
REMARK    1  A    between atoms: C2_2  and  C3_3 
REMARK    2  A    between atoms: C3_3  and  C4_4 
REMARK    3  A    between atoms: C4_4  and  C5_5 
REMARK    4  A    between atoms: C5_5  and  C6_6 
REMARK    5  A    between atoms: C6_6  and  O1_7 
REMARK    6  A    between atoms: O1_7  and  C7_8 
REMARK    7  A    between atoms: C11_13  and  C12_14 
REMARK    8  A    between atoms: C12_14  and  N2_15 
REMARK    9  A    between atoms: N2_15  and  C13_16 
REMARK   10  A    between atoms: C20_27  and  O2_28 
ROOT
HETATM    1  C7  UNL     1      26.485   2.288  52.114  1.00  0.00     0.132 C 
HETATM    2  C8  UNL     1      25.476   2.066  52.917  1.00  0.00     0.122 C 
HETATM    3  N1  UNL     1      24.349   1.704  52.456  1.00  0.00    -0.241 NA
HETATM    4  C9  UNL     1      23.775   2.520  51.411  1.00  0.00     0.208 A 
HETATM    5  C10 UNL     1      22.858   1.789  50.543  1.00  0.00     0.067 A 
HETATM    6  C11 UNL     1      21.633   2.348  50.564  1.00  0.00     0.075 A 
HETATM    7  N3  UNL     1      21.775   3.436  51.452  1.00  0.00    -0.155 NA
HETATM    8  N4  UNL     1      22.926   3.563  51.934  1.00  0.00    -0.149 NA
HETATM    9  C19 UNL     1      24.887   3.162  50.636  1.00  0.00     0.075 C 
HETATM   10  C20 UNL     1      26.169   3.073  50.937  1.00  0.00     0.102 C 
ENDROOT
BRANCH   6  11
HETATM   11  C12 UNL     1      20.564   1.749  49.746  1.00  0.00     0.180 C 
BRANCH  11  12
HETATM   12  N2  UNL     1      19.394   1.556  50.572  1.00  0.00    -0.384 N 
HETATM   13  H17 UNL     1      18.672   2.331  50.457  1.00  0.00     0.160 HD
BRANCH  12  14
HETATM   14  C13 UNL     1      19.060   0.528  51.487  1.00  0.00     0.030 A 
HETATM   15  C14 UNL     1      17.780  -0.033  51.497  1.00  0.00     0.032 A 
HETATM   16  C15 UNL     1      17.473  -1.019  52.404  1.00  0.00     0.046 A 
HETATM   17  C16 UNL     1      18.381  -1.495  53.325  1.00  0.00     0.138 A 
HETATM   18  F1  UNL     1      18.001  -2.467  54.184  1.00  0.00    -0.204 F 
HETATM   19  C17 UNL     1      19.667  -0.956  53.342  1.00  0.00     0.074 A 
HETATM   20 CL1  UNL     1      20.844  -1.537  54.498  1.00  0.00    -0.081 Cl
HETATM   21  C18 UNL     1      19.934   0.027  52.420  1.00  0.00     0.056 A 
ENDBRANCH  12  14
ENDBRANCH  11  12
ENDBRANCH   6  11
BRANCH  10  22
HETATM   22  O2  UNL     1      27.162   3.678  50.200  1.00  0.00    -0.358 OA
HETATM   23  H22 UNL     1      26.863   4.190  49.370  1.00  0.00     0.217 HD
ENDBRANCH  10  22
BRANCH   1  24
HETATM   24  O1  UNL     1      27.746   1.816  52.363  1.00  0.00    -0.346 OA
BRANCH  24  25
HETATM   25  C6  UNL     1      28.545   2.359  53.393  1.00  0.00     0.176 C 
BRANCH  25  26
HETATM   26  C5  UNL     1      29.033   1.149  54.201  1.00  0.00     0.027 C 
BRANCH  26  27
HETATM   27  C4  UNL     1      28.482  -0.109  53.587  1.00  0.00     0.002 C 
BRANCH  27  28
HETATM   28  C3  UNL     1      29.539  -1.195  53.535  1.00  0.00    -0.000 C 
BRANCH  28  29
HETATM   29  C2  UNL     1      28.958  -2.515  53.055  1.00  0.00    -0.005 C 
HETATM   30  C1  UNL     1      27.507  -2.398  52.706  1.00  0.00     0.005 C 
ENDBRANCH  28  29
ENDBRANCH  27  28
ENDBRANCH  26  27
ENDBRANCH  25  26
ENDBRANCH  24  25
ENDBRANCH   1  24
TORSDOF 10
ENDMDL
MODEL 3
REMARK VINA RESULT:      -7.0      2.593      4.785
REMARK  10 active torsions:
REMARK  status: ('A' for Active; 'I' for Inactive)
REMARK    1  A    between atoms: C2_2  and  C3_3 
REMARK    2  A    between atoms: C3_3  and  C4_4 
REMARK    3  A    between atoms: C4_4  and  C5_5 
REMARK    4  A    between atoms: C5_5  and  C6_6 
REMARK    5  A    between atoms: C6_6  and  O1_7 
REMARK    6  A    between atoms: O1_7  and  C7_8 
REMARK    7  A    between atoms: C11_13  and  C12_14 
REMARK    8  A    between atoms: C12_14  and  N2_15 
REMARK    9  A    between atoms: N2_15  and  C13_16 
REMARK   10  A    between atoms: C20_27  and  O2_28 
ROOT
HETATM    1  C7  UNL     1      19.979   2.924  50.331  1.00  0.00     0.132 C 
HETATM    2  C8  UNL     1      20.550   3.162  49.178  1.00  0.00     0.122 C 
HETATM    3  N1  UNL     1      21.797   2.982  49.023  1.00  0.00    -0.241 NA
HETATM    4  C9  UNL     1      22.677   3.624  49.972  1.00  0.00     0.208 A 
HETATM    5  C10 UNL     1      23.959   2.945  50.128  1.00  0.00     0.067 A 
HETATM    6  C11 UNL     1      24.976   3.772  49.823  1.00  0.00     0.075 A 
HETATM    7  N3  UNL     1      24.336   4.979  49.472  1.00  0.00    -0.155 NA
HETATM    8  N4  UNL     1      23.083   4.939  49.540  1.00  0.00    -0.149 NA
HETATM    9  C19 UNL     1      21.955   3.762  51.280  1.00  0.00     0.075 C 
HETATM   10  C20 UNL     1      20.690   3.442  51.484  1.00  0.00     0.102 C 
ENDROOT
BRANCH   6  11
HETATM   11  C12 UNL     1      26.357   3.266  49.920  1.00  0.00     0.180 C 
BRANCH  11  12
HETATM   12  N2  UNL     1      26.741   3.217  51.312  1.00  0.00    -0.384 N 
HETATM   13  H17 UNL     1      26.638   4.156  51.804  1.00  0.00     0.160 HD
BRANCH  12  14
HETATM   14  C13 UNL     1      27.221   2.149  52.108  1.00  0.00     0.030 A 
HETATM   15  C14 UNL     1      28.162   2.374  53.117  1.00  0.00     0.032 A 
HETATM   16  C15 UNL     1      28.626   1.320  53.868  1.00  0.00     0.046 A 
HETATM   17  C16 UNL     1      28.200   0.024  53.675  1.00  0.00     0.138 A 
HETATM   18  F1  UNL     1      28.704  -0.958  54.456  1.00  0.00    -0.204 F 
HETATM   19  C17 UNL     1      27.262  -0.236  52.677  1.00  0.00     0.074 A 
HETATM   20 CL1  UNL     1      26.702  -1.871  52.406  1.00  0.00    -0.081 Cl
HETATM   21  C18 UNL     1      26.825   0.844  51.948  1.00  0.00     0.056 A 
ENDBRANCH  12  14
ENDBRANCH  11  12
ENDBRANCH   6  11
BRANCH  10  22
HETATM   22  O2  UNL     1      20.061   3.582  52.701  1.00  0.00    -0.358 OA
HETATM   23  H22 UNL     1      19.050   3.446  52.707  1.00  0.00     0.217 HD
ENDBRANCH  10  22
BRANCH   1  24
HETATM   24  O1  UNL     1      18.800   2.237  50.446  1.00  0.00    -0.346 OA
BRANCH  24  25
HETATM   25  C6  UNL     1      18.746   0.835  50.281  1.00  0.00     0.176 C 
BRANCH  25  26
HETATM   26  C5  UNL     1      19.992   0.299  50.997  1.00  0.00     0.027 C 
BRANCH  26  27
HETATM   27  C4  UNL     1      19.645  -0.006  52.429  1.00  0.00     0.002 C 
BRANCH  27  28
HETATM   28  C3  UNL     1      20.866   0.116  53.320  1.00  0.00    -0.000 C 
BRANCH  28  29
HETATM   29  C2  UNL     1      22.147   0.169  52.505  1.00  0.00    -0.005 C 
HETATM   30  C1  UNL     1      23.342  -0.244  53.307  1.00  0.00     0.005 C 
ENDBRANCH  28  29
ENDBRANCH  27  28
ENDBRANCH  26  27
ENDBRANCH  25  26
ENDBRANCH  24  25
ENDBRANCH   1  24
TORSDOF 10
ENDMDL
MODEL 4
REMARK VINA RESULT:      -7.0      2.783      4.918
REMARK  10 active torsions:
REMARK  status: ('A' for Active; 'I' for Inactive)
REMARK    1  A    between atoms: C2_2  and  C3_3 
REMARK    2  A    between atoms: C3_3  and  C4_4 
REMARK    3  A    between atoms: C4_4  and  C5_5 
REMARK    4  A    between atoms: C5_5  and  C6_6 
REMARK    5  A    between atoms: C6_6  and  O1_7 
REMARK    6  A    between atoms: O1_7  and  C7_8 
REMARK    7  A    between atoms: C11_13  and  C12_14 
REMARK    8  A    between atoms: C12_14  and  N2_15 
REMARK    9  A    between atoms: N2_15  and  C13_16 
REMARK   10  A    between atoms: C20_27  and  O2_28 
ROOT
HETATM    1  C7  UNL     1      19.684   1.878  50.763  1.00  0.00     0.132 C 
HETATM    2  C8  UNL     1      20.770   1.544  50.114  1.00  0.00     0.122 C 
HETATM    3  N1  UNL     1      21.881   1.442  50.719  1.00  0.00    -0.241 NA
HETATM    4  C9  UNL     1      22.301   2.571  51.517  1.00  0.00     0.208 A 
HETATM    5  C10 UNL     1      23.201   2.210  52.607  1.00  0.00     0.067 A 
HETATM    6  C11 UNL     1      24.374   2.861  52.493  1.00  0.00     0.075 A 
HETATM    7  N3  UNL     1      24.216   3.637  51.325  1.00  0.00    -0.155 NA
HETATM    8  N4  UNL     1      23.101   3.507  50.764  1.00  0.00    -0.149 NA
HETATM    9  C19 UNL     1      21.081   3.289  52.014  1.00  0.00     0.075 C 
HETATM   10  C20 UNL     1      19.839   2.989  51.682  1.00  0.00     0.102 C 
ENDROOT
BRANCH   6  11
HETATM   11  C12 UNL     1      25.419   2.627  53.505  1.00  0.00     0.180 C 
BRANCH  11  12
HETATM   12  N2  UNL     1      25.425   1.226  53.857  1.00  0.00    -0.384 N 
HETATM   13  H17 UNL     1      24.592   0.946  54.460  1.00  0.00     0.160 HD
BRANCH  12  14
HETATM   14  C13 UNL     1      26.335   0.190  53.539  1.00  0.00     0.030 A 
HETATM   15  C14 UNL     1      25.889  -1.005  52.966  1.00  0.00     0.032 A 
HETATM   16  C15 UNL     1      26.788  -2.004  52.679  1.00  0.00     0.046 A 
HETATM   17  C16 UNL     1      28.137  -1.888  52.931  1.00  0.00     0.138 A 
HETATM   18  F1  UNL     1      28.957  -2.916  52.620  1.00  0.00    -0.204 F 
HETATM   19  C17 UNL     1      28.617  -0.709  53.503  1.00  0.00     0.074 A 
HETATM   20 CL1  UNL     1      30.324  -0.529  53.837  1.00  0.00    -0.081 Cl
HETATM   21  C18 UNL     1      27.686   0.264  53.775  1.00  0.00     0.056 A 
ENDBRANCH  12  14
ENDBRANCH  11  12
ENDBRANCH   6  11
BRANCH  10  22
HETATM   22  O2  UNL     1      18.743   3.672  52.160  1.00  0.00    -0.358 OA
HETATM   23  H22 UNL     1      18.791   4.691  52.121  1.00  0.00     0.217 HD
ENDBRANCH  10  22
BRANCH   1  24
HETATM   24  O1  UNL     1      18.490   1.230  50.592  1.00  0.00    -0.346 OA
BRANCH  24  25
HETATM   25  C6  UNL     1      18.325  -0.120  50.971  1.00  0.00     0.176 C 
BRANCH  25  26
HETATM   26  C5  UNL     1      17.909  -0.074  52.447  1.00  0.00     0.027 C 
BRANCH  26  27
HETATM   27  C4  UNL     1      18.762  -1.033  53.231  1.00  0.00     0.002 C 
BRANCH  27  28
HETATM   28  C3  UNL     1      20.174  -0.505  53.382  1.00  0.00    -0.000 C 
BRANCH  28  29
HETATM   29  C2  UNL     1      21.010  -1.398  54.285  1.00  0.00    -0.005 C 
HETATM   30  C1  UNL     1      22.401  -0.874  54.463  1.00  0.00     0.005 C 
ENDBRANCH  28  29
ENDBRANCH  27  28
ENDBRANCH  26  27
ENDBRANCH  25  26
ENDBRANCH  24  25
ENDBRANCH   1  24
TORSDOF 10
ENDMDL
MODEL 5
REMARK VINA RESULT:      -6.8      1.770      2.333
REMARK  10 active torsions:
REMARK  status: ('A' for Active; 'I' for Inactive)
REMARK    1  A    between atoms: C2_2  and  C3_3 
REMARK    2  A    between atoms: C3_3  and  C4_4 
REMARK    3  A    between atoms: C4_4  and  C5_5 
REMARK    4  A    between atoms: C5_5  and  C6_6 
REMARK    5  A    between atoms: C6_6  and  O1_7 
REMARK    6  A    between atoms: O1_7  and  C7_8 
REMARK    7  A    between atoms: C11_13  and  C12_14 
REMARK    8  A    between atoms: C12_14  and  N2_15 
REMARK    9  A    between atoms: N2_15  and  C13_16 
REMARK   10  A    between atoms: C20_27  and  O2_28 
ROOT
HETATM    1  C7  UNL     1      19.857   2.783  50.630  1.00  0.00     0.132 C 
HETATM    2  C8  UNL     1      19.672   2.736  51.925  1.00  0.00     0.122 C 
HETATM    3  N1  UNL     1      20.553   2.233  52.688  1.00  0.00    -0.241 NA
HETATM    4  C9  UNL     1      21.020   0.904  52.366  1.00  0.00     0.208 A 
HETATM    5  C10 UNL     1      22.368   0.628  52.851  1.00  0.00     0.067 A 
HETATM    6  C11 UNL     1      22.368  -0.429  53.685  1.00  0.00     0.075 A 
HETATM    7  N3  UNL     1      21.014  -0.823  53.730  1.00  0.00    -0.155 NA
HETATM    8  N4  UNL     1      20.248  -0.122  53.025  1.00  0.00    -0.149 NA
HETATM    9  C19 UNL     1      20.906   0.699  50.884  1.00  0.00     0.075 C 
HETATM   10  C20 UNL     1      20.367   1.560  50.041  1.00  0.00     0.102 C 
ENDROOT
BRANCH   6  11
HETATM   11  C12 UNL     1      23.644  -0.864  54.281  1.00  0.00     0.180 C 
BRANCH  11  12
HETATM   12  N2  UNL     1      24.713  -0.599  53.346  1.00  0.00    -0.384 N 
HETATM   13  H17 UNL     1      24.604  -1.131  52.430  1.00  0.00     0.160 HD
BRANCH  12  14
HETATM   14  C13 UNL     1      25.853   0.234  53.447  1.00  0.00     0.030 A 
HETATM   15  C14 UNL     1      25.719   1.622  53.551  1.00  0.00     0.032 A 
HETATM   16  C15 UNL     1      26.840   2.413  53.632  1.00  0.00     0.046 A 
HETATM   17  C16 UNL     1      28.119   1.899  53.616  1.00  0.00     0.138 A 
HETATM   18  F1  UNL     1      29.170   2.744  53.700  1.00  0.00    -0.204 F 
HETATM   19  C17 UNL     1      28.288   0.518  53.512  1.00  0.00     0.074 A 
HETATM   20 CL1  UNL     1      29.897  -0.167  53.489  1.00  0.00    -0.081 Cl
HETATM   21  C18 UNL     1      27.143  -0.237  53.433  1.00  0.00     0.056 A 
ENDBRANCH  12  14
ENDBRANCH  11  12
ENDBRANCH   6  11
BRANCH  10  22
HETATM   22  O2  UNL     1      20.281   1.337  48.685  1.00  0.00    -0.358 OA
HETATM   23  H22 UNL     1      19.465   1.728  48.212  1.00  0.00     0.217 HD
ENDBRANCH  10  22
BRANCH   1  24
HETATM   24  O1  UNL     1      19.592   3.900  49.885  1.00  0.00    -0.346 OA
BRANCH  24  25
HETATM   25  C6  UNL     1      20.364   5.075  50.019  1.00  0.00     0.176 C 
BRANCH  25  26
HETATM   26  C5  UNL     1      21.717   4.740  49.379  1.00  0.00     0.027 C 
BRANCH  26  27
HETATM   27  C4  UNL     1      22.780   4.738  50.444  1.00  0.00     0.002 C 
BRANCH  27  28
HETATM   28  C3  UNL     1      23.656   3.506  50.333  1.00  0.00    -0.000 C 
BRANCH  28  29
HETATM   29  C2  UNL     1      24.910   3.785  49.521  1.00  0.00    -0.005 C 
HETATM   30  C1  UNL     1      26.112   3.091  50.083  1.00  0.00     0.005 C 
ENDBRANCH  28  29
ENDBRANCH  27  28
ENDBRANCH  26  27
ENDBRANCH  25  26
ENDBRANCH  24  25
ENDBRANCH   1  24
TORSDOF 10
ENDMDL
MODEL 6
REMARK VINA RESULT:      -6.8      2.929      3.910
REMARK  10 active torsions:
REMARK  status: ('A' for Active; 'I' for Inactive)
REMARK    1  A    between atoms: C2_2  and  C3_3 
REMARK    2  A    between atoms: C3_3  and  C4_4 
REMARK    3  A    between atoms: C4_4  and  C5_5 
REMARK    4  A    between atoms: C5_5  and  C6_6 
REMARK    5  A    between atoms: C6_6  and  O1_7 
REMARK    6  A    between atoms: O1_7  and  C7_8 
REMARK    7  A    between atoms: C11_13  and  C12_14 
REMARK    8  A    between atoms: C12_14  and  N2_15 
REMARK    9  A    between atoms: N2_15  and  C13_16 
REMARK   10  A    between atoms: C20_27  and  O2_28 
ROOT
HETATM    1  C7  UNL     1      26.028   6.054  49.351  1.00  0.00     0.132 C 
HETATM    2  C8  UNL     1      24.724   5.999  49.443  1.00  0.00     0.122 C 
HETATM    3  N1  UNL     1      24.164   5.183  50.237  1.00  0.00    -0.241 NA
HETATM    4  C9  UNL     1      24.552   3.795  50.133  1.00  0.00     0.208 A 
HETATM    5  C10 UNL     1      24.371   3.047  51.373  1.00  0.00     0.067 A 
HETATM    6  C11 UNL     1      23.535   2.008  51.186  1.00  0.00     0.075 A 
HETATM    7  N3  UNL     1      23.184   2.100  49.822  1.00  0.00    -0.155 NA
HETATM    8  N4  UNL     1      23.717   3.060  49.214  1.00  0.00    -0.149 NA
HETATM    9  C19 UNL     1      25.967   3.726  49.641  1.00  0.00     0.075 C 
HETATM   10  C20 UNL     1      26.689   4.766  49.267  1.00  0.00     0.102 C 
ENDROOT
BRANCH   6  11
HETATM   11  C12 UNL     1      23.225   1.129  52.328  1.00  0.00     0.180 C 
BRANCH  11  12
HETATM   12  N2  UNL     1      24.308   1.202  53.281  1.00  0.00    -0.384 N 
HETATM   13  H17 UNL     1      24.077   1.809  54.125  1.00  0.00     0.160 HD
BRANCH  12  14
HETATM   14  C13 UNL     1      25.594   0.611  53.277  1.00  0.00     0.030 A 
HETATM   15  C14 UNL     1      25.791  -0.674  52.763  1.00  0.00     0.032 A 
HETATM   16  C15 UNL     1      27.045  -1.235  52.782  1.00  0.00     0.046 A 
HETATM   17  C16 UNL     1      28.146  -0.582  53.293  1.00  0.00     0.138 A 
HETATM   18  F1  UNL     1      29.347  -1.202  53.275  1.00  0.00    -0.204 F 
HETATM   19  C17 UNL     1      27.986   0.702  53.814  1.00  0.00     0.074 A 
HETATM   20 CL1  UNL     1      29.362   1.558  54.470  1.00  0.00    -0.081 Cl
HETATM   21  C18 UNL     1      26.716   1.226  53.777  1.00  0.00     0.056 A 
ENDBRANCH  12  14
ENDBRANCH  11  12
ENDBRANCH   6  11
BRANCH  10  22
HETATM   22  O2  UNL     1      27.987   4.664  48.820  1.00  0.00    -0.358 OA
HETATM   23  H22 UNL     1      28.225   5.205  47.988  1.00  0.00     0.217 HD
ENDBRANCH  10  22
BRANCH   1  24
HETATM   24  O1  UNL     1      26.720   7.235  49.336  1.00  0.00    -0.346 OA
BRANCH  24  25
HETATM   25  C6  UNL     1      26.283   8.354  50.079  1.00  0.00     0.176 C 
BRANCH  25  26
HETATM   26  C5  UNL     1      27.512   9.265  50.190  1.00  0.00     0.027 C 
BRANCH  26  27
HETATM   27  C4  UNL     1      28.492   8.908  49.106  1.00  0.00     0.002 C 
BRANCH  27  28
HETATM   28  C3  UNL     1      29.829   9.584  49.339  1.00  0.00    -0.000 C 
BRANCH  28  29
HETATM   29  C2  UNL     1      30.973   8.585  49.290  1.00  0.00    -0.005 C 
HETATM   30  C1  UNL     1      30.598   7.334  48.559  1.00  0.00     0.005 C 
ENDBRANCH  28  29
ENDBRANCH  27  28
ENDBRANCH  26  27
ENDBRANCH  25  26
ENDBRANCH  24  25
ENDBRANCH   1  24
TORSDOF 10
ENDMDL
MODEL 7
REMARK VINA RESULT:      -6.6      3.658      4.819
REMARK  10 active torsions:
REMARK  status: ('A' for Active; 'I' for Inactive)
REMARK    1  A    between atoms: C2_2  and  C3_3 
REMARK    2  A    between atoms: C3_3  and  C4_4 
REMARK    3  A    between atoms: C4_4  and  C5_5 
REMARK    4  A    between atoms: C5_5  and  C6_6 
REMARK    5  A    between atoms: C6_6  and  O1_7 
REMARK    6  A    between atoms: O1_7  and  C7_8 
REMARK    7  A    between atoms: C11_13  and  C12_14 
REMARK    8  A    between atoms: C12_14  and  N2_15 
REMARK    9  A    between atoms: N2_15  and  C13_16 
REMARK   10  A    between atoms: C20_27  and  O2_28 
ROOT
HETATM    1  C7  UNL     1      26.448   6.150  48.627  1.00  0.00     0.132 C 
HETATM    2  C8  UNL     1      25.145   6.134  48.744  1.00  0.00     0.122 C 
HETATM    3  N1  UNL     1      24.589   5.543  49.720  1.00  0.00    -0.241 NA
HETATM    4  C9  UNL     1      24.964   4.168  49.955  1.00  0.00     0.208 A 
HETATM    5  C10 UNL     1      24.794   3.748  51.342  1.00  0.00     0.067 A 
HETATM    6  C11 UNL     1      23.947   2.705  51.424  1.00  0.00     0.075 A 
HETATM    7  N3  UNL     1      23.578   2.464  50.084  1.00  0.00    -0.155 NA
HETATM    8  N4  UNL     1      24.111   3.240  49.253  1.00  0.00    -0.149 NA
HETATM    9  C19 UNL     1      26.372   3.965  49.479  1.00  0.00     0.075 C 
HETATM   10  C20 UNL     1      27.097   4.874  48.853  1.00  0.00     0.102 C 
ENDROOT
BRANCH   6  11
HETATM   11  C12 UNL     1      23.646   2.135  52.750  1.00  0.00     0.180 C 
BRANCH  11  12
HETATM   12  N2  UNL     1      24.307   0.857  52.871  1.00  0.00    -0.384 N 
HETATM   13  H17 UNL     1      23.651   0.033  52.711  1.00  0.00     0.160 HD
BRANCH  12  14
HETATM   14  C13 UNL     1      25.654   0.528  53.161  1.00  0.00     0.030 A 
HETATM   15  C14 UNL     1      26.515   1.471  53.729  1.00  0.00     0.032 A 
HETATM   16  C15 UNL     1      27.822   1.136  53.988  1.00  0.00     0.046 A 
HETATM   17  C16 UNL     1      28.341  -0.110  53.711  1.00  0.00     0.138 A 
HETATM   18  F1  UNL     1      29.639  -0.362  53.995  1.00  0.00    -0.204 F 
HETATM   19  C17 UNL     1      27.510  -1.075  53.143  1.00  0.00     0.074 A 
HETATM   20 CL1  UNL     1      28.137  -2.666  52.778  1.00  0.00    -0.081 Cl
HETATM   21  C18 UNL     1      26.210  -0.700  52.899  1.00  0.00     0.056 A 
ENDBRANCH  12  14
ENDBRANCH  11  12
ENDBRANCH   6  11
BRANCH  10  22
HETATM   22  O2  UNL     1      28.388   4.650  48.430  1.00  0.00    -0.358 OA
HETATM   23  H22 UNL     1      28.623   3.689  48.181  1.00  0.00     0.217 HD
ENDBRANCH  10  22
BRANCH   1  24
HETATM   24  O1  UNL     1      27.149   7.284  48.315  1.00  0.00    -0.346 OA
BRANCH  24  25
HETATM   25  C6  UNL     1      27.355   8.307  49.267  1.00  0.00     0.176 C 
BRANCH  25  26
HETATM   26  C5  UNL     1      28.243   9.339  48.560  1.00  0.00     0.027 C 
BRANCH  26  27
HETATM   27  C4  UNL     1      29.356   9.750  49.485  1.00  0.00     0.002 C 
BRANCH  27  28
HETATM   28  C3  UNL     1      30.690   9.741  48.765  1.00  0.00    -0.000 C 
BRANCH  28  29
HETATM   29  C2  UNL     1      31.007  11.100  48.163  1.00  0.00    -0.005 C 
HETATM   30  C1  UNL     1      30.761  12.215  49.130  1.00  0.00     0.005 C 
ENDBRANCH  28  29
ENDBRANCH  27  28
ENDBRANCH  26  27
ENDBRANCH  25  26
ENDBRANCH  24  25
ENDBRANCH   1  24
TORSDOF 10
ENDMDL
MODEL 8
REMARK VINA RESULT:      -6.6      4.290      7.353
REMARK  10 active torsions:
REMARK  status: ('A' for Active; 'I' for Inactive)
REMARK    1  A    between atoms: C2_2  and  C3_3 
REMARK    2  A    between atoms: C3_3  and  C4_4 
REMARK    3  A    between atoms: C4_4  and  C5_5 
REMARK    4  A    between atoms: C5_5  and  C6_6 
REMARK    5  A    between atoms: C6_6  and  O1_7 
REMARK    6  A    between atoms: O1_7  and  C7_8 
REMARK    7  A    between atoms: C11_13  and  C12_14 
REMARK    8  A    between atoms: C12_14  and  N2_15 
REMARK    9  A    between atoms: N2_15  and  C13_16 
REMARK   10  A    between atoms: C20_27  and  O2_28 
ROOT
HETATM    1  C7  UNL     1      23.544   3.726  51.153  1.00  0.00     0.132 C 
HETATM    2  C8  UNL     1      23.751   3.535  49.875  1.00  0.00     0.122 C 
HETATM    3  N1  UNL     1      24.747   4.065  49.294  1.00  0.00    -0.241 NA
HETATM    4  C9  UNL     1      24.918   5.490  49.452  1.00  0.00     0.208 A 
HETATM    5  C10 UNL     1      26.302   5.929  49.304  1.00  0.00     0.067 A 
HETATM    6  C11 UNL     1      26.415   6.824  48.305  1.00  0.00     0.075 A 
HETATM    7  N3  UNL     1      25.097   6.951  47.816  1.00  0.00    -0.155 NA
HETATM    8  N4  UNL     1      24.253   6.240  48.414  1.00  0.00    -0.149 NA
HETATM    9  C19 UNL     1      24.340   5.901  50.774  1.00  0.00     0.075 C 
HETATM   10  C20 UNL     1      23.689   5.099  51.597  1.00  0.00     0.102 C 
ENDROOT
BRANCH   6  11
HETATM   11  C12 UNL     1      27.742   7.387  48.000  1.00  0.00     0.180 C 
BRANCH  11  12
HETATM   12  N2  UNL     1      28.728   6.741  48.837  1.00  0.00    -0.384 N 
HETATM   13  H17 UNL     1      28.388   6.587  49.835  1.00  0.00     0.160 HD
BRANCH  12  14
HETATM   14  C13 UNL     1      30.039   6.290  48.552  1.00  0.00     0.030 A 
HETATM   15  C14 UNL     1      31.155   7.005  48.996  1.00  0.00     0.032 A 
HETATM   16  C15 UNL     1      32.419   6.558  48.695  1.00  0.00     0.046 A 
HETATM   17  C16 UNL     1      32.650   5.414  47.962  1.00  0.00     0.138 A 
HETATM   18  F1  UNL     1      33.924   5.041  47.708  1.00  0.00    -0.204 F 
HETATM   19  C17 UNL     1      31.559   4.677  47.502  1.00  0.00     0.074 A 
HETATM   20 CL1  UNL     1      31.817   3.221  46.568  1.00  0.00    -0.081 Cl
HETATM   21  C18 UNL     1      30.313   5.159  47.824  1.00  0.00     0.056 A 
ENDBRANCH  12  14
ENDBRANCH  11  12
ENDBRANCH   6  11
BRANCH  10  22
HETATM   22  O2  UNL     1      23.172   5.512  52.804  1.00  0.00    -0.358 OA
HETATM   23  H22 UNL     1      22.616   4.828  53.318  1.00  0.00     0.217 HD
ENDBRANCH  10  22
BRANCH   1  24
HETATM   24  O1  UNL     1      23.215   2.710  52.010  1.00  0.00    -0.346 OA
BRANCH  24  25
HETATM   25  C6  UNL     1      24.148   2.199  52.938  1.00  0.00     0.176 C 
BRANCH  25  26
HETATM   26  C5  UNL     1      24.372   0.741  52.518  1.00  0.00     0.027 C 
BRANCH  26  27
HETATM   27  C4  UNL     1      23.863  -0.170  53.602  1.00  0.00     0.002 C 
BRANCH  27  28
HETATM   28  C3  UNL     1      22.634  -0.928  53.140  1.00  0.00    -0.000 C 
BRANCH  28  29
HETATM   29  C2  UNL     1      21.649  -1.138  54.278  1.00  0.00    -0.005 C 
HETATM   30  C1  UNL     1      20.986   0.139  54.691  1.00  0.00     0.005 C 
ENDBRANCH  28  29
ENDBRANCH  27  28
ENDBRANCH  26  27
ENDBRANCH  25  26
ENDBRANCH  24  25
ENDBRANCH   1  24
TORSDOF 10
ENDMDL
MODEL 9
REMARK VINA RESULT:      -6.4      4.855      7.422
REMARK  10 active torsions:
REMARK  status: ('A' for Active; 'I' for Inactive)
REMARK    1  A    between atoms: C2_2  and  C3_3 
REMARK    2  A    between atoms: C3_3  and  C4_4 
REMARK    3  A    between atoms: C4_4  and  C5_5 
REMARK    4  A    between atoms: C5_5  and  C6_6 
REMARK    5  A    between atoms: C6_6  and  O1_7 
REMARK    6  A    between atoms: O1_7  and  C7_8 
REMARK    7  A    between atoms: C11_13  and  C12_14 
REMARK    8  A    between atoms: C12_14  and  N2_15 
REMARK    9  A    between atoms: N2_15  and  C13_16 
REMARK   10  A    between atoms: C20_27  and  O2_28 
ROOT
HETATM    1  C7  UNL     1      23.833   5.545  50.414  1.00  0.00     0.132 C 
HETATM    2  C8  UNL     1      23.856   5.525  49.106  1.00  0.00     0.122 C 
HETATM    3  N1  UNL     1      24.955   5.610  48.476  1.00  0.00    -0.241 NA
HETATM    4  C9  UNL     1      25.819   6.719  48.809  1.00  0.00     0.208 A 
HETATM    5  C10 UNL     1      27.229   6.459  48.539  1.00  0.00     0.067 A 
HETATM    6  C11 UNL     1      27.722   7.360  47.670  1.00  0.00     0.075 A 
HETATM    7  N3  UNL     1      26.620   8.194  47.387  1.00  0.00    -0.155 NA
HETATM    8  N4  UNL     1      25.564   7.878  47.988  1.00  0.00    -0.149 NA
HETATM    9  C19 UNL     1      25.584   7.098  50.242  1.00  0.00     0.075 C 
HETATM   10  C20 UNL     1      24.662   6.567  51.024  1.00  0.00     0.102 C 
ENDROOT
BRANCH   6  11
HETATM   11  C12 UNL     1      29.138   7.263  47.271  1.00  0.00     0.180 C 
BRANCH  11  12
HETATM   12  N2  UNL     1      29.699   6.054  47.829  1.00  0.00    -0.384 N 
HETATM   13  H17 UNL     1      28.960   5.396  48.222  1.00  0.00     0.160 HD
BRANCH  12  14
HETATM   14  C13 UNL     1      31.040   5.613  47.934  1.00  0.00     0.030 A 
HETATM   15  C14 UNL     1      32.010   6.406  48.553  1.00  0.00     0.032 A 
HETATM   16  C15 UNL     1      33.309   5.965  48.631  1.00  0.00     0.046 A 
HETATM   17  C16 UNL     1      33.716   4.752  48.118  1.00  0.00     0.138 A 
HETATM   18  F1  UNL     1      35.013   4.390  48.234  1.00  0.00    -0.204 F 
HETATM   19  C17 UNL     1      32.775   3.935  47.492  1.00  0.00     0.074 A 
HETATM   20 CL1  UNL     1      33.258   2.391  46.830  1.00  0.00    -0.081 Cl
HETATM   21  C18 UNL     1      31.488   4.414  47.435  1.00  0.00     0.056 A 
ENDBRANCH  12  14
ENDBRANCH  11  12
ENDBRANCH   6  11
BRANCH  10  22
HETATM   22  O2  UNL     1      24.477   6.940  52.336  1.00  0.00    -0.358 OA
HETATM   23  H22 UNL     1      25.323   7.083  52.890  1.00  0.00     0.217 HD
ENDBRANCH  10  22
BRANCH   1  24
HETATM   24  O1  UNL     1      23.085   4.671  51.155  1.00  0.00    -0.346 OA
BRANCH  24  25
HETATM   25  C6  UNL     1      23.277   3.275  51.061  1.00  0.00     0.176 C 
BRANCH  25  26
HETATM   26  C5  UNL     1      24.428   2.963  52.026  1.00  0.00     0.027 C 
BRANCH  26  27
HETATM   27  C4  UNL     1      24.769   1.500  51.932  1.00  0.00     0.002 C 
BRANCH  27  28
HETATM   28  C3  UNL     1      26.251   1.303  51.684  1.00  0.00    -0.000 C 
BRANCH  28  29
HETATM   29  C2  UNL     1      26.712  -0.074  52.132  1.00  0.00    -0.005 C 
HETATM   30  C1  UNL     1      25.759  -0.699  53.103  1.00  0.00     0.005 C 
ENDBRANCH  28  29
ENDBRANCH  27  28
ENDBRANCH  26  27
ENDBRANCH  25  26
ENDBRANCH  24  25
ENDBRANCH   1  24
TORSDOF 10
ENDMDL
