MODEL 1
REMARK VINA RESULT:      -8.3      0.000      0.000
REMARK  4 active torsions:
REMARK  status: ('A' for Active; 'I' for Inactive)
REMARK    1  A    between atoms: C2_2  and  C3_4 
REMARK    2  A    between atoms: C3_4  and  N1_6 
REMARK    3  A    between atoms: N1_6  and  C4_7 
REMARK    4  A    between atoms: C4_7  and  C5_8 
ROOT
HETATM    1  C5  UNL     1      23.827   2.148  51.803  1.00  0.00     0.072 C 
HETATM    2  N2  UNL     1      24.740   3.013  51.466  1.00  0.00    -0.213 NA
HETATM    3  C6  UNL     1      26.126   2.685  51.530  1.00  0.00     0.263 C 
HETATM    4  N3  UNL     1      26.880   3.493  50.878  1.00  0.00    -0.260 NA
HETATM    5  O1  UNL     1      27.343   2.128  51.774  1.00  0.00    -0.293 OA
HETATM    6  C7  UNL     1      28.110   2.346  52.934  1.00  0.00     0.355 C 
HETATM    7  O2  UNL     1      27.890   1.301  53.874  1.00  0.00    -0.325 OA
HETATM    8  C8  UNL     1      28.136  -0.005  53.604  1.00  0.00     0.079 A 
HETATM    9  C9  UNL     1      29.446  -0.409  53.742  1.00  0.00     0.037 A 
HETATM   10  C10 UNL     1      29.895  -1.691  53.516  1.00  0.00     0.003 A 
HETATM   11  C11 UNL     1      29.003  -2.660  53.123  1.00  0.00     0.001 A 
HETATM   12  C12 UNL     1      27.689  -2.258  52.985  1.00  0.00     0.012 A 
HETATM   13  C13 UNL     1      27.213  -0.961  53.209  1.00  0.00     0.003 A 
HETATM   14  C14 UNL     1      25.751  -0.760  52.984  1.00  0.00     0.311 C 
HETATM   15  N4  UNL     1      25.453   0.600  52.635  1.00  0.00     0.093 N 
HETATM   16  C15 UNL     1      24.050   0.746  52.288  1.00  0.00     0.326 C 
HETATM   17  H7  UNL     1      26.422   4.297  50.373  1.00  0.00     0.190 HD
HETATM   18  H16 UNL     1      25.583   1.159  53.559  1.00  0.00     0.316 HD
ENDROOT
BRANCH   1  19
HETATM   19  C4  UNL     1      22.380   2.447  51.748  1.00  0.00     0.330 C 
BRANCH  19  20
HETATM   20  N1  UNL     1      21.703   1.614  52.716  1.00  0.00     0.127 N 
HETATM   21  H4  UNL     1      22.385   1.012  53.181  1.00  0.00     0.320 HD
BRANCH  20  22
HETATM   22  C3  UNL     1      20.556   0.935  52.206  1.00  0.00     0.443 C 
HETATM   23  F1  UNL     1      20.843   0.175  51.060  1.00  0.00    -0.210 F 
BRANCH  22  24
HETATM   24  C2  UNL     1      20.145  -0.073  53.251  1.00  0.00     0.053 C 
HETATM   25  C1  UNL     1      20.950  -0.333  54.285  1.00  0.00     0.057 C 
HETATM   26 CL1  UNL     1      18.645  -0.973  53.228  1.00  0.00    -0.089 Cl
ENDBRANCH  22  24
ENDBRANCH  20  22
ENDBRANCH  19  20
ENDBRANCH   1  19
TORSDOF 4
ENDMDL
MODEL 2
REMARK VINA RESULT:      -7.9      2.792      3.448
REMARK  4 active torsions:
REMARK  status: ('A' for Active; 'I' for Inactive)
REMARK    1  A    between atoms: C2_2  and  C3_4 
REMARK    2  A    between atoms: C3_4  and  N1_6 
REMARK    3  A    between atoms: N1_6  and  C4_7 
REMARK    4  A    between atoms: C4_7  and  C5_8 
ROOT
HETATM    1  C5  UNL     1      23.832   2.305  51.561  1.00  0.00     0.072 C 
HETATM    2  N2  UNL     1      24.797   3.141  51.306  1.00  0.00    -0.213 NA
HETATM    3  C6  UNL     1      26.163   2.753  51.437  1.00  0.00     0.263 C 
HETATM    4  N3  UNL     1      26.985   3.550  50.857  1.00  0.00    -0.260 NA
HETATM    5  O1  UNL     1      27.340   2.137  51.730  1.00  0.00    -0.293 OA
HETATM    6  C7  UNL     1      28.047   2.285  52.938  1.00  0.00     0.355 C 
HETATM    7  O2  UNL     1      27.732   1.220  53.827  1.00  0.00    -0.325 OA
HETATM    8  C8  UNL     1      27.940  -0.086  53.525  1.00  0.00     0.079 A 
HETATM    9  C9  UNL     1      29.222  -0.549  53.722  1.00  0.00     0.037 A 
HETATM   10  C10 UNL     1      29.631  -1.841  53.477  1.00  0.00     0.003 A 
HETATM   11  C11 UNL     1      28.725  -2.758  53.001  1.00  0.00     0.001 A 
HETATM   12  C12 UNL     1      27.439  -2.297  52.803  1.00  0.00     0.012 A 
HETATM   13  C13 UNL     1      27.003  -0.989  53.046  1.00  0.00     0.003 A 
HETATM   14  C14 UNL     1      25.566  -0.719  52.746  1.00  0.00     0.311 C 
HETATM   15  N4  UNL     1      25.344   0.663  52.428  1.00  0.00     0.093 N 
HETATM   16  C15 UNL     1      23.970   0.880  52.008  1.00  0.00     0.326 C 
HETATM   17  H7  UNL     1      26.590   4.388  50.356  1.00  0.00     0.190 HD
HETATM   18  H16 UNL     1      25.443   1.186  53.377  1.00  0.00     0.316 HD
ENDROOT
BRANCH   1  19
HETATM   19  C4  UNL     1      22.404   2.667  51.436  1.00  0.00     0.330 C 
BRANCH  19  20
HETATM   20  N1  UNL     1      22.316   3.981  50.842  1.00  0.00     0.127 N 
HETATM   21  H4  UNL     1      23.182   4.186  50.340  1.00  0.00     0.320 HD
BRANCH  20  22
HETATM   22  C3  UNL     1      21.889   5.005  51.741  1.00  0.00     0.443 C 
HETATM   23  F1  UNL     1      22.564   4.957  52.972  1.00  0.00    -0.210 F 
BRANCH  22  24
HETATM   24  C2  UNL     1      22.293   6.322  51.125  1.00  0.00     0.053 C 
HETATM   25  C1  UNL     1      21.385   7.077  50.501  1.00  0.00     0.057 C 
HETATM   26 CL1  UNL     1      23.915   6.978  51.156  1.00  0.00    -0.089 Cl
ENDBRANCH  22  24
ENDBRANCH  20  22
ENDBRANCH  19  20
ENDBRANCH   1  19
TORSDOF 4
ENDMDL
MODEL 3
REMARK VINA RESULT:      -7.7      1.813      1.967
REMARK  4 active torsions:
REMARK  status: ('A' for Active; 'I' for Inactive)
REMARK    1  A    between atoms: C2_2  and  C3_4 
REMARK    2  A    between atoms: C3_4  and  N1_6 
REMARK    3  A    between atoms: N1_6  and  C4_7 
REMARK    4  A    between atoms: C4_7  and  C5_8 
ROOT
HETATM    1  C5  UNL     1      23.781   2.247  51.590  1.00  0.00     0.072 C 
HETATM    2  N2  UNL     1      24.723   3.097  51.295  1.00  0.00    -0.213 NA
HETATM    3  C6  UNL     1      26.099   2.740  51.409  1.00  0.00     0.263 C 
HETATM    4  N3  UNL     1      26.893   3.539  50.794  1.00  0.00    -0.260 NA
HETATM    5  O1  UNL     1      27.294   2.157  51.695  1.00  0.00    -0.293 OA
HETATM    6  C7  UNL     1      28.020   2.351  52.885  1.00  0.00     0.355 C 
HETATM    7  O2  UNL     1      27.744   1.303  53.807  1.00  0.00    -0.325 OA
HETATM    8  C8  UNL     1      27.975  -0.006  53.535  1.00  0.00     0.079 A 
HETATM    9  C9  UNL     1      29.270  -0.436  53.719  1.00  0.00     0.037 A 
HETATM   10  C10 UNL     1      29.702  -1.725  53.500  1.00  0.00     0.003 A 
HETATM   11  C11 UNL     1      28.808  -2.673  53.065  1.00  0.00     0.001 A 
HETATM   12  C12 UNL     1      27.508  -2.244  52.879  1.00  0.00     0.012 A 
HETATM   13  C13 UNL     1      27.049  -0.940  53.097  1.00  0.00     0.003 A 
HETATM   14  C14 UNL     1      25.601  -0.708  52.818  1.00  0.00     0.311 C 
HETATM   15  N4  UNL     1      25.344   0.660  52.469  1.00  0.00     0.093 N 
HETATM   16  C15 UNL     1      23.958   0.837  52.070  1.00  0.00     0.326 C 
HETATM   17  H7  UNL     1      26.471   4.356  50.279  1.00  0.00     0.190 HD
HETATM   18  H16 UNL     1      25.449   1.210  53.402  1.00  0.00     0.316 HD
ENDROOT
BRANCH   1  19
HETATM   19  C4  UNL     1      22.343   2.576  51.482  1.00  0.00     0.330 C 
BRANCH  19  20
HETATM   20  N1  UNL     1      21.654   1.434  50.927  1.00  0.00     0.127 N 
HETATM   21  H4  UNL     1      22.203   0.590  51.095  1.00  0.00     0.320 HD
BRANCH  20  22
HETATM   22  C3  UNL     1      21.223   1.607  49.576  1.00  0.00     0.443 C 
HETATM   23  F1  UNL     1      21.540   0.506  48.764  1.00  0.00    -0.210 F 
BRANCH  22  24
HETATM   24  C2  UNL     1      19.715   1.654  49.601  1.00  0.00     0.053 C 
HETATM   25  C1  UNL     1      19.032   0.849  50.420  1.00  0.00     0.057 C 
HETATM   26 CL1  UNL     1      18.738   2.714  48.610  1.00  0.00    -0.089 Cl
ENDBRANCH  22  24
ENDBRANCH  20  22
ENDBRANCH  19  20
ENDBRANCH   1  19
TORSDOF 4
ENDMDL
MODEL 4
REMARK VINA RESULT:      -7.6      3.401      6.977
REMARK  4 active torsions:
REMARK  status: ('A' for Active; 'I' for Inactive)
REMARK    1  A    between atoms: C2_2  and  C3_4 
REMARK    2  A    between atoms: C3_4  and  N1_6 
REMARK    3  A    between atoms: N1_6  and  C4_7 
REMARK    4  A    between atoms: C4_7  and  C5_8 
ROOT
HETATM    1  C5  UNL     1      25.014   2.149  53.064  1.00  0.00     0.072 C 
HETATM    2  N2  UNL     1      24.432   3.216  52.594  1.00  0.00    -0.213 NA
HETATM    3  C6  UNL     1      23.027   3.241  52.350  1.00  0.00     0.263 C 
HETATM    4  N3  UNL     1      22.550   4.423  52.202  1.00  0.00    -0.260 NA
HETATM    5  O1  UNL     1      21.717   2.945  52.139  1.00  0.00    -0.293 OA
HETATM    6  C7  UNL     1      21.167   2.566  50.900  1.00  0.00     0.355 C 
HETATM    7  O2  UNL     1      21.086   1.148  50.810  1.00  0.00    -0.325 OA
HETATM    8  C8  UNL     1      20.384   0.386  51.686  1.00  0.00     0.079 A 
HETATM    9  C9  UNL     1      19.031   0.292  51.447  1.00  0.00     0.037 A 
HETATM   10  C10 UNL     1      18.151  -0.433  52.219  1.00  0.00     0.003 A 
HETATM   11  C11 UNL     1      18.620  -1.121  53.312  1.00  0.00     0.001 A 
HETATM   12  C12 UNL     1      19.977  -1.029  53.554  1.00  0.00     0.012 A 
HETATM   13  C13 UNL     1      20.887  -0.298  52.781  1.00  0.00     0.003 A 
HETATM   14  C14 UNL     1      22.306  -0.337  53.244  1.00  0.00     0.311 C 
HETATM   15  N4  UNL     1      23.025   0.836  52.837  1.00  0.00     0.093 N 
HETATM   16  C15 UNL     1      24.361   0.844  53.409  1.00  0.00     0.326 C 
HETATM   17  H7  UNL     1      23.215   5.237  52.271  1.00  0.00     0.190 HD
HETATM   18  H16 UNL     1      23.170   0.716  51.765  1.00  0.00     0.316 HD
ENDROOT
BRANCH   1  19
HETATM   19  C4  UNL     1      26.467   2.083  53.334  1.00  0.00     0.330 C 
BRANCH  19  20
HETATM   20  N1  UNL     1      26.744   0.858  54.047  1.00  0.00     0.127 N 
HETATM   21  H4  UNL     1      26.329   0.906  54.980  1.00  0.00     0.320 HD
BRANCH  20  22
HETATM   22  C3  UNL     1      28.115   0.461  54.024  1.00  0.00     0.443 C 
HETATM   23  F1  UNL     1      28.630   0.224  55.309  1.00  0.00    -0.210 F 
BRANCH  22  24
HETATM   24  C2  UNL     1      28.170  -0.877  53.328  1.00  0.00     0.053 C 
HETATM   25  C1  UNL     1      29.291  -1.603  53.357  1.00  0.00     0.057 C 
HETATM   26 CL1  UNL     1      26.839  -1.594  52.447  1.00  0.00    -0.089 Cl
ENDBRANCH  22  24
ENDBRANCH  20  22
ENDBRANCH  19  20
ENDBRANCH   1  19
TORSDOF 4
ENDMDL
MODEL 5
REMARK VINA RESULT:      -7.6      3.767      7.488
REMARK  4 active torsions:
REMARK  status: ('A' for Active; 'I' for Inactive)
REMARK    1  A    between atoms: C2_2  and  C3_4 
REMARK    2  A    between atoms: C3_4  and  N1_6 
REMARK    3  A    between atoms: N1_6  and  C4_7 
REMARK    4  A    between atoms: C4_7  and  C5_8 
ROOT
HETATM    1  C5  UNL     1      24.949  -0.236  54.384  1.00  0.00     0.072 C 
HETATM    2  N2  UNL     1      24.066  -0.937  55.036  1.00  0.00    -0.213 NA
HETATM    3  C6  UNL     1      22.724  -1.052  54.567  1.00  0.00     0.263 C 
HETATM    4  N3  UNL     1      22.066  -2.009  55.113  1.00  0.00    -0.260 NA
HETATM    5  O1  UNL     1      21.527  -0.908  53.938  1.00  0.00    -0.293 OA
HETATM    6  C7  UNL     1      20.522   0.001  54.318  1.00  0.00     0.355 C 
HETATM    7  O2  UNL     1      20.617   1.191  53.544  1.00  0.00    -0.325 OA
HETATM    8  C8  UNL     1      20.527   1.207  52.190  1.00  0.00     0.079 A 
HETATM    9  C9  UNL     1      19.251   1.195  51.674  1.00  0.00     0.037 A 
HETATM   10  C10 UNL     1      18.952   1.209  50.330  1.00  0.00     0.003 A 
HETATM   11  C11 UNL     1      19.974   1.235  49.411  1.00  0.00     0.001 A 
HETATM   12  C12 UNL     1      21.256   1.248  49.926  1.00  0.00     0.012 A 
HETATM   13  C13 UNL     1      21.580   1.234  51.288  1.00  0.00     0.003 A 
HETATM   14  C14 UNL     1      23.038   1.241  51.606  1.00  0.00     0.311 C 
HETATM   15  N4  UNL     1      23.302   0.632  52.878  1.00  0.00     0.093 N 
HETATM   16  C15 UNL     1      24.733   0.525  53.110  1.00  0.00     0.326 C 
HETATM   17  H7  UNL     1      22.559  -2.601  55.832  1.00  0.00     0.190 HD
HETATM   18  H16 UNL     1      22.943   1.351  53.611  1.00  0.00     0.316 HD
ENDROOT
BRANCH   1  19
HETATM   19  C4  UNL     1      26.351  -0.095  54.834  1.00  0.00     0.330 C 
BRANCH  19  20
HETATM   20  N1  UNL     1      27.135   0.417  53.734  1.00  0.00     0.127 N 
HETATM   21  H4  UNL     1      26.610   0.311  52.864  1.00  0.00     0.320 HD
BRANCH  20  22
HETATM   22  C3  UNL     1      28.474  -0.076  53.687  1.00  0.00     0.443 C 
HETATM   23  F1  UNL     1      29.050  -0.196  54.963  1.00  0.00    -0.210 F 
BRANCH  22  24
HETATM   24  C2  UNL     1      28.401  -1.487  53.157  1.00  0.00     0.053 C 
HETATM   25  C1  UNL     1      29.424  -2.326  53.339  1.00  0.00     0.057 C 
HETATM   26 CL1  UNL     1      27.037  -2.151  52.286  1.00  0.00    -0.089 Cl
ENDBRANCH  22  24
ENDBRANCH  20  22
ENDBRANCH  19  20
ENDBRANCH   1  19
TORSDOF 4
ENDMDL
MODEL 6
REMARK VINA RESULT:      -7.5      8.350     10.952
REMARK  4 active torsions:
REMARK  status: ('A' for Active; 'I' for Inactive)
REMARK    1  A    between atoms: C2_2  and  C3_4 
REMARK    2  A    between atoms: C3_4  and  N1_6 
REMARK    3  A    between atoms: N1_6  and  C4_7 
REMARK    4  A    between atoms: C4_7  and  C5_8 
ROOT
HETATM    1  C5  UNL     1      31.899   7.291  48.813  1.00  0.00     0.072 C 
HETATM    2  N2  UNL     1      31.510   8.502  49.094  1.00  0.00    -0.213 NA
HETATM    3  C6  UNL     1      30.129   8.808  49.277  1.00  0.00     0.263 C 
HETATM    4  N3  UNL     1      29.922   9.935  49.854  1.00  0.00    -0.260 NA
HETATM    5  O1  UNL     1      28.770   8.815  49.305  1.00  0.00    -0.293 OA
HETATM    6  C7  UNL     1      27.944   9.209  48.236  1.00  0.00     0.355 C 
HETATM    7  O2  UNL     1      27.522   8.071  47.494  1.00  0.00    -0.325 OA
HETATM    8  C8  UNL     1      26.821   7.046  48.041  1.00  0.00     0.079 A 
HETATM    9  C9  UNL     1      25.463   7.242  48.156  1.00  0.00     0.037 A 
HETATM   10  C10 UNL     1      24.583   6.323  48.681  1.00  0.00     0.003 A 
HETATM   11  C11 UNL     1      25.058   5.115  49.133  1.00  0.00     0.001 A 
HETATM   12  C12 UNL     1      26.419   4.914  49.018  1.00  0.00     0.012 A 
HETATM   13  C13 UNL     1      27.330   5.836  48.487  1.00  0.00     0.003 A 
HETATM   14  C14 UNL     1      28.758   5.402  48.477  1.00  0.00     0.311 C 
HETATM   15  N4  UNL     1      29.650   6.525  48.515  1.00  0.00     0.093 N 
HETATM   16  C15 UNL     1      31.029   6.082  48.641  1.00  0.00     0.326 C 
HETATM   17  H7  UNL     1      30.760  10.511  50.130  1.00  0.00     0.190 HD
HETATM   18  H16 UNL     1      29.579   6.972  47.526  1.00  0.00     0.316 HD
ENDROOT
BRANCH   1  19
HETATM   19  C4  UNL     1      33.321   6.931  48.619  1.00  0.00     0.330 C 
BRANCH  19  20
HETATM   20  N1  UNL     1      33.470   5.514  48.854  1.00  0.00     0.127 N 
HETATM   21  H4  UNL     1      33.672   5.352  49.843  1.00  0.00     0.320 HD
BRANCH  20  22
HETATM   22  C3  UNL     1      34.358   4.858  47.948  1.00  0.00     0.443 C 
HETATM   23  F1  UNL     1      35.288   4.036  48.605  1.00  0.00    -0.210 F 
BRANCH  22  24
HETATM   24  C2  UNL     1      33.519   3.915  47.121  1.00  0.00     0.053 C 
HETATM   25  C1  UNL     1      33.321   2.659  47.530  1.00  0.00     0.057 C 
HETATM   26 CL1  UNL     1      32.748   4.338  45.608  1.00  0.00    -0.089 Cl
ENDBRANCH  22  24
ENDBRANCH  20  22
ENDBRANCH  19  20
ENDBRANCH   1  19
TORSDOF 4
ENDMDL
MODEL 7
REMARK VINA RESULT:      -7.4      7.651     10.579
REMARK  4 active torsions:
REMARK  status: ('A' for Active; 'I' for Inactive)
REMARK    1  A    between atoms: C2_2  and  C3_4 
REMARK    2  A    between atoms: C3_4  and  N1_6 
REMARK    3  A    between atoms: N1_6  and  C4_7 
REMARK    4  A    between atoms: C4_7  and  C5_8 
ROOT
HETATM    1  C5  UNL     1      29.979   8.549  48.736  1.00  0.00     0.072 C 
HETATM    2  N2  UNL     1      29.145   9.350  49.337  1.00  0.00    -0.213 NA
HETATM    3  C6  UNL     1      27.894   8.875  49.830  1.00  0.00     0.263 C 
HETATM    4  N3  UNL     1      27.331   9.671  50.664  1.00  0.00    -0.260 NA
HETATM    5  O1  UNL     1      26.764   8.170  50.108  1.00  0.00    -0.293 OA
HETATM    6  C7  UNL     1      25.600   8.173  49.317  1.00  0.00     0.355 C 
HETATM    7  O2  UNL     1      25.599   7.054  48.439  1.00  0.00    -0.325 OA
HETATM    8  C8  UNL     1      25.655   5.769  48.871  1.00  0.00     0.079 A 
HETATM    9  C9  UNL     1      24.458   5.219  49.272  1.00  0.00     0.037 A 
HETATM   10  C10 UNL     1      24.308   3.933  49.740  1.00  0.00     0.003 A 
HETATM   11  C11 UNL     1      25.407   3.113  49.827  1.00  0.00     0.001 A 
HETATM   12  C12 UNL     1      26.610   3.662  49.425  1.00  0.00     0.012 A 
HETATM   13  C13 UNL     1      26.783   4.966  48.947  1.00  0.00     0.003 A 
HETATM   14  C14 UNL     1      28.181   5.341  48.583  1.00  0.00     0.311 C 
HETATM   15  N4  UNL     1      28.394   6.756  48.698  1.00  0.00     0.093 N 
HETATM   16  C15 UNL     1      29.791   7.085  48.471  1.00  0.00     0.326 C 
HETATM   17  H7  UNL     1      27.826  10.571  50.899  1.00  0.00     0.190 HD
HETATM   18  H16 UNL     1      27.854   7.188  47.857  1.00  0.00     0.316 HD
ENDROOT
BRANCH   1  19
HETATM   19  C4  UNL     1      31.287   9.001  48.213  1.00  0.00     0.330 C 
BRANCH  19  20
HETATM   20  N1  UNL     1      32.331   8.297  48.921  1.00  0.00     0.127 N 
HETATM   21  H4  UNL     1      32.488   8.742  49.827  1.00  0.00     0.320 HD
BRANCH  20  22
HETATM   22  C3  UNL     1      33.513   8.071  48.154  1.00  0.00     0.443 C 
HETATM   23  F1  UNL     1      34.658   7.928  48.956  1.00  0.00    -0.210 F 
BRANCH  22  24
HETATM   24  C2  UNL     1      33.344   6.736  47.472  1.00  0.00     0.053 C 
HETATM   25  C1  UNL     1      33.484   6.636  46.148  1.00  0.00     0.057 C 
HETATM   26 CL1  UNL     1      32.962   5.241  48.298  1.00  0.00    -0.089 Cl
ENDBRANCH  22  24
ENDBRANCH  20  22
ENDBRANCH  19  20
ENDBRANCH   1  19
TORSDOF 4
ENDMDL
MODEL 8
REMARK VINA RESULT:      -7.3      4.922      7.099
REMARK  4 active torsions:
REMARK  status: ('A' for Active; 'I' for Inactive)
REMARK    1  A    between atoms: C2_2  and  C3_4 
REMARK    2  A    between atoms: C3_4  and  N1_6 
REMARK    3  A    between atoms: N1_6  and  C4_7 
REMARK    4  A    between atoms: C4_7  and  C5_8 
ROOT
HETATM    1  C5  UNL     1      25.252   5.932  50.336  1.00  0.00     0.072 C 
HETATM    2  N2  UNL     1      26.189   5.176  49.839  1.00  0.00    -0.213 NA
HETATM    3  C6  UNL     1      26.204   3.769  50.076  1.00  0.00     0.263 C 
HETATM    4  N3  UNL     1      26.974   3.120  49.281  1.00  0.00    -0.260 NA
HETATM    5  O1  UNL     1      26.010   2.504  50.536  1.00  0.00    -0.293 OA
HETATM    6  C7  UNL     1      26.673   1.940  51.642  1.00  0.00     0.355 C 
HETATM    7  O2  UNL     1      25.869   2.057  52.810  1.00  0.00    -0.325 OA
HETATM    8  C8  UNL     1      24.625   1.526  52.914  1.00  0.00     0.079 A 
HETATM    9  C9  UNL     1      24.570   0.188  53.236  1.00  0.00     0.037 A 
HETATM   10  C10 UNL     1      23.406  -0.531  53.388  1.00  0.00     0.003 A 
HETATM   11  C11 UNL     1      22.196   0.097  53.212  1.00  0.00     0.001 A 
HETATM   12  C12 UNL     1      22.248   1.439  52.889  1.00  0.00     0.012 A 
HETATM   13  C13 UNL     1      23.421   2.187  52.730  1.00  0.00     0.003 A 
HETATM   14  C14 UNL     1      23.229   3.622  52.367  1.00  0.00     0.311 C 
HETATM   15  N4  UNL     1      24.359   4.141  51.651  1.00  0.00     0.093 N 
HETATM   16  C15 UNL     1      24.098   5.494  51.189  1.00  0.00     0.326 C 
HETATM   17  H7  UNL     1      27.506   3.665  48.553  1.00  0.00     0.190 HD
HETATM   18  H16 UNL     1      25.143   4.236  52.399  1.00  0.00     0.316 HD
ENDROOT
BRANCH   1  19
HETATM   19  C4  UNL     1      25.198   7.392  50.112  1.00  0.00     0.330 C 
BRANCH  19  20
HETATM   20  N1  UNL     1      26.446   7.969  50.555  1.00  0.00     0.127 N 
HETATM   21  H4  UNL     1      26.355   8.272  51.527  1.00  0.00     0.320 HD
BRANCH  20  22
HETATM   22  C3  UNL     1      26.987   8.952  49.671  1.00  0.00     0.443 C 
HETATM   23  F1  UNL     1      28.147   9.558  50.182  1.00  0.00    -0.210 F 
BRANCH  22  24
HETATM   24  C2  UNL     1      27.441   8.222  48.431  1.00  0.00     0.053 C 
HETATM   25  C1  UNL     1      28.589   7.540  48.437  1.00  0.00     0.057 C 
HETATM   26 CL1  UNL     1      26.559   8.188  46.920  1.00  0.00    -0.089 Cl
ENDBRANCH  22  24
ENDBRANCH  20  22
ENDBRANCH  19  20
ENDBRANCH   1  19
TORSDOF 4
ENDMDL
MODEL 9
REMARK VINA RESULT:      -7.3      5.015      7.143
REMARK  4 active torsions:
REMARK  status: ('A' for Active; 'I' for Inactive)
REMARK    1  A    between atoms: C2_2  and  C3_4 
REMARK    2  A    between atoms: C3_4  and  N1_6 
REMARK    3  A    between atoms: N1_6  and  C4_7 
REMARK    4  A    between atoms: C4_7  and  C5_8 
ROOT
HETATM    1  C5  UNL     1      25.391   5.482  49.951  1.00  0.00     0.072 C 
HETATM    2  N2  UNL     1      24.328   5.774  50.645  1.00  0.00    -0.213 NA
HETATM    3  C6  UNL     1      23.838   4.887  51.649  1.00  0.00     0.263 C 
HETATM    4  N3  UNL     1      23.001   5.431  52.455  1.00  0.00    -0.260 NA
HETATM    5  O1  UNL     1      23.562   3.828  52.457  1.00  0.00    -0.293 OA
HETATM    6  C7  UNL     1      22.628   2.817  52.168  1.00  0.00     0.355 C 
HETATM    7  O2  UNL     1      23.281   1.692  51.592  1.00  0.00    -0.325 OA
HETATM    8  C8  UNL     1      24.269   1.005  52.219  1.00  0.00     0.079 A 
HETATM    9  C9  UNL     1      23.857   0.062  53.133  1.00  0.00     0.037 A 
HETATM   10  C10 UNL     1      24.705  -0.736  53.868  1.00  0.00     0.003 A 
HETATM   11  C11 UNL     1      26.063  -0.609  53.705  1.00  0.00     0.001 A 
HETATM   12  C12 UNL     1      26.480   0.336  52.788  1.00  0.00     0.012 A 
HETATM   13  C13 UNL     1      25.635   1.156  52.031  1.00  0.00     0.003 A 
HETATM   14  C14 UNL     1      26.316   2.114  51.110  1.00  0.00     0.311 C 
HETATM   15  N4  UNL     1      25.503   3.269  50.856  1.00  0.00     0.093 N 
HETATM   16  C15 UNL     1      26.234   4.248  50.069  1.00  0.00     0.326 C 
HETATM   17  H7  UNL     1      22.761   6.446  52.308  1.00  0.00     0.190 HD
HETATM   18  H16 UNL     1      24.707   2.912  50.206  1.00  0.00     0.316 HD
ENDROOT
BRANCH   1  19
HETATM   19  C4  UNL     1      25.933   6.375  48.904  1.00  0.00     0.330 C 
BRANCH  19  20
HETATM   20  N1  UNL     1      27.192   6.912  49.368  1.00  0.00     0.127 N 
HETATM   21  H4  UNL     1      27.079   7.268  50.320  1.00  0.00     0.320 HD
BRANCH  20  22
HETATM   22  C3  UNL     1      27.814   7.821  48.460  1.00  0.00     0.443 C 
HETATM   23  F1  UNL     1      28.530   8.835  49.117  1.00  0.00    -0.210 F 
BRANCH  22  24
HETATM   24  C2  UNL     1      28.856   7.036  47.702  1.00  0.00     0.053 C 
HETATM   25  C1  UNL     1      29.486   7.586  46.661  1.00  0.00     0.057 C 
HETATM   26 CL1  UNL     1      29.334   5.395  48.082  1.00  0.00    -0.089 Cl
ENDBRANCH  22  24
ENDBRANCH  20  22
ENDBRANCH  19  20
ENDBRANCH   1  19
TORSDOF 4
ENDMDL
