MODEL 1
REMARK VINA RESULT:      -8.1      0.000      0.000
REMARK  0 active torsions:
REMARK  status: ('A' for Active; 'I' for Inactive)
ROOT
HETATM    1  F1  UNL     1      20.109   5.263  45.242  1.00  0.00    -0.208 F 
HETATM    2  C1  UNL     1      20.719   4.634  46.294  1.00  0.00     0.121 C 
HETATM    3  C2  UNL     1      21.675   5.539  46.534  1.00  0.00     0.175 C 
HETATM    4  O1  UNL     1      22.761   5.743  47.425  1.00  0.00    -0.333 OA
HETATM    5  C3  UNL     1      22.423   6.373  48.653  1.00  0.00     0.248 C 
HETATM    6  C4  UNL     1      21.252   7.341  48.413  1.00  0.00     0.221 C 
HETATM    7  O2  UNL     1      20.851   7.775  49.648  1.00  0.00    -0.385 OA
HETATM    8  C5  UNL     1      21.788   8.580  50.246  1.00  0.00     0.187 C 
HETATM    9  C6  UNL     1      23.178   8.013  50.241  1.00  0.00     0.145 C 
HETATM   10  N1  UNL     1      23.479   7.165  49.154  1.00  0.00    -0.383 N 
HETATM   11  C7  UNL     1      24.428   7.683  48.227  1.00  0.00     0.123 C 
HETATM   12  C8  UNL     1      25.729   6.801  48.285  1.00  0.00     0.047 C 
HETATM   13  C9  UNL     1      26.562   7.511  47.322  1.00  0.00    -0.013 C 
HETATM   14  C10 UNL     1      27.739   7.671  47.874  1.00  0.00    -0.030 C 
HETATM   15  C11 UNL     1      28.405   6.526  47.774  1.00  0.00     0.009 C 
HETATM   16  C12 UNL     1      27.790   5.486  48.672  1.00  0.00    -0.015 C 
HETATM   17  C13 UNL     1      27.184   4.395  49.122  1.00  0.00     0.061 C 
HETATM   18  C14 UNL     1      26.509   3.143  49.395  1.00  0.00     0.100 C 
HETATM   19  N2  UNL     1      26.524   3.423  50.679  1.00  0.00    -0.258 NA
HETATM   20  C15 UNL     1      25.975   2.554  51.634  1.00  0.00     0.228 C 
HETATM   21  N3  UNL     1      25.178   1.981  52.451  1.00  0.00    -0.253 NA
HETATM   22  C16 UNL     1      23.831   2.322  52.752  1.00  0.00     0.418 C 
HETATM   23  N4  UNL     1      23.092   2.793  51.627  1.00  0.00     0.104 N 
HETATM   24  C17 UNL     1      23.068   1.800  50.548  1.00  0.00     0.296 C 
HETATM   25  C18 UNL     1      22.229   2.243  49.432  1.00  0.00     0.138 A 
HETATM   26  C19 UNL     1      21.200   2.002  48.670  1.00  0.00    -0.005 A 
HETATM   27 CL1  UNL     1      21.235   0.641  49.749  1.00  0.00    -0.179 Cl
HETATM   28  C20 UNL     1      20.405   2.466  47.600  1.00  0.00     0.024 C 
HETATM   29  C21 UNL     1      21.037   3.624  47.333  1.00  0.00     0.100 C 
HETATM   30  H21 UNL     1      23.496   3.680  51.237  1.00  0.00     0.318 HD
ENDROOT
TORSDOF 0
ENDMDL
MODEL 2
REMARK VINA RESULT:      -7.8      2.788      6.193
REMARK  0 active torsions:
REMARK  status: ('A' for Active; 'I' for Inactive)
ROOT
HETATM    1  F1  UNL     1      19.292   8.455  49.832  1.00  0.00    -0.208 F 
HETATM    2  C1  UNL     1      20.494   7.805  49.921  1.00  0.00     0.121 C 
HETATM    3  C2  UNL     1      20.033   6.553  50.015  1.00  0.00     0.175 C 
HETATM    4  O1  UNL     1      20.533   5.231  50.139  1.00  0.00    -0.333 OA
HETATM    5  C3  UNL     1      20.851   4.589  48.911  1.00  0.00     0.248 C 
HETATM    6  C4  UNL     1      19.896   5.099  47.818  1.00  0.00     0.221 C 
HETATM    7  O2  UNL     1      20.361   4.594  46.634  1.00  0.00    -0.385 OA
HETATM    8  C5  UNL     1      20.210   3.233  46.553  1.00  0.00     0.187 C 
HETATM    9  C6  UNL     1      20.716   2.486  47.753  1.00  0.00     0.145 C 
HETATM   10  N1  UNL     1      20.652   3.192  48.973  1.00  0.00    -0.383 N 
HETATM   11  C7  UNL     1      19.710   2.689  49.915  1.00  0.00     0.123 C 
HETATM   12  C8  UNL     1      20.488   2.129  51.162  1.00  0.00     0.047 C 
HETATM   13  C9  UNL     1      19.372   1.637  51.960  1.00  0.00    -0.013 C 
HETATM   14  C10 UNL     1      19.688   0.431  52.361  1.00  0.00    -0.030 C 
HETATM   15  C11 UNL     1      20.519   0.539  53.392  1.00  0.00     0.009 C 
HETATM   16  C12 UNL     1      21.854   1.061  52.929  1.00  0.00    -0.015 C 
HETATM   17  C13 UNL     1      22.931   1.816  52.756  1.00  0.00     0.061 C 
HETATM   18  C14 UNL     1      24.008   2.783  52.712  1.00  0.00     0.100 C 
HETATM   19  N2  UNL     1      24.646   2.024  51.851  1.00  0.00    -0.258 NA
HETATM   20  C15 UNL     1      25.894   2.388  51.323  1.00  0.00     0.228 C 
HETATM   21  N3  UNL     1      26.814   2.858  50.572  1.00  0.00    -0.253 NA
HETATM   22  C16 UNL     1      26.675   3.540  49.332  1.00  0.00     0.418 C 
HETATM   23  N4  UNL     1      25.535   4.396  49.271  1.00  0.00     0.104 N 
HETATM   24  C17 UNL     1      25.566   5.407  50.333  1.00  0.00     0.296 C 
HETATM   25  C18 UNL     1      24.447   6.344  50.210  1.00  0.00     0.138 A 
HETATM   26  C19 UNL     1      24.063   7.581  50.067  1.00  0.00    -0.005 A 
HETATM   27 CL1  UNL     1      25.796   7.693  50.086  1.00  0.00    -0.179 Cl
HETATM   28  C20 UNL     1      22.962   8.454  49.939  1.00  0.00     0.024 C 
HETATM   29  C21 UNL     1      21.956   7.560  49.994  1.00  0.00     0.100 C 
HETATM   30  H21 UNL     1      24.638   3.859  49.365  1.00  0.00     0.318 HD
ENDROOT
TORSDOF 0
ENDMDL
MODEL 3
REMARK VINA RESULT:      -7.7      5.901      8.224
REMARK  0 active torsions:
REMARK  status: ('A' for Active; 'I' for Inactive)
ROOT
HETATM    1  F1  UNL     1      25.363  10.753  45.885  1.00  0.00    -0.208 F 
HETATM    2  C1  UNL     1      26.268   9.844  46.363  1.00  0.00     0.121 C 
HETATM    3  C2  UNL     1      27.389  10.512  46.067  1.00  0.00     0.175 C 
HETATM    4  O1  UNL     1      28.794  10.357  46.190  1.00  0.00    -0.333 OA
HETATM    5  C3  UNL     1      29.343  10.795  47.425  1.00  0.00     0.248 C 
HETATM    6  C4  UNL     1      28.511  11.976  47.952  1.00  0.00     0.221 C 
HETATM    7  O2  UNL     1      28.965  12.234  49.218  1.00  0.00    -0.385 OA
HETATM    8  C5  UNL     1      30.241  12.740  49.221  1.00  0.00     0.187 C 
HETATM    9  C6  UNL     1      31.215  11.956  48.391  1.00  0.00     0.145 C 
HETATM   10  N1  UNL     1      30.659  11.287  47.280  1.00  0.00    -0.383 N 
HETATM   11  C7  UNL     1      31.047  11.800  46.009  1.00  0.00     0.123 C 
HETATM   12  C8  UNL     1      31.906  10.714  45.263  1.00  0.00     0.047 C 
HETATM   13  C9  UNL     1      32.229  11.438  44.040  1.00  0.00    -0.013 C 
HETATM   14  C10 UNL     1      33.513  11.289  43.831  1.00  0.00    -0.030 C 
HETATM   15  C11 UNL     1      33.712  10.086  43.302  1.00  0.00     0.009 C 
HETATM   16  C12 UNL     1      33.448   9.018  44.329  1.00  0.00    -0.015 C 
HETATM   17  C13 UNL     1      32.936   7.981  44.980  1.00  0.00     0.061 C 
HETATM   18  C14 UNL     1      32.233   6.834  45.517  1.00  0.00     0.100 C 
HETATM   19  N2  UNL     1      33.010   6.862  46.576  1.00  0.00    -0.258 NA
HETATM   20  C15 UNL     1      32.872   5.937  47.622  1.00  0.00     0.228 C 
HETATM   21  N3  UNL     1      32.533   5.365  48.713  1.00  0.00    -0.253 NA
HETATM   22  C16 UNL     1      31.698   5.869  49.747  1.00  0.00     0.418 C 
HETATM   23  N4  UNL     1      30.610   6.661  49.274  1.00  0.00     0.104 N 
HETATM   24  C17 UNL     1      29.762   5.906  48.345  1.00  0.00     0.296 C 
HETATM   25  C18 UNL     1      28.592   6.687  47.936  1.00  0.00     0.138 A 
HETATM   26  C19 UNL     1      27.293   6.772  47.884  1.00  0.00    -0.005 A 
HETATM   27 CL1  UNL     1      27.571   5.247  48.669  1.00  0.00    -0.179 Cl
HETATM   28  C20 UNL     1      26.189   7.556  47.488  1.00  0.00     0.024 C 
HETATM   29  C21 UNL     1      26.837   8.619  46.975  1.00  0.00     0.100 C 
HETATM   30  H21 UNL     1      30.942   7.523  48.775  1.00  0.00     0.318 HD
ENDROOT
TORSDOF 0
ENDMDL
MODEL 4
REMARK VINA RESULT:      -7.4      5.861      9.107
REMARK  0 active torsions:
REMARK  status: ('A' for Active; 'I' for Inactive)
ROOT
HETATM    1  F1  UNL     1      27.781  13.510  49.063  1.00  0.00    -0.208 F 
HETATM    2  C1  UNL     1      28.652  12.559  48.603  1.00  0.00     0.121 C 
HETATM    3  C2  UNL     1      27.772  11.572  48.398  1.00  0.00     0.175 C 
HETATM    4  O1  UNL     1      27.752  10.230  47.937  1.00  0.00    -0.333 OA
HETATM    5  C3  UNL     1      27.634  10.079  46.529  1.00  0.00     0.248 C 
HETATM    6  C4  UNL     1      26.800  11.243  45.968  1.00  0.00     0.221 C 
HETATM    7  O2  UNL     1      26.875  11.150  44.604  1.00  0.00    -0.385 OA
HETATM    8  C5  UNL     1      26.215  10.048  44.121  1.00  0.00     0.187 C 
HETATM    9  C6  UNL     1      26.563   8.766  44.822  1.00  0.00     0.145 C 
HETATM   10  N1  UNL     1      26.937   8.902  46.175  1.00  0.00    -0.383 N 
HETATM   11  C7  UNL     1      26.014   8.362  47.115  1.00  0.00     0.123 C 
HETATM   12  C8  UNL     1      26.688   7.143  47.846  1.00  0.00     0.047 C 
HETATM   13  C9  UNL     1      25.590   6.721  48.706  1.00  0.00    -0.013 C 
HETATM   14  C10 UNL     1      25.482   5.422  48.585  1.00  0.00    -0.030 C 
HETATM   15  C11 UNL     1      26.427   4.854  49.327  1.00  0.00     0.009 C 
HETATM   16  C12 UNL     1      27.782   5.102  48.721  1.00  0.00    -0.015 C 
HETATM   17  C13 UNL     1      29.029   5.509  48.522  1.00  0.00     0.061 C 
HETATM   18  C14 UNL     1      30.374   6.048  48.512  1.00  0.00     0.100 C 
HETATM   19  N2  UNL     1      30.556   5.553  47.309  1.00  0.00    -0.258 NA
HETATM   20  C15 UNL     1      31.763   5.716  46.614  1.00  0.00     0.228 C 
HETATM   21  N3  UNL     1      32.680   6.157  45.842  1.00  0.00    -0.253 NA
HETATM   22  C16 UNL     1      32.639   7.291  44.985  1.00  0.00     0.418 C 
HETATM   23  N4  UNL     1      31.906   8.391  45.521  1.00  0.00     0.104 N 
HETATM   24  C17 UNL     1      32.459   8.827  46.808  1.00  0.00     0.296 C 
HETATM   25  C18 UNL     1      31.768  10.017  47.311  1.00  0.00     0.138 A 
HETATM   26  C19 UNL     1      31.859  11.258  47.695  1.00  0.00    -0.005 A 
HETATM   27 CL1  UNL     1      33.493  10.839  47.280  1.00  0.00    -0.179 Cl
HETATM   28  C20 UNL     1      31.160  12.389  48.167  1.00  0.00     0.024 C 
HETATM   29  C21 UNL     1      29.910  11.888  48.192  1.00  0.00     0.100 C 
HETATM   30  H21 UNL     1      30.895   8.151  45.672  1.00  0.00     0.318 HD
ENDROOT
TORSDOF 0
ENDMDL
MODEL 5
REMARK VINA RESULT:      -7.4      3.208      6.137
REMARK  0 active torsions:
REMARK  status: ('A' for Active; 'I' for Inactive)
ROOT
HETATM    1  F1  UNL     1      28.042   9.438  46.557  1.00  0.00    -0.208 F 
HETATM    2  C1  UNL     1      27.277   8.454  47.124  1.00  0.00     0.121 C 
HETATM    3  C2  UNL     1      26.071   8.983  46.888  1.00  0.00     0.175 C 
HETATM    4  O1  UNL     1      24.703   8.678  47.109  1.00  0.00    -0.333 OA
HETATM    5  C3  UNL     1      24.096   7.873  46.108  1.00  0.00     0.248 C 
HETATM    6  C4  UNL     1      24.748   8.185  44.750  1.00  0.00     0.221 C 
HETATM    7  O2  UNL     1      24.261   7.260  43.867  1.00  0.00    -0.385 OA
HETATM    8  C5  UNL     1      22.925   7.441  43.607  1.00  0.00     0.187 C 
HETATM    9  C6  UNL     1      22.075   7.591  44.835  1.00  0.00     0.145 C 
HETATM   10  N1  UNL     1      22.723   8.164  45.950  1.00  0.00    -0.383 N 
HETATM   11  C7  UNL     1      22.266   9.463  46.314  1.00  0.00     0.123 C 
HETATM   12  C8  UNL     1      21.573   9.381  47.723  1.00  0.00     0.047 C 
HETATM   13  C9  UNL     1      21.150  10.767  47.881  1.00  0.00    -0.013 C 
HETATM   14  C10 UNL     1      19.901  10.747  48.275  1.00  0.00    -0.030 C 
HETATM   15  C11 UNL     1      19.878  10.476  49.575  1.00  0.00     0.009 C 
HETATM   16  C12 UNL     1      20.293   9.049  49.816  1.00  0.00    -0.015 C 
HETATM   17  C13 UNL     1      20.949   7.968  50.218  1.00  0.00     0.061 C 
HETATM   18  C14 UNL     1      21.811   6.934  50.753  1.00  0.00     0.100 C 
HETATM   19  N2  UNL     1      21.038   6.020  50.212  1.00  0.00    -0.258 NA
HETATM   20  C15 UNL     1      21.307   4.649  50.341  1.00  0.00     0.228 C 
HETATM   21  N3  UNL     1      21.724   3.460  50.134  1.00  0.00    -0.253 NA
HETATM   22  C16 UNL     1      22.477   2.971  49.032  1.00  0.00     0.418 C 
HETATM   23  N4  UNL     1      23.439   3.899  48.535  1.00  0.00     0.104 N 
HETATM   24  C17 UNL     1      24.388   4.298  49.580  1.00  0.00     0.296 C 
HETATM   25  C18 UNL     1      25.433   5.175  49.046  1.00  0.00     0.138 A 
HETATM   26  C19 UNL     1      26.707   5.373  48.853  1.00  0.00    -0.005 A 
HETATM   27 CL1  UNL     1      26.652   3.839  49.666  1.00  0.00    -0.179 Cl
HETATM   28  C20 UNL     1      27.686   6.236  48.317  1.00  0.00     0.024 C 
HETATM   29  C21 UNL     1      26.891   7.207  47.830  1.00  0.00     0.100 C 
HETATM   30  H21 UNL     1      22.986   4.771  48.165  1.00  0.00     0.318 HD
ENDROOT
TORSDOF 0
ENDMDL
MODEL 6
REMARK VINA RESULT:      -7.3      3.582      6.279
REMARK  0 active torsions:
REMARK  status: ('A' for Active; 'I' for Inactive)
ROOT
HETATM    1  F1  UNL     1      22.390   4.138  45.207  1.00  0.00    -0.208 F 
HETATM    2  C1  UNL     1      21.294   3.859  45.979  1.00  0.00     0.121 C 
HETATM    3  C2  UNL     1      21.917   3.693  47.151  1.00  0.00     0.175 C 
HETATM    4  O1  UNL     1      21.603   3.388  48.500  1.00  0.00    -0.333 OA
HETATM    5  C3  UNL     1      21.256   4.506  49.306  1.00  0.00     0.248 C 
HETATM    6  C4  UNL     1      22.032   5.738  48.812  1.00  0.00     0.221 C 
HETATM    7  O2  UNL     1      21.526   6.812  49.494  1.00  0.00    -0.385 OA
HETATM    8  C5  UNL     1      21.841   6.775  50.830  1.00  0.00     0.187 C 
HETATM    9  C6  UNL     1      21.549   5.461  51.494  1.00  0.00     0.145 C 
HETATM   10  N1  UNL     1      21.636   4.329  50.655  1.00  0.00    -0.383 N 
HETATM   11  C7  UNL     1      22.718   3.448  50.938  1.00  0.00     0.123 C 
HETATM   12  C8  UNL     1      22.138   2.077  51.444  1.00  0.00     0.047 C 
HETATM   13  C9  UNL     1      23.377   1.358  51.713  1.00  0.00    -0.013 C 
HETATM   14  C10 UNL     1      23.256   0.809  52.895  1.00  0.00    -0.030 C 
HETATM   15  C11 UNL     1      22.517  -0.288  52.772  1.00  0.00     0.009 C 
HETATM   16  C12 UNL     1      21.090   0.079  52.463  1.00  0.00    -0.015 C 
HETATM   17  C13 UNL     1      19.914   0.209  51.863  1.00  0.00     0.061 C 
HETATM   18  C14 UNL     1      18.723   0.233  51.039  1.00  0.00     0.100 C 
HETATM   19  N2  UNL     1      18.109   0.943  51.957  1.00  0.00    -0.258 NA
HETATM   20  C15 UNL     1      16.782   1.369  51.802  1.00  0.00     0.228 C 
HETATM   21  N3  UNL     1      15.743   2.060  51.528  1.00  0.00    -0.253 NA
HETATM   22  C16 UNL     1      15.677   3.368  50.974  1.00  0.00     0.418 C 
HETATM   23  N4  UNL     1      16.689   3.634  50.004  1.00  0.00     0.104 N 
HETATM   24  C17 UNL     1      16.630   2.678  48.893  1.00  0.00     0.296 C 
HETATM   25  C18 UNL     1      17.604   3.010  47.850  1.00  0.00     0.138 A 
HETATM   26  C19 UNL     1      17.812   3.313  46.601  1.00  0.00    -0.005 A 
HETATM   27 CL1  UNL     1      16.088   3.121  46.690  1.00  0.00    -0.179 Cl
HETATM   28  C20 UNL     1      18.777   3.642  45.625  1.00  0.00     0.024 C 
HETATM   29  C21 UNL     1      19.889   3.608  46.383  1.00  0.00     0.100 C 
HETATM   30  H21 UNL     1      17.652   3.583  50.419  1.00  0.00     0.318 HD
ENDROOT
TORSDOF 0
ENDMDL
MODEL 7
REMARK VINA RESULT:      -7.3      5.174      7.903
REMARK  0 active torsions:
REMARK  status: ('A' for Active; 'I' for Inactive)
ROOT
HETATM    1  F1  UNL     1      16.054  -2.098  52.433  1.00  0.00    -0.208 F 
HETATM    2  C1  UNL     1      17.091  -1.209  52.349  1.00  0.00     0.121 C 
HETATM    3  C2  UNL     1      16.581  -0.402  51.412  1.00  0.00     0.175 C 
HETATM    4  O1  UNL     1      16.932   0.774  50.699  1.00  0.00    -0.333 OA
HETATM    5  C3  UNL     1      16.604   1.994  51.350  1.00  0.00     0.248 C 
HETATM    6  C4  UNL     1      15.330   1.787  52.187  1.00  0.00     0.221 C 
HETATM    7  O2  UNL     1      15.167   2.926  52.930  1.00  0.00    -0.385 OA
HETATM    8  C5  UNL     1      14.844   4.011  52.154  1.00  0.00     0.187 C 
HETATM    9  C6  UNL     1      15.738   4.204  50.963  1.00  0.00     0.145 C 
HETATM   10  N1  UNL     1      16.297   3.022  50.432  1.00  0.00    -0.383 N 
HETATM   11  C7  UNL     1      15.814   2.650  49.144  1.00  0.00     0.123 C 
HETATM   12  C8  UNL     1      16.992   2.763  48.109  1.00  0.00     0.047 C 
HETATM   13  C9  UNL     1      16.292   2.393  46.884  1.00  0.00    -0.013 C 
HETATM   14  C10 UNL     1      16.614   3.278  45.974  1.00  0.00    -0.030 C 
HETATM   15  C11 UNL     1      17.821   2.975  45.507  1.00  0.00     0.009 C 
HETATM   16  C12 UNL     1      18.865   3.232  46.560  1.00  0.00    -0.015 C 
HETATM   17  C13 UNL     1      19.835   3.075  47.452  1.00  0.00     0.061 C 
HETATM   18  C14 UNL     1      20.885   2.683  48.370  1.00  0.00     0.100 C 
HETATM   19  N2  UNL     1      20.989   3.930  48.772  1.00  0.00    -0.258 NA
HETATM   20  C15 UNL     1      21.910   4.317  49.757  1.00  0.00     0.228 C 
HETATM   21  N3  UNL     1      22.453   4.615  50.873  1.00  0.00    -0.253 NA
HETATM   22  C16 UNL     1      21.862   4.618  52.167  1.00  0.00     0.418 C 
HETATM   23  N4  UNL     1      20.915   3.571  52.369  1.00  0.00     0.104 N 
HETATM   24  C17 UNL     1      21.522   2.252  52.162  1.00  0.00     0.296 C 
HETATM   25  C18 UNL     1      20.577   1.175  52.464  1.00  0.00     0.138 A 
HETATM   26  C19 UNL     1      20.311   0.116  53.176  1.00  0.00    -0.005 A 
HETATM   27 CL1  UNL     1      21.877   0.607  53.746  1.00  0.00    -0.179 Cl
HETATM   28  C20 UNL     1      19.372  -0.900  53.450  1.00  0.00     0.024 C 
HETATM   29  C21 UNL     1      18.398  -0.549  52.589  1.00  0.00     0.100 C 
HETATM   30  H21 UNL     1      20.096   3.652  51.716  1.00  0.00     0.318 HD
ENDROOT
TORSDOF 0
ENDMDL
MODEL 8
REMARK VINA RESULT:      -6.8      9.121     12.161
REMARK  0 active torsions:
REMARK  status: ('A' for Active; 'I' for Inactive)
ROOT
HETATM    1  F1  UNL     1      35.026   2.790  45.920  1.00  0.00    -0.208 F 
HETATM    2  C1  UNL     1      34.147   3.839  45.933  1.00  0.00     0.121 C 
HETATM    3  C2  UNL     1      34.697   4.568  44.956  1.00  0.00     0.175 C 
HETATM    4  O1  UNL     1      34.479   5.795  44.279  1.00  0.00    -0.333 OA
HETATM    5  C3  UNL     1      33.593   5.723  43.170  1.00  0.00     0.248 C 
HETATM    6  C4  UNL     1      33.721   4.337  42.516  1.00  0.00     0.221 C 
HETATM    7  O2  UNL     1      32.723   4.258  41.582  1.00  0.00    -0.385 OA
HETATM    8  C5  UNL     1      32.931   5.108  40.525  1.00  0.00     0.187 C 
HETATM    9  C6  UNL     1      33.256   6.519  40.925  1.00  0.00     0.145 C 
HETATM   10  N1  UNL     1      33.923   6.655  42.161  1.00  0.00    -0.383 N 
HETATM   11  C7  UNL     1      35.273   7.100  42.074  1.00  0.00     0.123 C 
HETATM   12  C8  UNL     1      35.382   8.526  42.729  1.00  0.00     0.047 C 
HETATM   13  C9  UNL     1      36.794   8.806  42.499  1.00  0.00    -0.013 C 
HETATM   14  C10 UNL     1      36.872  10.019  42.013  1.00  0.00    -0.030 C 
HETATM   15  C11 UNL     1      36.752  10.879  43.019  1.00  0.00     0.009 C 
HETATM   16  C12 UNL     1      35.345  10.859  43.554  1.00  0.00    -0.015 C 
HETATM   17  C13 UNL     1      34.289  10.717  44.345  1.00  0.00     0.061 C 
HETATM   18  C14 UNL     1      33.286  10.495  45.366  1.00  0.00     0.100 C 
HETATM   19  N2  UNL     1      32.350  10.850  44.514  1.00  0.00    -0.258 NA
HETATM   20  C15 UNL     1      30.993  10.866  44.867  1.00  0.00     0.228 C 
HETATM   21  N3  UNL     1      29.771  10.540  45.043  1.00  0.00    -0.253 NA
HETATM   22  C16 UNL     1      29.128   9.319  44.699  1.00  0.00     0.418 C 
HETATM   23  N4  UNL     1      29.952   8.167  44.868  1.00  0.00     0.104 N 
HETATM   24  C17 UNL     1      30.425   8.045  46.251  1.00  0.00     0.296 C 
HETATM   25  C18 UNL     1      31.189   6.811  46.447  1.00  0.00     0.138 A 
HETATM   26  C19 UNL     1      31.309   5.686  47.093  1.00  0.00    -0.005 A 
HETATM   27 CL1  UNL     1      29.881   6.398  47.778  1.00  0.00    -0.179 Cl
HETATM   28  C20 UNL     1      32.062   4.503  47.246  1.00  0.00     0.024 C 
HETATM   29  C21 UNL     1      33.006   4.711  46.309  1.00  0.00     0.100 C 
HETATM   30  H21 UNL     1      30.795   8.194  44.243  1.00  0.00     0.318 HD
ENDROOT
TORSDOF 0
ENDMDL
MODEL 9
REMARK VINA RESULT:      -6.8      3.978      6.590
REMARK  0 active torsions:
REMARK  status: ('A' for Active; 'I' for Inactive)
ROOT
HETATM    1  F1  UNL     1      17.882  -1.369  51.948  1.00  0.00    -0.208 F 
HETATM    2  C1  UNL     1      18.886  -0.446  51.833  1.00  0.00     0.121 C 
HETATM    3  C2  UNL     1      18.349   0.307  50.867  1.00  0.00     0.175 C 
HETATM    4  O1  UNL     1      18.660   1.469  50.114  1.00  0.00    -0.333 OA
HETATM    5  C3  UNL     1      18.284   2.699  50.720  1.00  0.00     0.248 C 
HETATM    6  C4  UNL     1      17.017   2.475  51.562  1.00  0.00     0.221 C 
HETATM    7  O2  UNL     1      16.810   3.633  52.262  1.00  0.00    -0.385 OA
HETATM    8  C5  UNL     1      16.449   4.677  51.448  1.00  0.00     0.187 C 
HETATM    9  C6  UNL     1      17.339   4.860  50.252  1.00  0.00     0.145 C 
HETATM   10  N1  UNL     1      17.943   3.682  49.765  1.00  0.00    -0.383 N 
HETATM   11  C7  UNL     1      17.478   3.246  48.491  1.00  0.00     0.123 C 
HETATM   12  C8  UNL     1      18.654   3.365  47.453  1.00  0.00     0.047 C 
HETATM   13  C9  UNL     1      17.972   2.926  46.242  1.00  0.00    -0.013 C 
HETATM   14  C10 UNL     1      18.264   3.789  45.301  1.00  0.00    -0.030 C 
HETATM   15  C11 UNL     1      19.482   3.514  44.847  1.00  0.00     0.009 C 
HETATM   16  C12 UNL     1      20.513   3.847  45.892  1.00  0.00    -0.015 C 
HETATM   17  C13 UNL     1      21.485   3.758  46.791  1.00  0.00     0.061 C 
HETATM   18  C14 UNL     1      22.546   3.438  47.724  1.00  0.00     0.100 C 
HETATM   19  N2  UNL     1      22.603   4.701  48.081  1.00  0.00    -0.258 NA
HETATM   20  C15 UNL     1      23.506   5.157  49.053  1.00  0.00     0.228 C 
HETATM   21  N3  UNL     1      24.035   5.515  50.159  1.00  0.00    -0.253 NA
HETATM   22  C16 UNL     1      23.440   5.543  51.450  1.00  0.00     0.418 C 
HETATM   23  N4  UNL     1      22.532   4.469  51.688  1.00  0.00     0.104 N 
HETATM   24  C17 UNL     1      23.188   3.167  51.530  1.00  0.00     0.296 C 
HETATM   25  C18 UNL     1      22.282   2.067  51.869  1.00  0.00     0.138 A 
HETATM   26  C19 UNL     1      22.053   1.026  52.618  1.00  0.00    -0.005 A 
HETATM   27 CL1  UNL     1      23.597   1.594  53.173  1.00  0.00    -0.179 Cl
HETATM   28  C20 UNL     1      21.150  -0.014  52.927  1.00  0.00     0.024 C 
HETATM   29  C21 UNL     1      20.167   0.270  52.052  1.00  0.00     0.100 C 
HETATM   30  H21 UNL     1      21.712   4.497  51.032  1.00  0.00     0.318 HD
ENDROOT
TORSDOF 0
ENDMDL
