MODEL 1
REMARK VINA RESULT:      -9.5      0.000      0.000
REMARK  6 active torsions:
REMARK  status: ('A' for Active; 'I' for Inactive)
REMARK    1  A    between atoms: C2_2  and  C3_3 
REMARK    2  A    between atoms: C2_2  and  N5_27 
REMARK    3  A    between atoms: C4_4  and  C5_5 
REMARK       I    between atoms: C5_5  and  N1_7 
REMARK    4  A    between atoms: N1_7  and  C6_8 
REMARK    5  A    between atoms: C9_11  and  N2_12 
REMARK    6  A    between atoms: N2_12  and  C10_13 
ROOT
HETATM    1  C6  UNL     1      25.969   3.666  49.835  1.00  0.00     0.104 A 
HETATM    2  C7  UNL     1      25.904   3.057  50.996  1.00  0.00     0.064 A 
HETATM    3  C8  UNL     1      24.686   2.396  51.402  1.00  0.00     0.021 A 
HETATM    4  C9  UNL     1      24.673   1.781  52.637  1.00  0.00     0.046 A 
HETATM    5  C16 UNL     1      23.449   1.179  52.947  1.00  0.00     0.049 A 
HETATM    6  C17 UNL     1      22.318   1.154  52.158  1.00  0.00     0.119 A 
HETATM    7  N3  UNL     1      22.437   1.781  50.975  1.00  0.00    -0.263 NA
HETATM    8  C18 UNL     1      23.575   2.383  50.602  1.00  0.00     0.064 A 
HETATM    9  C19 UNL     1      23.549   3.029  49.276  1.00  0.00     0.181 A 
HETATM   10  N4  UNL     1      24.828   3.661  48.993  1.00  0.00    -0.370 N 
HETATM   11  H17 UNL     1      24.764   4.118  48.055  1.00  0.00     0.161 HD
ENDROOT
BRANCH   1  12
HETATM   12  N1  UNL     1      27.093   4.354  49.303  1.00  0.00    -0.310 N 
HETATM   13  C5  UNL     1      27.149   5.610  48.645  1.00  0.00     0.246 C 
HETATM   14  O1  UNL     1      26.069   6.248  48.487  1.00  0.00    -0.268 OA
HETATM   15  H7  UNL     1      27.940   3.768  49.471  1.00  0.00     0.170 HD
BRANCH  13  16
HETATM   16  C4  UNL     1      28.401   6.159  48.166  1.00  0.00     0.072 C 
HETATM   17  C3  UNL     1      29.590   5.587  48.233  1.00  0.00     0.013 C 
BRANCH  17  18
HETATM   18  C2  UNL     1      30.873   6.161  47.738  1.00  0.00     0.242 C 
HETATM   19  C1  UNL     1      31.071   7.563  48.328  1.00  0.00     0.047 C 
BRANCH  18  20
HETATM   20  N5  UNL     1      32.009   5.381  48.117  1.00  0.00     0.100 N 
HETATM   21  C20 UNL     1      32.245   4.205  47.338  1.00  0.00     0.299 C 
HETATM   22  C21 UNL     1      33.681   3.772  47.667  1.00  0.00     0.198 C 
HETATM   23  O2  UNL     1      34.581   4.678  47.115  1.00  0.00    -0.388 OA
HETATM   24  C22 UNL     1      34.134   5.975  47.078  1.00  0.00     0.198 C 
HETATM   25  C23 UNL     1      33.179   6.208  48.257  1.00  0.00     0.299 C 
ENDBRANCH  18  20
ENDBRANCH  17  18
ENDBRANCH  13  16
ENDBRANCH   1  12
BRANCH   4  26
HETATM   26  N2  UNL     1      25.754   1.728  53.556  1.00  0.00    -0.355 N 
HETATM   27  H9  UNL     1      25.472   2.374  54.305  1.00  0.00     0.166 HD
BRANCH  26  28
HETATM   28  C10 UNL     1      26.984   1.017  53.581  1.00  0.00     0.034 A 
HETATM   29  C11 UNL     1      28.192   1.584  53.921  1.00  0.00     0.032 A 
HETATM   30  C12 UNL     1      29.388   0.877  53.941  1.00  0.00     0.046 A 
HETATM   31  C13 UNL     1      29.333  -0.454  53.599  1.00  0.00     0.138 A 
HETATM   32  F1  UNL     1      30.428  -1.254  53.579  1.00  0.00    -0.204 F 
HETATM   33  C14 UNL     1      28.115  -1.010  53.260  1.00  0.00     0.074 A 
HETATM   34 CL1  UNL     1      28.046  -2.720  52.821  1.00  0.00    -0.081 Cl
HETATM   35  C15 UNL     1      26.952  -0.299  53.247  1.00  0.00     0.056 A 
ENDBRANCH  26  28
ENDBRANCH   4  26
TORSDOF 6
ENDMDL
MODEL 2
REMARK VINA RESULT:      -9.4      1.387      1.731
REMARK  6 active torsions:
REMARK  status: ('A' for Active; 'I' for Inactive)
REMARK    1  A    between atoms: C2_2  and  C3_3 
REMARK    2  A    between atoms: C2_2  and  N5_27 
REMARK    3  A    between atoms: C4_4  and  C5_5 
REMARK       I    between atoms: C5_5  and  N1_7 
REMARK    4  A    between atoms: N1_7  and  C6_8 
REMARK    5  A    between atoms: C9_11  and  N2_12 
REMARK    6  A    between atoms: N2_12  and  C10_13 
ROOT
HETATM    1  C6  UNL     1      24.904   3.261  49.828  1.00  0.00     0.104 A 
HETATM    2  C7  UNL     1      24.852   2.564  50.939  1.00  0.00     0.064 A 
HETATM    3  C8  UNL     1      23.698   1.744  51.228  1.00  0.00     0.021 A 
HETATM    4  C9  UNL     1      23.695   1.040  52.414  1.00  0.00     0.046 A 
HETATM    5  C16 UNL     1      22.533   0.285  52.611  1.00  0.00     0.049 A 
HETATM    6  C17 UNL     1      21.453   0.195  51.759  1.00  0.00     0.119 A 
HETATM    7  N3  UNL     1      21.557   0.919  50.631  1.00  0.00    -0.263 NA
HETATM    8  C18 UNL     1      22.636   1.669  50.366  1.00  0.00     0.064 A 
HETATM    9  C19 UNL     1      22.602   2.406  49.089  1.00  0.00     0.181 A 
HETATM   10  N4  UNL     1      23.814   3.195  48.925  1.00  0.00    -0.370 N 
HETATM   11  H17 UNL     1      23.745   3.711  48.018  1.00  0.00     0.161 HD
ENDROOT
BRANCH   1  12
HETATM   12  N1  UNL     1      25.967   4.107  49.411  1.00  0.00    -0.310 N 
HETATM   13  C5  UNL     1      25.919   5.443  48.935  1.00  0.00     0.246 C 
HETATM   14  O1  UNL     1      24.790   6.006  48.855  1.00  0.00    -0.268 OA
HETATM   15  H7  UNL     1      26.860   3.575  49.505  1.00  0.00     0.170 HD
BRANCH  13  16
HETATM   16  C4  UNL     1      27.121   6.154  48.552  1.00  0.00     0.072 C 
HETATM   17  C3  UNL     1      28.316   5.630  48.347  1.00  0.00     0.013 C 
BRANCH  17  18
HETATM   18  C2  UNL     1      29.547   6.371  47.953  1.00  0.00     0.242 C 
HETATM   19  C1  UNL     1      29.526   7.772  48.577  1.00  0.00     0.047 C 
BRANCH  18  20
HETATM   20  N5  UNL     1      30.744   5.731  48.401  1.00  0.00     0.100 N 
HETATM   21  C20 UNL     1      31.279   4.731  47.528  1.00  0.00     0.299 C 
HETATM   22  C21 UNL     1      32.714   4.483  48.013  1.00  0.00     0.198 C 
HETATM   23  O2  UNL     1      33.506   5.588  47.718  1.00  0.00    -0.388 OA
HETATM   24  C22 UNL     1      32.848   6.792  47.773  1.00  0.00     0.198 C 
HETATM   25  C23 UNL     1      31.724   6.699  48.815  1.00  0.00     0.299 C 
ENDBRANCH  18  20
ENDBRANCH  17  18
ENDBRANCH  13  16
ENDBRANCH   1  12
BRANCH   4  26
HETATM   26  N2  UNL     1      24.728   1.038  53.388  1.00  0.00    -0.355 N 
HETATM   27  H9  UNL     1      24.304   1.507  54.198  1.00  0.00     0.166 HD
BRANCH  26  28
HETATM   28  C10 UNL     1      26.064   0.551  53.397  1.00  0.00     0.034 A 
HETATM   29  C11 UNL     1      26.430  -0.693  52.937  1.00  0.00     0.032 A 
HETATM   30  C12 UNL     1      27.741  -1.157  52.951  1.00  0.00     0.046 A 
HETATM   31  C13 UNL     1      28.698  -0.308  53.458  1.00  0.00     0.138 A 
HETATM   32  F1  UNL     1      30.011  -0.640  53.528  1.00  0.00    -0.204 F 
HETATM   33  C14 UNL     1      28.315   0.938  53.915  1.00  0.00     0.074 A 
HETATM   34 CL1  UNL     1      29.547   2.026  54.565  1.00  0.00    -0.081 Cl
HETATM   35  C15 UNL     1      27.025   1.374  53.892  1.00  0.00     0.056 A 
ENDBRANCH  26  28
ENDBRANCH   4  26
TORSDOF 6
ENDMDL
MODEL 3
REMARK VINA RESULT:      -9.0      2.372      2.770
REMARK  6 active torsions:
REMARK  status: ('A' for Active; 'I' for Inactive)
REMARK    1  A    between atoms: C2_2  and  C3_3 
REMARK    2  A    between atoms: C2_2  and  N5_27 
REMARK    3  A    between atoms: C4_4  and  C5_5 
REMARK       I    between atoms: C5_5  and  N1_7 
REMARK    4  A    between atoms: N1_7  and  C6_8 
REMARK    5  A    between atoms: C9_11  and  N2_12 
REMARK    6  A    between atoms: N2_12  and  C10_13 
ROOT
HETATM    1  C6  UNL     1      24.728   3.926  50.003  1.00  0.00     0.104 A 
HETATM    2  C7  UNL     1      25.036   3.247  51.083  1.00  0.00     0.064 A 
HETATM    3  C8  UNL     1      24.154   2.209  51.563  1.00  0.00     0.021 A 
HETATM    4  C9  UNL     1      24.525   1.534  52.708  1.00  0.00     0.046 A 
HETATM    5  C16 UNL     1      23.604   0.557  53.101  1.00  0.00     0.049 A 
HETATM    6  C17 UNL     1      22.423   0.233  52.469  1.00  0.00     0.119 A 
HETATM    7  N3  UNL     1      22.156   0.949  51.362  1.00  0.00    -0.263 NA
HETATM    8  C18 UNL     1      22.985   1.904  50.918  1.00  0.00     0.064 A 
HETATM    9  C19 UNL     1      22.555   2.602  49.692  1.00  0.00     0.181 A 
HETATM   10  N4  UNL     1      23.522   3.623  49.322  1.00  0.00    -0.370 N 
HETATM   11  H17 UNL     1      23.175   4.103  48.461  1.00  0.00     0.161 HD
ENDROOT
BRANCH   1  12
HETATM   12  N1  UNL     1      25.493   4.970  49.414  1.00  0.00    -0.310 N 
HETATM   13  C5  UNL     1      26.827   4.944  48.931  1.00  0.00     0.246 C 
HETATM   14  O1  UNL     1      27.468   3.858  49.015  1.00  0.00    -0.268 OA
HETATM   15  H7  UNL     1      24.899   5.827  49.381  1.00  0.00     0.170 HD
BRANCH  13  16
HETATM   16  C4  UNL     1      27.447   6.120  48.356  1.00  0.00     0.072 C 
HETATM   17  C3  UNL     1      28.699   6.233  47.952  1.00  0.00     0.013 C 
BRANCH  17  18
HETATM   18  C2  UNL     1      29.328   7.449  47.361  1.00  0.00     0.242 C 
HETATM   19  C1  UNL     1      28.458   7.969  46.210  1.00  0.00     0.047 C 
BRANCH  18  20
HETATM   20  N5  UNL     1      29.460   8.515  48.304  1.00  0.00     0.100 N 
HETATM   21  C20 UNL     1      30.652   8.503  49.094  1.00  0.00     0.299 C 
HETATM   22  C21 UNL     1      30.748   9.902  49.719  1.00  0.00     0.198 C 
HETATM   23  O2  UNL     1      31.055  10.835  48.734  1.00  0.00    -0.388 OA
HETATM   24  C22 UNL     1      30.527  10.555  47.498  1.00  0.00     0.198 C 
HETATM   25  C23 UNL     1      29.209   9.788  47.681  1.00  0.00     0.299 C 
ENDBRANCH  18  20
ENDBRANCH  17  18
ENDBRANCH  13  16
ENDBRANCH   1  12
BRANCH   4  26
HETATM   26  N2  UNL     1      25.704   1.759  53.466  1.00  0.00    -0.355 N 
HETATM   27  H9  UNL     1      25.482   2.593  54.025  1.00  0.00     0.166 HD
BRANCH  26  28
HETATM   28  C10 UNL     1      26.958   1.094  53.547  1.00  0.00     0.034 A 
HETATM   29  C11 UNL     1      28.125   1.705  53.946  1.00  0.00     0.032 A 
HETATM   30  C12 UNL     1      29.345   1.043  54.021  1.00  0.00     0.046 A 
HETATM   31  C13 UNL     1      29.357  -0.288  53.671  1.00  0.00     0.138 A 
HETATM   32  F1  UNL     1      30.481  -1.045  53.700  1.00  0.00    -0.204 F 
HETATM   33  C14 UNL     1      28.178  -0.887  53.273  1.00  0.00     0.074 A 
HETATM   34 CL1  UNL     1      28.195  -2.595  52.825  1.00  0.00    -0.081 Cl
HETATM   35  C15 UNL     1      26.991  -0.220  53.207  1.00  0.00     0.056 A 
ENDBRANCH  26  28
ENDBRANCH   4  26
TORSDOF 6
ENDMDL
MODEL 4
REMARK VINA RESULT:      -9.0      3.752      8.510
REMARK  6 active torsions:
REMARK  status: ('A' for Active; 'I' for Inactive)
REMARK    1  A    between atoms: C2_2  and  C3_3 
REMARK    2  A    between atoms: C2_2  and  N5_27 
REMARK    3  A    between atoms: C4_4  and  C5_5 
REMARK       I    between atoms: C5_5  and  N1_7 
REMARK    4  A    between atoms: N1_7  and  C6_8 
REMARK    5  A    between atoms: C9_11  and  N2_12 
REMARK    6  A    between atoms: N2_12  and  C10_13 
ROOT
HETATM    1  C6  UNL     1      25.329   4.950  49.514  1.00  0.00     0.104 A 
HETATM    2  C7  UNL     1      26.588   5.244  49.284  1.00  0.00     0.064 A 
HETATM    3  C8  UNL     1      26.929   6.361  48.434  1.00  0.00     0.021 A 
HETATM    4  C9  UNL     1      28.267   6.617  48.221  1.00  0.00     0.046 A 
HETATM    5  C16 UNL     1      28.498   7.710  47.378  1.00  0.00     0.049 A 
HETATM    6  C17 UNL     1      27.546   8.506  46.779  1.00  0.00     0.119 A 
HETATM    7  N3  UNL     1      26.272   8.172  47.052  1.00  0.00    -0.263 NA
HETATM    8  C18 UNL     1      25.965   7.139  47.850  1.00  0.00     0.064 A 
HETATM    9  C19 UNL     1      24.525   6.898  48.054  1.00  0.00     0.181 A 
HETATM   10  N4  UNL     1      24.319   5.745  48.917  1.00  0.00    -0.370 N 
HETATM   11  H17 UNL     1      23.290   5.599  49.025  1.00  0.00     0.161 HD
ENDROOT
BRANCH   1  12
HETATM   12  N1  UNL     1      24.844   3.888  50.323  1.00  0.00    -0.310 N 
HETATM   13  C5  UNL     1      23.791   2.971  50.067  1.00  0.00     0.246 C 
HETATM   14  O1  UNL     1      23.166   3.075  48.974  1.00  0.00    -0.268 OA
HETATM   15  H7  UNL     1      25.407   3.867  51.202  1.00  0.00     0.170 HD
BRANCH  13  16
HETATM   16  C4  UNL     1      23.435   1.941  51.022  1.00  0.00     0.072 C 
HETATM   17  C3  UNL     1      24.098   1.617  52.116  1.00  0.00     0.013 C 
BRANCH  17  18
HETATM   18  C2  UNL     1      23.723   0.554  53.092  1.00  0.00     0.242 C 
HETATM   19  C1  UNL     1      22.465  -0.173  52.601  1.00  0.00     0.047 C 
BRANCH  18  20
HETATM   20  N5  UNL     1      24.743  -0.433  53.252  1.00  0.00     0.100 N 
HETATM   21  C20 UNL     1      25.920  -0.247  52.459  1.00  0.00     0.299 C 
HETATM   22  C21 UNL     1      26.983  -1.169  53.073  1.00  0.00     0.198 C 
HETATM   23  O2  UNL     1      27.377  -0.669  54.310  1.00  0.00    -0.388 OA
HETATM   24  C22 UNL     1      26.384  -0.030  55.010  1.00  0.00     0.198 C 
HETATM   25  C23 UNL     1      25.032  -0.657  54.644  1.00  0.00     0.299 C 
ENDBRANCH  18  20
ENDBRANCH  17  18
ENDBRANCH  13  16
ENDBRANCH   1  12
BRANCH   4  26
HETATM   26  N2  UNL     1      29.356   5.885  48.765  1.00  0.00    -0.355 N 
HETATM   27  H9  UNL     1      28.925   5.316  49.505  1.00  0.00     0.166 HD
BRANCH  26  28
HETATM   28  C10 UNL     1      30.746   5.838  48.475  1.00  0.00     0.034 A 
HETATM   29  C11 UNL     1      31.687   6.631  49.093  1.00  0.00     0.032 A 
HETATM   30  C12 UNL     1      33.044   6.574  48.800  1.00  0.00     0.046 A 
HETATM   31  C13 UNL     1      33.439   5.672  47.839  1.00  0.00     0.138 A 
HETATM   32  F1  UNL     1      34.732   5.520  47.461  1.00  0.00    -0.204 F 
HETATM   33  C14 UNL     1      32.484   4.883  47.227  1.00  0.00     0.074 A 
HETATM   34 CL1  UNL     1      32.994   3.726  45.994  1.00  0.00    -0.081 Cl
HETATM   35  C15 UNL     1      31.158   4.953  47.530  1.00  0.00     0.056 A 
ENDBRANCH  26  28
ENDBRANCH   4  26
TORSDOF 6
ENDMDL
MODEL 5
REMARK VINA RESULT:      -8.7      5.925     11.842
REMARK  6 active torsions:
REMARK  status: ('A' for Active; 'I' for Inactive)
REMARK    1  A    between atoms: C2_2  and  C3_3 
REMARK    2  A    between atoms: C2_2  and  N5_27 
REMARK    3  A    between atoms: C4_4  and  C5_5 
REMARK       I    between atoms: C5_5  and  N1_7 
REMARK    4  A    between atoms: N1_7  and  C6_8 
REMARK    5  A    between atoms: C9_11  and  N2_12 
REMARK    6  A    between atoms: N2_12  and  C10_13 
ROOT
HETATM    1  C6  UNL     1      22.860  -0.665  53.558  1.00  0.00     0.104 A 
HETATM    2  C7  UNL     1      23.826  -0.063  52.905  1.00  0.00     0.064 A 
HETATM    3  C8  UNL     1      25.142   0.044  53.492  1.00  0.00     0.021 A 
HETATM    4  C9  UNL     1      26.116   0.695  52.763  1.00  0.00     0.046 A 
HETATM    5  C16 UNL     1      27.351   0.759  53.416  1.00  0.00     0.049 A 
HETATM    6  C17 UNL     1      27.654   0.250  54.661  1.00  0.00     0.119 A 
HETATM    7  N3  UNL     1      26.636  -0.366  55.286  1.00  0.00    -0.263 NA
HETATM    8  C18 UNL     1      25.420  -0.470  54.729  1.00  0.00     0.064 A 
HETATM    9  C19 UNL     1      24.407  -1.173  55.539  1.00  0.00     0.181 A 
HETATM   10  N4  UNL     1      23.131  -1.204  54.841  1.00  0.00    -0.370 N 
HETATM   11  H17 UNL     1      22.439  -1.695  55.451  1.00  0.00     0.161 HD
ENDROOT
BRANCH   1  12
HETATM   12  N1  UNL     1      21.523  -0.847  53.111  1.00  0.00    -0.310 N 
HETATM   13  C5  UNL     1      20.329  -0.241  53.580  1.00  0.00     0.246 C 
HETATM   14  O1  UNL     1      20.415   0.588  54.530  1.00  0.00    -0.268 OA
HETATM   15  H7  UNL     1      21.534  -1.541  52.331  1.00  0.00     0.170 HD
BRANCH  13  16
HETATM   16  C4  UNL     1      19.041  -0.553  52.993  1.00  0.00     0.072 C 
HETATM   17  C3  UNL     1      18.086  -1.287  53.534  1.00  0.00     0.013 C 
BRANCH  17  18
HETATM   18  C2  UNL     1      16.764  -1.602  52.922  1.00  0.00     0.242 C 
HETATM   19  C1  UNL     1      16.650  -0.907  51.559  1.00  0.00     0.047 C 
BRANCH  18  20
HETATM   20  N5  UNL     1      16.580  -3.001  52.696  1.00  0.00     0.100 N 
HETATM   21  C20 UNL     1      17.002  -3.864  53.757  1.00  0.00     0.299 C 
HETATM   22  C21 UNL     1      16.364  -5.228  53.459  1.00  0.00     0.198 C 
HETATM   23  O2  UNL     1      14.989  -5.157  53.664  1.00  0.00    -0.388 OA
HETATM   24  C22 UNL     1      14.430  -3.939  53.364  1.00  0.00     0.198 C 
HETATM   25  C23 UNL     1      15.243  -3.280  52.241  1.00  0.00     0.299 C 
ENDBRANCH  18  20
ENDBRANCH  17  18
ENDBRANCH  13  16
ENDBRANCH   1  12
BRANCH   4  26
HETATM   26  N2  UNL     1      25.952   1.272  51.476  1.00  0.00    -0.355 N 
HETATM   27  H9  UNL     1      26.087   0.482  50.833  1.00  0.00     0.166 HD
BRANCH  26  28
HETATM   28  C10 UNL     1      25.670   2.589  51.021  1.00  0.00     0.034 A 
HETATM   29  C11 UNL     1      24.581   3.325  51.430  1.00  0.00     0.032 A 
HETATM   30  C12 UNL     1      24.317   4.613  50.978  1.00  0.00     0.046 A 
HETATM   31  C13 UNL     1      25.205   5.153  50.077  1.00  0.00     0.138 A 
HETATM   32  F1  UNL     1      25.061   6.398  49.559  1.00  0.00    -0.204 F 
HETATM   33  C14 UNL     1      26.293   4.403  49.676  1.00  0.00     0.074 A 
HETATM   34 CL1  UNL     1      27.432   5.098  48.518  1.00  0.00    -0.081 Cl
HETATM   35  C15 UNL     1      26.535   3.142  50.132  1.00  0.00     0.056 A 
ENDBRANCH  26  28
ENDBRANCH   4  26
TORSDOF 6
ENDMDL
MODEL 6
REMARK VINA RESULT:      -8.7      5.557     11.002
REMARK  6 active torsions:
REMARK  status: ('A' for Active; 'I' for Inactive)
REMARK    1  A    between atoms: C2_2  and  C3_3 
REMARK    2  A    between atoms: C2_2  and  N5_27 
REMARK    3  A    between atoms: C4_4  and  C5_5 
REMARK       I    between atoms: C5_5  and  N1_7 
REMARK    4  A    between atoms: N1_7  and  C6_8 
REMARK    5  A    between atoms: C9_11  and  N2_12 
REMARK    6  A    between atoms: N2_12  and  C10_13 
ROOT
HETATM    1  C6  UNL     1      23.513  -0.441  53.509  1.00  0.00     0.104 A 
HETATM    2  C7  UNL     1      24.407   0.174  52.770  1.00  0.00     0.064 A 
HETATM    3  C8  UNL     1      25.763   0.323  53.247  1.00  0.00     0.021 A 
HETATM    4  C9  UNL     1      26.657   0.986  52.432  1.00  0.00     0.046 A 
HETATM    5  C16 UNL     1      27.940   1.091  52.982  1.00  0.00     0.049 A 
HETATM    6  C17 UNL     1      28.356   0.609  54.205  1.00  0.00     0.119 A 
HETATM    7  N3  UNL     1      27.407  -0.021  54.919  1.00  0.00    -0.263 NA
HETATM    8  C18 UNL     1      26.154  -0.164  54.465  1.00  0.00     0.064 A 
HETATM    9  C19 UNL     1      25.228  -0.878  55.364  1.00  0.00     0.181 A 
HETATM   10  N4  UNL     1      23.901  -0.952  54.773  1.00  0.00    -0.370 N 
HETATM   11  H17 UNL     1      23.273  -1.450  55.444  1.00  0.00     0.161 HD
ENDROOT
BRANCH   1  12
HETATM   12  N1  UNL     1      22.150  -0.663  53.174  1.00  0.00    -0.310 N 
HETATM   13  C5  UNL     1      20.982  -0.388  53.933  1.00  0.00     0.246 C 
HETATM   14  O1  UNL     1      21.125   0.130  55.077  1.00  0.00    -0.268 OA
HETATM   15  H7  UNL     1      22.115  -1.089  52.223  1.00  0.00     0.170 HD
BRANCH  13  16
HETATM   16  C4  UNL     1      19.660  -0.685  53.422  1.00  0.00     0.072 C 
HETATM   17  C3  UNL     1      19.086  -0.150  52.360  1.00  0.00     0.013 C 
BRANCH  17  18
HETATM   18  C2  UNL     1      17.723  -0.463  51.843  1.00  0.00     0.242 C 
HETATM   19  C1  UNL     1      17.057  -1.505  52.749  1.00  0.00     0.047 C 
BRANCH  18  20
HETATM   20  N5  UNL     1      16.867   0.681  51.817  1.00  0.00     0.100 N 
HETATM   21  C20 UNL     1      17.127   1.631  50.780  1.00  0.00     0.299 C 
HETATM   22  C21 UNL     1      15.883   2.528  50.718  1.00  0.00     0.198 C 
HETATM   23  O2  UNL     1      14.812   1.807  50.197  1.00  0.00    -0.388 OA
HETATM   24  C22 UNL     1      14.812   0.473  50.521  1.00  0.00     0.198 C 
HETATM   25  C23 UNL     1      15.483   0.291  51.889  1.00  0.00     0.299 C 
ENDBRANCH  18  20
ENDBRANCH  17  18
ENDBRANCH  13  16
ENDBRANCH   1  12
BRANCH   4  26
HETATM   26  N2  UNL     1      26.375   1.538  51.155  1.00  0.00    -0.355 N 
HETATM   27  H9  UNL     1      26.500   0.746  50.511  1.00  0.00     0.166 HD
BRANCH  26  28
HETATM   28  C10 UNL     1      26.001   2.835  50.709  1.00  0.00     0.034 A 
HETATM   29  C11 UNL     1      26.673   3.533  49.731  1.00  0.00     0.032 A 
HETATM   30  C12 UNL     1      26.297   4.801  49.303  1.00  0.00     0.046 A 
HETATM   31  C13 UNL     1      25.196   5.363  49.907  1.00  0.00     0.138 A 
HETATM   32  F1  UNL     1      24.728   6.593  49.582  1.00  0.00    -0.204 F 
HETATM   33  C14 UNL     1      24.532   4.651  50.887  1.00  0.00     0.074 A 
HETATM   34 CL1  UNL     1      23.119   5.375  51.661  1.00  0.00    -0.081 Cl
HETATM   35  C15 UNL     1      24.916   3.408  51.292  1.00  0.00     0.056 A 
ENDBRANCH  26  28
ENDBRANCH   4  26
TORSDOF 6
ENDMDL
MODEL 7
REMARK VINA RESULT:      -8.5      4.009      5.935
REMARK  6 active torsions:
REMARK  status: ('A' for Active; 'I' for Inactive)
REMARK    1  A    between atoms: C2_2  and  C3_3 
REMARK    2  A    between atoms: C2_2  and  N5_27 
REMARK    3  A    between atoms: C4_4  and  C5_5 
REMARK       I    between atoms: C5_5  and  N1_7 
REMARK    4  A    between atoms: N1_7  and  C6_8 
REMARK    5  A    between atoms: C9_11  and  N2_12 
REMARK    6  A    between atoms: N2_12  and  C10_13 
ROOT
HETATM    1  C6  UNL     1      25.537   3.273  51.240  1.00  0.00     0.104 A 
HETATM    2  C7  UNL     1      24.452   2.731  51.743  1.00  0.00     0.064 A 
HETATM    3  C8  UNL     1      24.544   1.532  52.543  1.00  0.00     0.021 A 
HETATM    4  C9  UNL     1      23.370   1.002  53.038  1.00  0.00     0.046 A 
HETATM    5  C16 UNL     1      23.558  -0.162  53.790  1.00  0.00     0.049 A 
HETATM    6  C17 UNL     1      24.758  -0.785  54.061  1.00  0.00     0.119 A 
HETATM    7  N3  UNL     1      25.841  -0.187  53.533  1.00  0.00    -0.263 NA
HETATM    8  C18 UNL     1      25.747   0.931  52.800  1.00  0.00     0.064 A 
HETATM    9  C19 UNL     1      27.023   1.467  52.290  1.00  0.00     0.181 A 
HETATM   10  N4  UNL     1      26.791   2.664  51.497  1.00  0.00    -0.370 N 
HETATM   11  H17 UNL     1      27.714   3.003  51.143  1.00  0.00     0.161 HD
ENDROOT
BRANCH   1  12
HETATM   12  N1  UNL     1      25.602   4.445  50.439  1.00  0.00    -0.310 N 
HETATM   13  C5  UNL     1      26.477   4.751  49.364  1.00  0.00     0.246 C 
HETATM   14  O1  UNL     1      27.338   3.888  49.034  1.00  0.00    -0.268 OA
HETATM   15  H7  UNL     1      24.866   5.106  50.771  1.00  0.00     0.170 HD
BRANCH  13  16
HETATM   16  C4  UNL     1      26.394   6.013  48.656  1.00  0.00     0.072 C 
HETATM   17  C3  UNL     1      27.405   6.729  48.200  1.00  0.00     0.013 C 
BRANCH  17  18
HETATM   18  C2  UNL     1      27.308   8.027  47.473  1.00  0.00     0.242 C 
HETATM   19  C1  UNL     1      25.932   8.655  47.725  1.00  0.00     0.047 C 
BRANCH  18  20
HETATM   20  N5  UNL     1      28.288   8.975  47.903  1.00  0.00     0.100 N 
HETATM   21  C20 UNL     1      28.717   8.852  49.263  1.00  0.00     0.299 C 
HETATM   22  C21 UNL     1      30.002   9.686  49.367  1.00  0.00     0.198 C 
HETATM   23  O2  UNL     1      31.029   9.052  48.674  1.00  0.00    -0.388 OA
HETATM   24  C22 UNL     1      30.623   8.360  47.560  1.00  0.00     0.198 C 
HETATM   25  C23 UNL     1      29.382   9.046  46.971  1.00  0.00     0.299 C 
ENDBRANCH  18  20
ENDBRANCH  17  18
ENDBRANCH  13  16
ENDBRANCH   1  12
BRANCH   4  26
HETATM   26  N2  UNL     1      22.067   1.528  52.839  1.00  0.00    -0.355 N 
HETATM   27  H9  UNL     1      22.066   2.398  53.388  1.00  0.00     0.166 HD
BRANCH  26  28
HETATM   28  C10 UNL     1      20.934   1.087  52.102  1.00  0.00     0.034 A 
HETATM   29  C11 UNL     1      20.720   1.384  50.775  1.00  0.00     0.032 A 
HETATM   30  C12 UNL     1      19.608   0.946  50.065  1.00  0.00     0.046 A 
HETATM   31  C13 UNL     1      18.692   0.181  50.749  1.00  0.00     0.138 A 
HETATM   32  F1  UNL     1      17.565  -0.307  50.173  1.00  0.00    -0.204 F 
HETATM   33  C14 UNL     1      18.920  -0.109  52.080  1.00  0.00     0.074 A 
HETATM   34 CL1  UNL     1      17.742  -1.092  52.956  1.00  0.00    -0.081 Cl
HETATM   35  C15 UNL     1      20.018   0.329  52.758  1.00  0.00     0.056 A 
ENDBRANCH  26  28
ENDBRANCH   4  26
TORSDOF 6
ENDMDL
MODEL 8
REMARK VINA RESULT:      -8.3      3.582      5.500
REMARK  6 active torsions:
REMARK  status: ('A' for Active; 'I' for Inactive)
REMARK    1  A    between atoms: C2_2  and  C3_3 
REMARK    2  A    between atoms: C2_2  and  N5_27 
REMARK    3  A    between atoms: C4_4  and  C5_5 
REMARK       I    between atoms: C5_5  and  N1_7 
REMARK    4  A    between atoms: N1_7  and  C6_8 
REMARK    5  A    between atoms: C9_11  and  N2_12 
REMARK    6  A    between atoms: N2_12  and  C10_13 
ROOT
HETATM    1  C6  UNL     1      26.225   2.479  51.635  1.00  0.00     0.104 A 
HETATM    2  C7  UNL     1      24.957   2.230  51.866  1.00  0.00     0.064 A 
HETATM    3  C8  UNL     1      24.579   1.134  52.728  1.00  0.00     0.021 A 
HETATM    4  C9  UNL     1      23.232   0.913  52.928  1.00  0.00     0.046 A 
HETATM    5  C16 UNL     1      22.964  -0.174  53.766  1.00  0.00     0.049 A 
HETATM    6  C17 UNL     1      23.889  -0.996  54.374  1.00  0.00     0.119 A 
HETATM    7  N3  UNL     1      25.173  -0.694  54.115  1.00  0.00    -0.263 NA
HETATM    8  C18 UNL     1      25.516   0.331  53.322  1.00  0.00     0.064 A 
HETATM    9  C19 UNL     1      26.964   0.535  53.133  1.00  0.00     0.181 A 
HETATM   10  N4  UNL     1      27.208   1.659  52.242  1.00  0.00    -0.370 N 
HETATM   11  H17 UNL     1      28.241   1.760  52.123  1.00  0.00     0.161 HD
ENDROOT
BRANCH   1  12
HETATM   12  N1  UNL     1      26.745   3.517  50.815  1.00  0.00    -0.310 N 
HETATM   13  C5  UNL     1      26.241   4.037  49.594  1.00  0.00     0.246 C 
HETATM   14  O1  UNL     1      25.177   3.537  49.130  1.00  0.00    -0.268 OA
HETATM   15  H7  UNL     1      27.618   3.875  51.262  1.00  0.00     0.170 HD
BRANCH  13  16
HETATM   16  C4  UNL     1      26.916   5.109  48.892  1.00  0.00     0.072 C 
HETATM   17  C3  UNL     1      28.191   5.151  48.554  1.00  0.00     0.013 C 
BRANCH  17  18
HETATM   18  C2  UNL     1      28.876   6.260  47.832  1.00  0.00     0.242 C 
HETATM   19  C1  UNL     1      27.862   7.365  47.508  1.00  0.00     0.047 C 
BRANCH  18  20
HETATM   20  N5  UNL     1      29.919   6.860  48.603  1.00  0.00     0.100 N 
HETATM   21  C20 UNL     1      31.193   6.214  48.536  1.00  0.00     0.299 C 
HETATM   22  C21 UNL     1      32.201   7.225  49.102  1.00  0.00     0.198 C 
HETATM   23  O2  UNL     1      32.357   8.280  48.208  1.00  0.00    -0.388 OA
HETATM   24  C22 UNL     1      31.224   8.601  47.501  1.00  0.00     0.198 C 
HETATM   25  C23 UNL     1      29.992   8.277  48.358  1.00  0.00     0.299 C 
ENDBRANCH  18  20
ENDBRANCH  17  18
ENDBRANCH  13  16
ENDBRANCH   1  12
BRANCH   4  26
HETATM   26  N2  UNL     1      22.169   1.669  52.368  1.00  0.00    -0.355 N 
HETATM   27  H9  UNL     1      21.706   2.087  53.186  1.00  0.00     0.166 HD
BRANCH  26  28
HETATM   28  C10 UNL     1      21.721   1.894  51.038  1.00  0.00     0.034 A 
HETATM   29  C11 UNL     1      21.607   0.903  50.089  1.00  0.00     0.032 A 
HETATM   30  C12 UNL     1      21.167   1.137  48.791  1.00  0.00     0.046 A 
HETATM   31  C13 UNL     1      20.839   2.432  48.466  1.00  0.00     0.138 A 
HETATM   32  F1  UNL     1      20.399   2.792  47.235  1.00  0.00    -0.204 F 
HETATM   33  C14 UNL     1      20.958   3.416  49.428  1.00  0.00     0.074 A 
HETATM   34 CL1  UNL     1      20.536   5.079  49.008  1.00  0.00    -0.081 Cl
HETATM   35  C15 UNL     1      21.390   3.167  50.696  1.00  0.00     0.056 A 
ENDBRANCH  26  28
ENDBRANCH   4  26
TORSDOF 6
ENDMDL
MODEL 9
REMARK VINA RESULT:      -8.2      7.038     12.486
REMARK  6 active torsions:
REMARK  status: ('A' for Active; 'I' for Inactive)
REMARK    1  A    between atoms: C2_2  and  C3_3 
REMARK    2  A    between atoms: C2_2  and  N5_27 
REMARK    3  A    between atoms: C4_4  and  C5_5 
REMARK       I    between atoms: C5_5  and  N1_7 
REMARK    4  A    between atoms: N1_7  and  C6_8 
REMARK    5  A    between atoms: C9_11  and  N2_12 
REMARK    6  A    between atoms: N2_12  and  C10_13 
ROOT
HETATM    1  C6  UNL     1      20.522  -0.400  53.389  1.00  0.00     0.104 A 
HETATM    2  C7  UNL     1      21.517   0.194  52.772  1.00  0.00     0.064 A 
HETATM    3  C8  UNL     1      22.875  -0.014  53.220  1.00  0.00     0.021 A 
HETATM    4  C9  UNL     1      23.879   0.643  52.540  1.00  0.00     0.046 A 
HETATM    5  C16 UNL     1      25.157   0.389  53.052  1.00  0.00     0.049 A 
HETATM    6  C17 UNL     1      25.471  -0.421  54.123  1.00  0.00     0.119 A 
HETATM    7  N3  UNL     1      24.420  -1.014  54.714  1.00  0.00    -0.263 NA
HETATM    8  C18 UNL     1      23.163  -0.824  54.286  1.00  0.00     0.064 A 
HETATM    9  C19 UNL     1      22.118  -1.543  55.037  1.00  0.00     0.181 A 
HETATM   10  N4  UNL     1      20.803  -1.242  54.493  1.00  0.00    -0.370 N 
HETATM   11  H17 UNL     1      20.091  -1.757  55.060  1.00  0.00     0.161 HD
ENDROOT
BRANCH   1  12
HETATM   12  N1  UNL     1      19.142  -0.292  53.064  1.00  0.00    -0.310 N 
HETATM   13  C5  UNL     1      18.111  -1.260  53.187  1.00  0.00     0.246 C 
HETATM   14  O1  UNL     1      18.415  -2.397  53.649  1.00  0.00    -0.268 OA
HETATM   15  H7  UNL     1      18.972   0.668  52.691  1.00  0.00     0.170 HD
BRANCH  13  16
HETATM   16  C4  UNL     1      16.746  -0.966  52.801  1.00  0.00     0.072 C 
HETATM   17  C3  UNL     1      16.276   0.198  52.391  1.00  0.00     0.013 C 
BRANCH  17  18
HETATM   18  C2  UNL     1      14.869   0.490  51.996  1.00  0.00     0.242 C 
HETATM   19  C1  UNL     1      14.034  -0.793  52.084  1.00  0.00     0.047 C 
BRANCH  18  20
HETATM   20  N5  UNL     1      14.246   1.455  52.846  1.00  0.00     0.100 N 
HETATM   21  C20 UNL     1      14.643   2.815  52.641  1.00  0.00     0.299 C 
HETATM   22  C21 UNL     1      13.592   3.667  53.365  1.00  0.00     0.198 C 
HETATM   23  O2  UNL     1      12.384   3.604  52.677  1.00  0.00    -0.388 OA
HETATM   24  C22 UNL     1      12.141   2.402  52.060  1.00  0.00     0.198 C 
HETATM   25  C23 UNL     1      12.818   1.283  52.864  1.00  0.00     0.299 C 
ENDBRANCH  18  20
ENDBRANCH  17  18
ENDBRANCH  13  16
ENDBRANCH   1  12
BRANCH   4  26
HETATM   26  N2  UNL     1      23.709   1.508  51.428  1.00  0.00    -0.355 N 
HETATM   27  H9  UNL     1      23.677   0.871  50.622  1.00  0.00     0.166 HD
BRANCH  26  28
HETATM   28  C10 UNL     1      23.595   2.919  51.292  1.00  0.00     0.034 A 
HETATM   29  C11 UNL     1      23.436   3.781  52.354  1.00  0.00     0.032 A 
HETATM   30  C12 UNL     1      23.326   5.159  52.208  1.00  0.00     0.046 A 
HETATM   31  C13 UNL     1      23.379   5.658  50.927  1.00  0.00     0.138 A 
HETATM   32  F1  UNL     1      23.282   6.981  50.649  1.00  0.00    -0.204 F 
HETATM   33  C14 UNL     1      23.538   4.781  49.872  1.00  0.00     0.074 A 
HETATM   34 CL1  UNL     1      23.606   5.424  48.228  1.00  0.00    -0.081 Cl
HETATM   35  C15 UNL     1      23.646   3.432  50.036  1.00  0.00     0.056 A 
ENDBRANCH  26  28
ENDBRANCH   4  26
TORSDOF 6
ENDMDL
