MODEL 1
REMARK VINA RESULT:      -8.3      0.000      0.000
REMARK  7 active torsions:
REMARK  status: ('A' for Active; 'I' for Inactive)
REMARK    1  A    between atoms: O1_2  and  C2_3 
REMARK    2  A    between atoms: C2_3  and  C3_4 
REMARK    3  A    between atoms: C3_4  and  C4_5 
REMARK    4  A    between atoms: C7_8  and  O2_9 
REMARK    5  A    between atoms: O2_9  and  C8_10 
REMARK    6  A    between atoms: C8_10  and  C9_11 
REMARK    7  A    between atoms: C12_14  and  O3_15 
ROOT
HETATM    1  C4  UNL     1      24.304   0.110  53.463  1.00  0.00    -0.037 C 
HETATM    2  C5  UNL     1      24.089   1.120  52.648  1.00  0.00     0.012 C 
HETATM    3  C6  UNL     1      24.939   1.976  51.844  1.00  0.00     0.038 C 
HETATM    4  C7  UNL     1      26.184   2.261  51.499  1.00  0.00     0.082 C 
HETATM    5  C16 UNL     1      26.987   1.307  52.299  1.00  0.00     0.032 C 
HETATM    6  C17 UNL     1      27.284   0.076  52.638  1.00  0.00     0.127 C 
HETATM    7  N1  UNL     1      27.333  -0.195  54.058  1.00  0.00    -0.287 N 
HETATM    8  C18 UNL     1      28.265   0.595  54.841  1.00  0.00     0.295 C 
HETATM    9  N2  UNL     1      28.741   1.732  54.016  1.00  0.00    -0.279 NA
HETATM   10  C19 UNL     1      27.864   2.190  53.131  1.00  0.00     0.128 C 
HETATM   11  N3  UNL     1      26.401  -1.129  53.854  1.00  0.00    -0.329 N 
HETATM   12  C20 UNL     1      25.043  -0.940  54.168  1.00  0.00     0.178 C 
HETATM   13  H21 UNL     1      26.723  -2.116  53.764  1.00  0.00     0.180 HD
ENDROOT
BRANCH   4  14
HETATM   14  O2  UNL     1      26.903   3.111  50.699  1.00  0.00    -0.346 OA
BRANCH  14  15
HETATM   15  C8  UNL     1      26.675   3.357  49.343  1.00  0.00     0.214 C 
BRANCH  15  16
HETATM   16  C9  UNL     1      27.092   4.745  48.997  1.00  0.00    -0.034 A 
HETATM   17  C10 UNL     1      26.123   5.688  49.306  1.00  0.00     0.012 A 
HETATM   18  C11 UNL     1      26.334   7.042  49.061  1.00  0.00     0.037 A 
HETATM   19  C12 UNL     1      27.535   7.401  48.503  1.00  0.00     0.068 A 
HETATM   20  C14 UNL     1      28.504   6.471  48.191  1.00  0.00     0.037 A 
HETATM   21  C15 UNL     1      28.307   5.136  48.427  1.00  0.00     0.012 A 
BRANCH  19  22
HETATM   22  O3  UNL     1      27.781   8.737  48.249  1.00  0.00    -0.356 OA
HETATM   23  C13 UNL     1      28.406   9.557  49.227  1.00  0.00     0.210 C 
ENDBRANCH  19  22
ENDBRANCH  15  16
ENDBRANCH  14  15
ENDBRANCH   4  14
BRANCH   1  24
HETATM   24  C3  UNL     1      22.899  -0.144  53.834  1.00  0.00     0.033 C 
BRANCH  24  25
HETATM   25  C2  UNL     1      21.731  -0.000  53.246  1.00  0.00     0.134 C 
BRANCH  25  26
HETATM   26  O1  UNL     1      20.694  -0.106  52.379  1.00  0.00    -0.368 OA
HETATM   27  C1  UNL     1      20.873   0.443  51.061  1.00  0.00     0.208 C 
ENDBRANCH  25  26
ENDBRANCH  24  25
ENDBRANCH   1  24
TORSDOF 7
ENDMDL
MODEL 2
REMARK VINA RESULT:      -7.8      3.805      8.368
REMARK  7 active torsions:
REMARK  status: ('A' for Active; 'I' for Inactive)
REMARK    1  A    between atoms: O1_2  and  C2_3 
REMARK    2  A    between atoms: C2_3  and  C3_4 
REMARK    3  A    between atoms: C3_4  and  C4_5 
REMARK    4  A    between atoms: C7_8  and  O2_9 
REMARK    5  A    between atoms: O2_9  and  C8_10 
REMARK    6  A    between atoms: C8_10  and  C9_11 
REMARK    7  A    between atoms: C12_14  and  O3_15 
ROOT
HETATM    1  C4  UNL     1      27.738   6.009  48.285  1.00  0.00    -0.037 C 
HETATM    2  C5  UNL     1      27.554   4.812  48.798  1.00  0.00     0.012 C 
HETATM    3  C6  UNL     1      26.431   4.130  49.409  1.00  0.00     0.038 C 
HETATM    4  C7  UNL     1      25.168   4.234  49.789  1.00  0.00     0.082 C 
HETATM    5  C16 UNL     1      24.823   5.633  49.447  1.00  0.00     0.032 C 
HETATM    6  C17 UNL     1      24.713   6.593  48.561  1.00  0.00     0.127 C 
HETATM    7  N1  UNL     1      25.325   7.855  48.915  1.00  0.00    -0.287 N 
HETATM    8  C18 UNL     1      24.862   8.483  50.139  1.00  0.00     0.295 C 
HETATM    9  N2  UNL     1      24.062   7.501  50.909  1.00  0.00    -0.279 NA
HETATM   10  C19 UNL     1      24.431   6.235  50.761  1.00  0.00     0.128 C 
HETATM   11  N3  UNL     1      26.055   7.748  47.802  1.00  0.00    -0.329 N 
HETATM   12  C20 UNL     1      27.405   7.353  47.805  1.00  0.00     0.178 C 
HETATM   13  H21 UNL     1      25.726   8.268  46.961  1.00  0.00     0.180 HD
ENDROOT
BRANCH   4  14
HETATM   14  O2  UNL     1      24.163   3.504  50.369  1.00  0.00    -0.346 OA
BRANCH  14  15
HETATM   15  C8  UNL     1      24.211   2.146  50.691  1.00  0.00     0.214 C 
BRANCH  15  16
HETATM   16  C9  UNL     1      25.103   1.930  51.865  1.00  0.00    -0.034 A 
HETATM   17  C10 UNL     1      26.154   1.068  51.589  1.00  0.00     0.012 A 
HETATM   18  C11 UNL     1      27.097   0.749  52.562  1.00  0.00     0.037 A 
HETATM   19  C12 UNL     1      26.943   1.321  53.799  1.00  0.00     0.068 A 
HETATM   20  C14 UNL     1      25.902   2.179  54.084  1.00  0.00     0.037 A 
HETATM   21  C15 UNL     1      24.966   2.499  53.135  1.00  0.00     0.012 A 
BRANCH  19  22
HETATM   22  O3  UNL     1      27.863   1.031  54.789  1.00  0.00    -0.356 OA
HETATM   23  C13 UNL     1      28.810  -0.014  54.613  1.00  0.00     0.210 C 
ENDBRANCH  19  22
ENDBRANCH  15  16
ENDBRANCH  14  15
ENDBRANCH   4  14
BRANCH   1  24
HETATM   24  C3  UNL     1      29.154   5.845  47.908  1.00  0.00     0.033 C 
BRANCH  24  25
HETATM   25  C2  UNL     1      30.297   5.765  48.555  1.00  0.00     0.134 C 
BRANCH  25  26
HETATM   26  O1  UNL     1      31.368   5.295  49.240  1.00  0.00    -0.368 OA
HETATM   27  C1  UNL     1      32.575   6.079  49.204  1.00  0.00     0.208 C 
ENDBRANCH  25  26
ENDBRANCH  24  25
ENDBRANCH   1  24
TORSDOF 7
ENDMDL
MODEL 3
REMARK VINA RESULT:      -7.7      2.356      4.199
REMARK  7 active torsions:
REMARK  status: ('A' for Active; 'I' for Inactive)
REMARK    1  A    between atoms: O1_2  and  C2_3 
REMARK    2  A    between atoms: C2_3  and  C3_4 
REMARK    3  A    between atoms: C3_4  and  C4_5 
REMARK    4  A    between atoms: C7_8  and  O2_9 
REMARK    5  A    between atoms: O2_9  and  C8_10 
REMARK    6  A    between atoms: C8_10  and  C9_11 
REMARK    7  A    between atoms: C12_14  and  O3_15 
ROOT
HETATM    1  C4  UNL     1      25.644  -0.075  52.559  1.00  0.00    -0.037 C 
HETATM    2  C5  UNL     1      26.406   0.767  51.895  1.00  0.00     0.012 C 
HETATM    3  C6  UNL     1      26.208   2.086  51.328  1.00  0.00     0.038 C 
HETATM    4  C7  UNL     1      25.344   3.067  51.125  1.00  0.00     0.082 C 
HETATM    5  C16 UNL     1      24.090   2.546  51.717  1.00  0.00     0.032 C 
HETATM    6  C17 UNL     1      23.429   2.076  52.746  1.00  0.00     0.127 C 
HETATM    7  N1  UNL     1      22.685   0.856  52.518  1.00  0.00    -0.287 N 
HETATM    8  C18 UNL     1      21.681   0.892  51.471  1.00  0.00     0.295 C 
HETATM    9  N2  UNL     1      21.874   2.119  50.662  1.00  0.00    -0.279 NA
HETATM   10  C19 UNL     1      23.130   2.539  50.568  1.00  0.00     0.128 C 
HETATM   11  N3  UNL     1      23.397   0.305  53.504  1.00  0.00    -0.329 N 
HETATM   12  C20 UNL     1      24.469  -0.576  53.277  1.00  0.00     0.178 C 
HETATM   13  H21 UNL     1      22.958   0.268  54.449  1.00  0.00     0.180 HD
ENDROOT
BRANCH   4  14
HETATM   14  O2  UNL     1      25.258   4.317  50.567  1.00  0.00    -0.346 OA
BRANCH  14  15
HETATM   15  C8  UNL     1      25.284   4.614  49.203  1.00  0.00     0.214 C 
BRANCH  15  16
HETATM   16  C9  UNL     1      26.548   5.323  48.857  1.00  0.00    -0.034 A 
HETATM   17  C10 UNL     1      26.386   6.697  48.773  1.00  0.00     0.012 A 
HETATM   18  C11 UNL     1      27.458   7.530  48.466  1.00  0.00     0.037 A 
HETATM   19  C12 UNL     1      28.676   6.936  48.252  1.00  0.00     0.068 A 
HETATM   20  C14 UNL     1      28.848   5.570  48.333  1.00  0.00     0.037 A 
HETATM   21  C15 UNL     1      27.800   4.740  48.632  1.00  0.00     0.012 A 
BRANCH  19  22
HETATM   22  O3  UNL     1      29.764   7.731  47.949  1.00  0.00    -0.356 OA
HETATM   23  C13 UNL     1      30.267   8.663  48.898  1.00  0.00     0.210 C 
ENDBRANCH  19  22
ENDBRANCH  15  16
ENDBRANCH  14  15
ENDBRANCH   4  14
BRANCH   1  24
HETATM   24  C3  UNL     1      26.642  -1.147  52.732  1.00  0.00     0.033 C 
BRANCH  24  25
HETATM   25  C2  UNL     1      27.883  -1.217  53.159  1.00  0.00     0.134 C 
BRANCH  25  26
HETATM   26  O1  UNL     1      29.005  -1.088  53.910  1.00  0.00    -0.368 OA
HETATM   27  C1  UNL     1      29.640   0.203  53.939  1.00  0.00     0.208 C 
ENDBRANCH  25  26
ENDBRANCH  24  25
ENDBRANCH   1  24
TORSDOF 7
ENDMDL
MODEL 4
REMARK VINA RESULT:      -7.5      3.144      5.183
REMARK  7 active torsions:
REMARK  status: ('A' for Active; 'I' for Inactive)
REMARK    1  A    between atoms: O1_2  and  C2_3 
REMARK    2  A    between atoms: C2_3  and  C3_4 
REMARK    3  A    between atoms: C3_4  and  C4_5 
REMARK    4  A    between atoms: C7_8  and  O2_9 
REMARK    5  A    between atoms: O2_9  and  C8_10 
REMARK    6  A    between atoms: C8_10  and  C9_11 
REMARK    7  A    between atoms: C12_14  and  O3_15 
ROOT
HETATM    1  C4  UNL     1      22.930  -0.198  53.942  1.00  0.00    -0.037 C 
HETATM    2  C5  UNL     1      23.619   0.417  53.004  1.00  0.00     0.012 C 
HETATM    3  C6  UNL     1      23.282   1.325  51.927  1.00  0.00     0.038 C 
HETATM    4  C7  UNL     1      22.304   1.962  51.304  1.00  0.00     0.082 C 
HETATM    5  C16 UNL     1      21.090   1.516  52.027  1.00  0.00     0.032 C 
HETATM    6  C17 UNL     1      20.408   1.403  53.140  1.00  0.00     0.127 C 
HETATM    7  N1  UNL     1      19.884   0.086  53.431  1.00  0.00    -0.287 N 
HETATM    8  C18 UNL     1      18.995  -0.494  52.440  1.00  0.00     0.295 C 
HETATM    9  N2  UNL     1      19.081   0.302  51.193  1.00  0.00    -0.279 NA
HETATM   10  C19 UNL     1      20.262   0.864  50.964  1.00  0.00     0.128 C 
HETATM   11  N3  UNL     1      20.568   0.128  54.576  1.00  0.00    -0.329 N 
HETATM   12  C20 UNL     1      21.778  -0.560  54.773  1.00  0.00     0.178 C 
HETATM   13  H21 UNL     1      20.048   0.406  55.435  1.00  0.00     0.180 HD
ENDROOT
BRANCH   4  14
HETATM   14  O2  UNL     1      22.085   2.832  50.267  1.00  0.00    -0.346 OA
BRANCH  14  15
HETATM   15  C8  UNL     1      22.737   2.822  49.032  1.00  0.00     0.214 C 
BRANCH  15  16
HETATM   16  C9  UNL     1      23.925   3.720  49.071  1.00  0.00    -0.034 A 
HETATM   17  C10 UNL     1      23.643   5.002  48.625  1.00  0.00     0.012 A 
HETATM   18  C11 UNL     1      24.628   5.985  48.595  1.00  0.00     0.037 A 
HETATM   19  C12 UNL     1      25.882   5.633  49.024  1.00  0.00     0.068 A 
HETATM   20  C14 UNL     1      26.174   4.361  49.469  1.00  0.00     0.037 A 
HETATM   21  C15 UNL     1      25.213   3.384  49.502  1.00  0.00     0.012 A 
BRANCH  19  22
HETATM   22  O3  UNL     1      26.885   6.584  49.012  1.00  0.00    -0.356 OA
HETATM   23  C13 UNL     1      28.097   6.350  48.308  1.00  0.00     0.210 C 
ENDBRANCH  19  22
ENDBRANCH  15  16
ENDBRANCH  14  15
ENDBRANCH   4  14
BRANCH   1  24
HETATM   24  C3  UNL     1      24.056  -0.906  54.579  1.00  0.00     0.033 C 
BRANCH  24  25
HETATM   25  C2  UNL     1      25.336  -0.665  54.762  1.00  0.00     0.134 C 
BRANCH  25  26
HETATM   26  O1  UNL     1      26.551  -0.473  55.334  1.00  0.00    -0.368 OA
HETATM   27  C1  UNL     1      27.595   0.074  54.507  1.00  0.00     0.208 C 
ENDBRANCH  25  26
ENDBRANCH  24  25
ENDBRANCH   1  24
TORSDOF 7
ENDMDL
MODEL 5
REMARK VINA RESULT:      -7.4      2.044      8.041
REMARK  7 active torsions:
REMARK  status: ('A' for Active; 'I' for Inactive)
REMARK    1  A    between atoms: O1_2  and  C2_3 
REMARK    2  A    between atoms: C2_3  and  C3_4 
REMARK    3  A    between atoms: C3_4  and  C4_5 
REMARK    4  A    between atoms: C7_8  and  O2_9 
REMARK    5  A    between atoms: O2_9  and  C8_10 
REMARK    6  A    between atoms: C8_10  and  C9_11 
REMARK    7  A    between atoms: C12_14  and  O3_15 
ROOT
HETATM    1  C4  UNL     1      25.706   2.590  51.024  1.00  0.00    -0.037 C 
HETATM    2  C5  UNL     1      24.446   2.228  50.912  1.00  0.00     0.012 C 
HETATM    3  C6  UNL     1      23.554   1.396  51.696  1.00  0.00     0.038 C 
HETATM    4  C7  UNL     1      23.444   0.619  52.761  1.00  0.00     0.082 C 
HETATM    5  C16 UNL     1      24.812   0.622  53.330  1.00  0.00     0.032 C 
HETATM    6  C17 UNL     1      25.838   1.274  53.820  1.00  0.00     0.127 C 
HETATM    7  N1  UNL     1      27.125   0.953  53.244  1.00  0.00    -0.287 N 
HETATM    8  C18 UNL     1      27.548  -0.433  53.325  1.00  0.00     0.295 C 
HETATM    9  N2  UNL     1      26.389  -1.266  53.724  1.00  0.00    -0.279 NA
HETATM   10  C19 UNL     1      25.208  -0.822  53.310  1.00  0.00     0.128 C 
HETATM   11  N3  UNL     1      27.240   2.244  52.924  1.00  0.00    -0.329 N 
HETATM   12  C20 UNL     1      27.036   2.734  51.622  1.00  0.00     0.178 C 
HETATM   13  H21 UNL     1      27.798   2.849  53.565  1.00  0.00     0.180 HD
ENDROOT
BRANCH   4  14
HETATM   14  O2  UNL     1      22.524  -0.138  53.440  1.00  0.00    -0.346 OA
BRANCH  14  15
HETATM   15  C8  UNL     1      21.380   0.337  54.085  1.00  0.00     0.214 C 
BRANCH  15  16
HETATM   16  C9  UNL     1      20.192   0.185  53.199  1.00  0.00    -0.034 A 
HETATM   17  C10 UNL     1      19.378  -0.874  53.572  1.00  0.00     0.012 A 
HETATM   18  C11 UNL     1      18.215  -1.170  52.866  1.00  0.00     0.037 A 
HETATM   19  C12 UNL     1      17.911  -0.373  51.791  1.00  0.00     0.068 A 
HETATM   20  C14 UNL     1      18.715   0.681  51.411  1.00  0.00     0.037 A 
HETATM   21  C15 UNL     1      19.862   0.981  52.097  1.00  0.00     0.012 A 
BRANCH  19  22
HETATM   22  O3  UNL     1      16.763  -0.635  51.069  1.00  0.00    -0.356 OA
HETATM   23  C13 UNL     1      16.683  -0.301  49.690  1.00  0.00     0.210 C 
ENDBRANCH  19  22
ENDBRANCH  15  16
ENDBRANCH  14  15
ENDBRANCH   4  14
BRANCH   1  24
HETATM   24  C3  UNL     1      25.778   3.422  49.808  1.00  0.00     0.033 C 
BRANCH  24  25
HETATM   25  C2  UNL     1      26.666   4.234  49.276  1.00  0.00     0.134 C 
BRANCH  25  26
HETATM   26  O1  UNL     1      27.610   4.770  48.464  1.00  0.00    -0.368 OA
HETATM   27  C1  UNL     1      27.632   6.202  48.327  1.00  0.00     0.208 C 
ENDBRANCH  25  26
ENDBRANCH  24  25
ENDBRANCH   1  24
TORSDOF 7
ENDMDL
MODEL 6
REMARK VINA RESULT:      -7.4      3.750      8.932
REMARK  7 active torsions:
REMARK  status: ('A' for Active; 'I' for Inactive)
REMARK    1  A    between atoms: O1_2  and  C2_3 
REMARK    2  A    between atoms: C2_3  and  C3_4 
REMARK    3  A    between atoms: C3_4  and  C4_5 
REMARK    4  A    between atoms: C7_8  and  O2_9 
REMARK    5  A    between atoms: O2_9  and  C8_10 
REMARK    6  A    between atoms: C8_10  and  C9_11 
REMARK    7  A    between atoms: C12_14  and  O3_15 
ROOT
HETATM    1  C4  UNL     1      27.624   6.194  48.242  1.00  0.00    -0.037 C 
HETATM    2  C5  UNL     1      27.662   4.961  48.700  1.00  0.00     0.012 C 
HETATM    3  C6  UNL     1      26.688   4.067  49.293  1.00  0.00     0.038 C 
HETATM    4  C7  UNL     1      25.434   3.933  49.694  1.00  0.00     0.082 C 
HETATM    5  C16 UNL     1      24.844   5.264  49.423  1.00  0.00     0.032 C 
HETATM    6  C17 UNL     1      24.551   6.228  48.585  1.00  0.00     0.127 C 
HETATM    7  N1  UNL     1      24.942   7.560  48.989  1.00  0.00    -0.287 N 
HETATM    8  C18 UNL     1      24.402   8.044  50.247  1.00  0.00     0.295 C 
HETATM    9  N2  UNL     1      23.802   6.905  50.981  1.00  0.00    -0.279 NA
HETATM   10  C19 UNL     1      24.382   5.729  50.769  1.00  0.00     0.128 C 
HETATM   11  N3  UNL     1      25.655   7.632  47.864  1.00  0.00    -0.329 N 
HETATM   12  C20 UNL     1      27.053   7.479  47.830  1.00  0.00     0.178 C 
HETATM   13  H21 UNL     1      25.223   8.122  47.052  1.00  0.00     0.180 HD
ENDROOT
BRANCH   4  14
HETATM   14  O2  UNL     1      24.584   3.013  50.252  1.00  0.00    -0.346 OA
BRANCH  14  15
HETATM   15  C8  UNL     1      23.366   2.587  49.717  1.00  0.00     0.214 C 
BRANCH  15  16
HETATM   16  C9  UNL     1      22.708   1.626  50.646  1.00  0.00    -0.034 A 
HETATM   17  C10 UNL     1      23.444   1.406  51.801  1.00  0.00     0.012 A 
HETATM   18  C11 UNL     1      22.985   0.543  52.792  1.00  0.00     0.037 A 
HETATM   19  C12 UNL     1      21.781  -0.078  52.579  1.00  0.00     0.068 A 
HETATM   20  C14 UNL     1      21.042   0.133  51.434  1.00  0.00     0.037 A 
HETATM   21  C15 UNL     1      21.483   0.979  50.451  1.00  0.00     0.012 A 
BRANCH  19  22
HETATM   22  O3  UNL     1      21.293  -0.939  53.543  1.00  0.00    -0.356 OA
HETATM   23  C13 UNL     1      22.078  -1.273  54.680  1.00  0.00     0.210 C 
ENDBRANCH  19  22
ENDBRANCH  15  16
ENDBRANCH  14  15
ENDBRANCH   4  14
BRANCH   1  24
HETATM   24  C3  UNL     1      29.039   6.296  47.839  1.00  0.00     0.033 C 
BRANCH  24  25
HETATM   25  C2  UNL     1      30.188   5.872  48.321  1.00  0.00     0.134 C 
BRANCH  25  26
HETATM   26  O1  UNL     1      31.236   5.087  48.670  1.00  0.00    -0.368 OA
HETATM   27  C1  UNL     1      32.476   5.741  48.996  1.00  0.00     0.208 C 
ENDBRANCH  25  26
ENDBRANCH  24  25
ENDBRANCH   1  24
TORSDOF 7
ENDMDL
MODEL 7
REMARK VINA RESULT:      -7.3      3.473      7.912
REMARK  7 active torsions:
REMARK  status: ('A' for Active; 'I' for Inactive)
REMARK    1  A    between atoms: O1_2  and  C2_3 
REMARK    2  A    between atoms: C2_3  and  C3_4 
REMARK    3  A    between atoms: C3_4  and  C4_5 
REMARK    4  A    between atoms: C7_8  and  O2_9 
REMARK    5  A    between atoms: O2_9  and  C8_10 
REMARK    6  A    between atoms: C8_10  and  C9_11 
REMARK    7  A    between atoms: C12_14  and  O3_15 
ROOT
HETATM    1  C4  UNL     1      25.787   4.394  49.442  1.00  0.00    -0.037 C 
HETATM    2  C5  UNL     1      26.119   3.442  50.287  1.00  0.00     0.012 C 
HETATM    3  C6  UNL     1      25.389   2.632  51.242  1.00  0.00     0.038 C 
HETATM    4  C7  UNL     1      24.209   2.388  51.788  1.00  0.00     0.082 C 
HETATM    5  C16 UNL     1      23.321   3.381  51.139  1.00  0.00     0.032 C 
HETATM    6  C17 UNL     1      22.797   3.900  50.056  1.00  0.00     0.127 C 
HETATM    7  N1  UNL     1      22.876   5.340  49.942  1.00  0.00    -0.287 N 
HETATM    8  C18 UNL     1      22.262   6.113  51.007  1.00  0.00     0.295 C 
HETATM    9  N2  UNL     1      21.956   5.208  52.141  1.00  0.00    -0.279 NA
HETATM   10  C19 UNL     1      22.789   4.184  52.285  1.00  0.00     0.128 C 
HETATM   11  N3  UNL     1      23.532   5.156  48.794  1.00  0.00    -0.329 N 
HETATM   12  C20 UNL     1      24.926   5.299  48.676  1.00  0.00     0.178 C 
HETATM   13  H21 UNL     1      22.982   5.225  47.912  1.00  0.00     0.180 HD
ENDROOT
BRANCH   4  14
HETATM   14  O2  UNL     1      23.606   1.569  52.706  1.00  0.00    -0.346 OA
BRANCH  14  15
HETATM   15  C8  UNL     1      23.824   0.198  52.857  1.00  0.00     0.214 C 
BRANCH  15  16
HETATM   16  C9  UNL     1      25.256  -0.061  53.179  1.00  0.00    -0.034 A 
HETATM   17  C10 UNL     1      25.621   0.426  54.425  1.00  0.00     0.012 A 
HETATM   18  C11 UNL     1      26.920   0.273  54.904  1.00  0.00     0.037 A 
HETATM   19  C12 UNL     1      27.817  -0.376  54.095  1.00  0.00     0.068 A 
HETATM   20  C14 UNL     1      27.464  -0.863  52.854  1.00  0.00     0.037 A 
HETATM   21  C15 UNL     1      26.190  -0.717  52.371  1.00  0.00     0.012 A 
BRANCH  19  22
HETATM   22  O3  UNL     1      29.114  -0.549  54.538  1.00  0.00    -0.356 OA
HETATM   23  C13 UNL     1      30.065  -1.243  53.742  1.00  0.00     0.210 C 
ENDBRANCH  19  22
ENDBRANCH  15  16
ENDBRANCH  14  15
ENDBRANCH   4  14
BRANCH   1  24
HETATM   24  C3  UNL     1      27.132   4.643  48.890  1.00  0.00     0.033 C 
BRANCH  24  25
HETATM   25  C2  UNL     1      27.793   5.696  48.462  1.00  0.00     0.134 C 
BRANCH  25  26
HETATM   26  O1  UNL     1      28.712   6.497  47.868  1.00  0.00    -0.368 OA
HETATM   27  C1  UNL     1      28.808   7.856  48.333  1.00  0.00     0.208 C 
ENDBRANCH  25  26
ENDBRANCH  24  25
ENDBRANCH   1  24
TORSDOF 7
ENDMDL
MODEL 8
REMARK VINA RESULT:      -7.3      3.090      8.632
REMARK  7 active torsions:
REMARK  status: ('A' for Active; 'I' for Inactive)
REMARK    1  A    between atoms: O1_2  and  C2_3 
REMARK    2  A    between atoms: C2_3  and  C3_4 
REMARK    3  A    between atoms: C3_4  and  C4_5 
REMARK    4  A    between atoms: C7_8  and  O2_9 
REMARK    5  A    between atoms: O2_9  and  C8_10 
REMARK    6  A    between atoms: C8_10  and  C9_11 
REMARK    7  A    between atoms: C12_14  and  O3_15 
ROOT
HETATM    1  C4  UNL     1      26.211   4.211  49.551  1.00  0.00    -0.037 C 
HETATM    2  C5  UNL     1      26.697   3.309  50.376  1.00  0.00     0.012 C 
HETATM    3  C6  UNL     1      26.135   2.490  51.431  1.00  0.00     0.038 C 
HETATM    4  C7  UNL     1      25.044   2.193  52.117  1.00  0.00     0.082 C 
HETATM    5  C16 UNL     1      24.026   3.108  51.550  1.00  0.00     0.032 C 
HETATM    6  C17 UNL     1      23.348   3.558  50.522  1.00  0.00     0.127 C 
HETATM    7  N1  UNL     1      23.322   4.995  50.361  1.00  0.00    -0.287 N 
HETATM    8  C18 UNL     1      22.786   5.765  51.470  1.00  0.00     0.295 C 
HETATM    9  N2  UNL     1      22.671   4.883  52.655  1.00  0.00    -0.279 NA
HETATM   10  C19 UNL     1      23.578   3.917  52.728  1.00  0.00     0.128 C 
HETATM   11  N3  UNL     1      23.852   4.813  49.150  1.00  0.00    -0.329 N 
HETATM   12  C20 UNL     1      25.211   5.035  48.866  1.00  0.00     0.178 C 
HETATM   13  H21 UNL     1      23.202   4.818  48.336  1.00  0.00     0.180 HD
ENDROOT
BRANCH   4  14
HETATM   14  O2  UNL     1      24.603   1.371  53.122  1.00  0.00    -0.346 OA
BRANCH  14  15
HETATM   15  C8  UNL     1      24.324   0.007  53.007  1.00  0.00     0.214 C 
BRANCH  15  16
HETATM   16  C9  UNL     1      22.863  -0.233  53.177  1.00  0.00    -0.034 A 
HETATM   17  C10 UNL     1      22.113   0.265  52.123  1.00  0.00     0.012 A 
HETATM   18  C11 UNL     1      20.727   0.129  52.100  1.00  0.00     0.037 A 
HETATM   19  C12 UNL     1      20.140  -0.514  53.159  1.00  0.00     0.068 A 
HETATM   20  C14 UNL     1      20.877  -1.012  54.213  1.00  0.00     0.037 A 
HETATM   21  C15 UNL     1      22.241  -0.883  54.247  1.00  0.00     0.012 A 
BRANCH  19  22
HETATM   22  O3  UNL     1      18.767  -0.670  53.169  1.00  0.00    -0.356 OA
HETATM   23  C13 UNL     1      18.182  -1.900  53.576  1.00  0.00     0.210 C 
ENDBRANCH  19  22
ENDBRANCH  15  16
ENDBRANCH  14  15
ENDBRANCH   4  14
BRANCH   1  24
HETATM   24  C3  UNL     1      27.465   4.521  48.839  1.00  0.00     0.033 C 
BRANCH  24  25
HETATM   25  C2  UNL     1      28.056   5.614  48.409  1.00  0.00     0.134 C 
BRANCH  25  26
HETATM   26  O1  UNL     1      28.881   6.472  47.759  1.00  0.00    -0.368 OA
HETATM   27  C1  UNL     1      29.028   7.795  48.306  1.00  0.00     0.208 C 
ENDBRANCH  25  26
ENDBRANCH  24  25
ENDBRANCH   1  24
TORSDOF 7
ENDMDL
MODEL 9
REMARK VINA RESULT:      -7.2      4.199      8.878
REMARK  7 active torsions:
REMARK  status: ('A' for Active; 'I' for Inactive)
REMARK    1  A    between atoms: O1_2  and  C2_3 
REMARK    2  A    between atoms: C2_3  and  C3_4 
REMARK    3  A    between atoms: C3_4  and  C4_5 
REMARK    4  A    between atoms: C7_8  and  O2_9 
REMARK    5  A    between atoms: O2_9  and  C8_10 
REMARK    6  A    between atoms: C8_10  and  C9_11 
REMARK    7  A    between atoms: C12_14  and  O3_15 
ROOT
HETATM    1  C4  UNL     1      25.616   0.570  53.607  1.00  0.00    -0.037 C 
HETATM    2  C5  UNL     1      24.639  -0.227  53.985  1.00  0.00     0.012 C 
HETATM    3  C6  UNL     1      23.252  -0.389  53.596  1.00  0.00     0.038 C 
HETATM    4  C7  UNL     1      22.279   0.058  52.820  1.00  0.00     0.082 C 
HETATM    5  C16 UNL     1      22.909   1.186  52.096  1.00  0.00     0.032 C 
HETATM    6  C17 UNL     1      23.849   1.647  51.308  1.00  0.00     0.127 C 
HETATM    7  N1  UNL     1      24.542   2.829  51.773  1.00  0.00    -0.287 N 
HETATM    8  C18 UNL     1      23.726   4.002  52.033  1.00  0.00     0.295 C 
HETATM    9  N2  UNL     1      22.299   3.601  52.046  1.00  0.00    -0.279 NA
HETATM   10  C19 UNL     1      22.066   2.365  52.471  1.00  0.00     0.128 C 
HETATM   11  N3  UNL     1      25.674   2.128  51.695  1.00  0.00    -0.329 N 
HETATM   12  C20 UNL     1      26.321   1.585  52.820  1.00  0.00     0.178 C 
HETATM   13  H21 UNL     1      26.258   2.254  50.841  1.00  0.00     0.180 HD
ENDROOT
BRANCH   4  14
HETATM   14  O2  UNL     1      20.963  -0.178  52.513  1.00  0.00    -0.346 OA
BRANCH  14  15
HETATM   15  C8  UNL     1      19.942  -0.457  53.424  1.00  0.00     0.214 C 
BRANCH  15  16
HETATM   16  C9  UNL     1      18.648  -0.628  52.706  1.00  0.00    -0.034 A 
HETATM   17  C10 UNL     1      18.635  -0.003  51.468  1.00  0.00     0.012 A 
HETATM   18  C11 UNL     1      17.512  -0.058  50.647  1.00  0.00     0.037 A 
HETATM   19  C12 UNL     1      16.426  -0.754  51.111  1.00  0.00     0.068 A 
HETATM   20  C14 UNL     1      16.428  -1.379  52.341  1.00  0.00     0.037 A 
HETATM   21  C15 UNL     1      17.526  -1.330  53.159  1.00  0.00     0.012 A 
BRANCH  19  22
HETATM   22  O3  UNL     1      15.295  -0.834  50.321  1.00  0.00    -0.356 OA
HETATM   23  C13 UNL     1      14.992   0.193  49.386  1.00  0.00     0.210 C 
ENDBRANCH  19  22
ENDBRANCH  15  16
ENDBRANCH  14  15
ENDBRANCH   4  14
BRANCH   1  24
HETATM   24  C3  UNL     1      26.655   0.050  54.516  1.00  0.00     0.033 C 
BRANCH  24  25
HETATM   25  C2  UNL     1      27.961   0.166  54.614  1.00  0.00     0.134 C 
BRANCH  25  26
HETATM   26  O1  UNL     1      29.285   0.208  54.323  1.00  0.00    -0.368 OA
HETATM   27  C1  UNL     1      29.834  -0.890  53.570  1.00  0.00     0.208 C 
ENDBRANCH  25  26
ENDBRANCH  24  25
ENDBRANCH   1  24
TORSDOF 7
ENDMDL
