MODEL 1
REMARK VINA RESULT:      -8.9      0.000      0.000
REMARK  1 active torsions:
REMARK  status: ('A' for Active; 'I' for Inactive)
REMARK    1  A    between atoms: N1_1  and  C1_2 
ROOT
HETATM    1  C1  UNL     1      23.231   6.890  50.096  1.00  0.00     0.719 A 
HETATM    2  N2  UNL     1      23.083   6.076  49.118  1.00  0.00    -0.074 NA
HETATM    3  C2  UNL     1      23.301   4.628  49.346  1.00  0.00     0.267 A 
HETATM    4  C3  UNL     1      23.711   4.475  50.737  1.00  0.00     0.056 A 
HETATM    5  C4  UNL     1      24.078   3.581  51.608  1.00  0.00     0.028 A 
HETATM    6  C5  UNL     1      24.143   2.158  51.112  1.00  0.00     0.086 C 
HETATM    7  C6  UNL     1      23.666   1.223  52.103  1.00  0.00    -0.009 C 
HETATM    8  C7  UNL     1      22.707   0.747  52.849  1.00  0.00    -0.030 A 
HETATM    9  C8  UNL     1      23.213  -0.294  53.598  1.00  0.00     0.012 A 
HETATM   10  C9  UNL     1      22.544  -1.070  54.505  1.00  0.00     0.001 A 
HETATM   11  C10 UNL     1      21.232  -0.808  54.713  1.00  0.00     0.001 A 
HETATM   12  C11 UNL     1      20.699   0.220  53.986  1.00  0.00     0.012 A 
HETATM   13  C12 UNL     1      21.355   1.038  53.046  1.00  0.00    -0.030 A 
HETATM   14  C13 UNL     1      20.662   1.999  52.461  1.00  0.00    -0.014 C 
HETATM   15  C14 UNL     1      19.842   3.006  51.877  1.00  0.00     0.030 C 
HETATM   16  C15 UNL     1      20.556   3.950  50.885  1.00  0.00     0.033 C 
HETATM   17  C16 UNL     1      21.063   3.197  49.720  1.00  0.00     0.109 A 
HETATM   18  C17 UNL     1      19.932   2.814  48.830  1.00  0.00    -0.000 A 
HETATM   19  C18 UNL     1      19.762   2.999  47.535  1.00  0.00     0.018 A 
HETATM   20  C19 UNL     1      20.848   3.696  46.866  1.00  0.00     0.026 A 
HETATM   21 BR1  UNL     1      20.603   3.945  44.974  1.00  0.00    -0.050 Br
HETATM   22  C20 UNL     1      21.903   4.108  47.554  1.00  0.00     0.107 A 
HETATM   23  N3  UNL     1      22.078   3.926  48.981  1.00  0.00    -0.354 N 
HETATM   24  N4  UNL     1      24.296   4.398  52.747  1.00  0.00    -0.342 N 
HETATM   25  C21 UNL     1      23.907   5.437  51.856  1.00  0.00     0.159 A 
HETATM   26  N5  UNL     1      23.630   6.666  51.467  1.00  0.00    -0.045 NA
HETATM   27  H20 UNL     1      24.578   4.411  53.749  1.00  0.00     0.167 HD
ENDROOT
BRANCH   1  28
HETATM   28  N1  UNL     1      23.035   8.315  49.965  1.00  0.00    -0.231 N 
HETATM   29  H1  UNL     1      22.740   8.944  50.745  1.00  0.00     0.174 HD
HETATM   30  H2  UNL     1      23.153   8.910  49.117  1.00  0.00     0.174 HD
ENDBRANCH   1  28
TORSDOF 1
ENDMDL
MODEL 2
REMARK VINA RESULT:      -8.8      8.905     11.215
REMARK  1 active torsions:
REMARK  status: ('A' for Active; 'I' for Inactive)
REMARK    1  A    between atoms: N1_1  and  C1_2 
ROOT
HETATM    1  C1  UNL     1      30.239  10.825  48.384  1.00  0.00     0.719 A 
HETATM    2  N2  UNL     1      29.308  10.104  47.878  1.00  0.00    -0.074 NA
HETATM    3  C2  UNL     1      29.664   9.056  46.893  1.00  0.00     0.267 A 
HETATM    4  C3  UNL     1      31.105   9.139  46.687  1.00  0.00     0.056 A 
HETATM    5  C4  UNL     1      32.078   8.611  46.005  1.00  0.00     0.028 A 
HETATM    6  C5  UNL     1      31.696   7.510  45.046  1.00  0.00     0.086 C 
HETATM    7  C6  UNL     1      32.675   6.449  45.031  1.00  0.00    -0.009 C 
HETATM    8  C7  UNL     1      33.314   5.483  45.630  1.00  0.00    -0.030 A 
HETATM    9  C8  UNL     1      34.195   4.919  44.733  1.00  0.00     0.012 A 
HETATM   10  C9  UNL     1      35.054   3.876  44.950  1.00  0.00     0.001 A 
HETATM   11  C10 UNL     1      35.062   3.312  46.181  1.00  0.00     0.001 A 
HETATM   12  C11 UNL     1      34.199   3.848  47.096  1.00  0.00     0.012 A 
HETATM   13  C12 UNL     1      33.303   4.919  46.908  1.00  0.00    -0.030 A 
HETATM   14  C13 UNL     1      32.564   5.302  47.933  1.00  0.00    -0.014 C 
HETATM   15  C14 UNL     1      31.805   5.649  49.087  1.00  0.00     0.030 C 
HETATM   16  C15 UNL     1      30.856   6.856  48.919  1.00  0.00     0.033 C 
HETATM   17  C16 UNL     1      29.826   6.573  47.898  1.00  0.00     0.109 A 
HETATM   18  C17 UNL     1      28.819   5.621  48.441  1.00  0.00    -0.000 A 
HETATM   19  C18 UNL     1      27.503   5.703  48.489  1.00  0.00     0.018 A 
HETATM   20  C19 UNL     1      26.942   6.921  47.929  1.00  0.00     0.026 A 
HETATM   21 BR1  UNL     1      25.022   7.024  47.983  1.00  0.00    -0.050 Br
HETATM   22  C20 UNL     1      27.738   7.857  47.433  1.00  0.00     0.107 A 
HETATM   23  N3  UNL     1      29.184   7.778  47.403  1.00  0.00    -0.354 N 
HETATM   24  N4  UNL     1      33.177   9.371  46.481  1.00  0.00    -0.342 N 
HETATM   25  C21 UNL     1      32.170  10.005  47.263  1.00  0.00     0.159 A 
HETATM   26  N5  UNL     1      31.663  10.845  48.144  1.00  0.00    -0.045 NA
HETATM   27  H20 UNL     1      34.205   9.522  46.415  1.00  0.00     0.167 HD
ENDROOT
BRANCH   1  28
HETATM   28  N1  UNL     1      29.983  11.866  49.353  1.00  0.00    -0.231 N 
HETATM   29  H1  UNL     1      30.727  12.420  49.834  1.00  0.00     0.174 HD
HETATM   30  H2  UNL     1      29.065  12.211  49.706  1.00  0.00     0.174 HD
ENDBRANCH   1  28
TORSDOF 1
ENDMDL
MODEL 3
REMARK VINA RESULT:      -8.7      3.586      7.017
REMARK  1 active torsions:
REMARK  status: ('A' for Active; 'I' for Inactive)
REMARK    1  A    between atoms: N1_1  and  C1_2 
ROOT
HETATM    1  C1  UNL     1      19.927  -0.174  52.706  1.00  0.00     0.719 A 
HETATM    2  N2  UNL     1      21.202  -0.296  52.653  1.00  0.00    -0.074 NA
HETATM    3  C2  UNL     1      21.924   0.201  51.458  1.00  0.00     0.267 A 
HETATM    4  C3  UNL     1      20.917   0.709  50.534  1.00  0.00     0.056 A 
HETATM    5  C4  UNL     1      20.778   1.240  49.355  1.00  0.00     0.028 A 
HETATM    6  C5  UNL     1      22.046   1.446  48.566  1.00  0.00     0.086 C 
HETATM    7  C6  UNL     1      22.028   2.693  47.837  1.00  0.00    -0.009 C 
HETATM    8  C7  UNL     1      21.994   3.996  47.814  1.00  0.00    -0.030 A 
HETATM    9  C8  UNL     1      22.010   4.411  46.500  1.00  0.00     0.012 A 
HETATM   10  C9  UNL     1      21.991   5.696  46.031  1.00  0.00     0.001 A 
HETATM   11  C10 UNL     1      21.950   6.699  46.939  1.00  0.00     0.001 A 
HETATM   12  C11 UNL     1      21.932   6.321  48.254  1.00  0.00     0.012 A 
HETATM   13  C12 UNL     1      21.951   5.012  48.772  1.00  0.00    -0.030 A 
HETATM   14  C13 UNL     1      21.907   4.859  50.083  1.00  0.00    -0.014 C 
HETATM   15  C14 UNL     1      21.858   4.783  51.504  1.00  0.00     0.030 C 
HETATM   16  C15 UNL     1      21.823   3.356  52.093  1.00  0.00     0.033 C 
HETATM   17  C16 UNL     1      23.054   2.617  51.747  1.00  0.00     0.109 A 
HETATM   18  C17 UNL     1      24.195   3.123  52.560  1.00  0.00    -0.000 A 
HETATM   19  C18 UNL     1      25.060   2.475  53.316  1.00  0.00     0.018 A 
HETATM   20  C19 UNL     1      24.867   1.035  53.376  1.00  0.00     0.026 A 
HETATM   21 BR1  UNL     1      26.144   0.095  54.464  1.00  0.00    -0.050 Br
HETATM   22  C20 UNL     1      23.871   0.466  52.712  1.00  0.00     0.107 A 
HETATM   23  N3  UNL     1      22.907   1.181  51.902  1.00  0.00    -0.354 N 
HETATM   24  N4  UNL     1      19.369   1.396  49.301  1.00  0.00    -0.342 N 
HETATM   25  C21 UNL     1      19.433   0.817  50.599  1.00  0.00     0.159 A 
HETATM   26  N5  UNL     1      18.983   0.358  51.751  1.00  0.00    -0.045 NA
HETATM   27  H20 UNL     1      18.566   1.726  48.725  1.00  0.00     0.167 HD
ENDROOT
BRANCH   1  28
HETATM   28  N1  UNL     1      19.144  -0.625  53.832  1.00  0.00    -0.231 N 
HETATM   29  H1  UNL     1      19.520  -0.757  54.798  1.00  0.00     0.174 HD
HETATM   30  H2  UNL     1      18.132  -0.877  53.860  1.00  0.00     0.174 HD
ENDBRANCH   1  28
TORSDOF 1
ENDMDL
MODEL 4
REMARK VINA RESULT:      -8.6      6.809      8.903
REMARK  1 active torsions:
REMARK  status: ('A' for Active; 'I' for Inactive)
REMARK    1  A    between atoms: N1_1  and  C1_2 
ROOT
HETATM    1  C1  UNL     1      30.259  11.671  47.643  1.00  0.00     0.719 A 
HETATM    2  N2  UNL     1      30.220  11.134  46.480  1.00  0.00    -0.074 NA
HETATM    3  C2  UNL     1      29.989   9.675  46.368  1.00  0.00     0.267 A 
HETATM    4  C3  UNL     1      29.902   9.153  47.726  1.00  0.00     0.056 A 
HETATM    5  C4  UNL     1      29.749   8.049  48.396  1.00  0.00     0.028 A 
HETATM    6  C5  UNL     1      29.606   6.790  47.577  1.00  0.00     0.086 C 
HETATM    7  C6  UNL     1      28.630   5.890  48.143  1.00  0.00    -0.009 C 
HETATM    8  C7  UNL     1      27.402   5.612  48.486  1.00  0.00    -0.030 A 
HETATM    9  C8  UNL     1      27.377   4.348  49.035  1.00  0.00     0.012 A 
HETATM   10  C9  UNL     1      26.291   3.671  49.519  1.00  0.00     0.001 A 
HETATM   11  C10 UNL     1      25.088   4.289  49.466  1.00  0.00     0.001 A 
HETATM   12  C11 UNL     1      25.078   5.545  48.926  1.00  0.00     0.012 A 
HETATM   13  C12 UNL     1      26.173   6.272  48.419  1.00  0.00    -0.030 A 
HETATM   14  C13 UNL     1      25.954   7.489  47.957  1.00  0.00    -0.014 C 
HETATM   15  C14 UNL     1      25.631   8.790  47.476  1.00  0.00     0.030 C 
HETATM   16  C15 UNL     1      26.826   9.626  46.967  1.00  0.00     0.033 C 
HETATM   17  C16 UNL     1      27.462   8.974  45.804  1.00  0.00     0.109 A 
HETATM   18  C17 UNL     1      26.600   9.131  44.600  1.00  0.00    -0.000 A 
HETATM   19  C18 UNL     1      26.887   9.590  43.397  1.00  0.00     0.018 A 
HETATM   20  C19 UNL     1      28.263  10.020  43.215  1.00  0.00     0.026 A 
HETATM   21 BR1  UNL     1      28.680  10.669  41.452  1.00  0.00    -0.050 Br
HETATM   22  C20 UNL     1      29.124   9.950  44.220  1.00  0.00     0.107 A 
HETATM   23  N3  UNL     1      28.802   9.469  45.548  1.00  0.00    -0.354 N 
HETATM   24  N4  UNL     1      29.803   8.537  49.726  1.00  0.00    -0.342 N 
HETATM   25  C21 UNL     1      29.979   9.788  49.071  1.00  0.00     0.159 A 
HETATM   26  N5  UNL     1      30.149  11.091  48.961  1.00  0.00    -0.045 NA
HETATM   27  H20 UNL     1      29.758   8.281  50.734  1.00  0.00     0.167 HD
ENDROOT
BRANCH   1  28
HETATM   28  N1  UNL     1      30.475  13.085  47.845  1.00  0.00    -0.231 N 
HETATM   29  H1  UNL     1      31.167  13.658  47.313  1.00  0.00     0.174 HD
HETATM   30  H2  UNL     1      29.998  13.724  48.517  1.00  0.00     0.174 HD
ENDBRANCH   1  28
TORSDOF 1
ENDMDL
MODEL 5
REMARK VINA RESULT:      -8.5      2.205      2.992
REMARK  1 active torsions:
REMARK  status: ('A' for Active; 'I' for Inactive)
REMARK    1  A    between atoms: N1_1  and  C1_2 
ROOT
HETATM    1  C1  UNL     1      22.548   8.257  49.087  1.00  0.00     0.719 A 
HETATM    2  N2  UNL     1      22.646   7.535  48.033  1.00  0.00    -0.074 NA
HETATM    3  C2  UNL     1      23.609   6.409  48.018  1.00  0.00     0.267 A 
HETATM    4  C3  UNL     1      24.304   6.429  49.299  1.00  0.00     0.056 A 
HETATM    5  C4  UNL     1      25.237   5.821  49.973  1.00  0.00     0.028 A 
HETATM    6  C5  UNL     1      25.918   4.671  49.274  1.00  0.00     0.086 C 
HETATM    7  C6  UNL     1      26.187   3.578  50.178  1.00  0.00    -0.009 C 
HETATM    8  C7  UNL     1      25.773   2.635  50.978  1.00  0.00    -0.030 A 
HETATM    9  C8  UNL     1      26.873   1.981  51.490  1.00  0.00     0.012 A 
HETATM   10  C9  UNL     1      26.884   0.927  52.362  1.00  0.00     0.001 A 
HETATM   11  C10 UNL     1      25.692   0.449  52.791  1.00  0.00     0.001 A 
HETATM   12  C11 UNL     1      24.580   1.076  52.301  1.00  0.00     0.012 A 
HETATM   13  C12 UNL     1      24.529   2.161  51.404  1.00  0.00    -0.030 A 
HETATM   14  C13 UNL     1      23.345   2.640  51.068  1.00  0.00    -0.014 C 
HETATM   15  C14 UNL     1      22.031   3.091  50.757  1.00  0.00     0.030 C 
HETATM   16  C15 UNL     1      21.954   4.316  49.819  1.00  0.00     0.033 C 
HETATM   17  C16 UNL     1      22.534   3.998  48.498  1.00  0.00     0.109 A 
HETATM   18  C17 UNL     1      21.606   3.121  47.733  1.00  0.00    -0.000 A 
HETATM   19  C18 UNL     1      21.115   3.251  46.515  1.00  0.00     0.018 A 
HETATM   20  C19 UNL     1      21.539   4.446  45.805  1.00  0.00     0.026 A 
HETATM   21 BR1  UNL     1      20.836   4.618  44.023  1.00  0.00    -0.050 Br
HETATM   22  C20 UNL     1      22.350   5.317  46.388  1.00  0.00     0.107 A 
HETATM   23  N3  UNL     1      22.869   5.187  47.734  1.00  0.00    -0.354 N 
HETATM   24  N4  UNL     1      25.228   6.575  51.174  1.00  0.00    -0.342 N 
HETATM   25  C21 UNL     1      24.199   7.295  50.505  1.00  0.00     0.159 A 
HETATM   26  N5  UNL     1      23.265   8.212  50.340  1.00  0.00    -0.045 NA
HETATM   27  H20 UNL     1      25.655   6.686  52.117  1.00  0.00     0.167 HD
ENDROOT
BRANCH   1  28
HETATM   28  N1  UNL     1      21.633   9.370  49.190  1.00  0.00    -0.231 N 
HETATM   29  H1  UNL     1      21.507  10.100  48.454  1.00  0.00     0.174 HD
HETATM   30  H2  UNL     1      20.987   9.609  49.974  1.00  0.00     0.174 HD
ENDBRANCH   1  28
TORSDOF 1
ENDMDL
MODEL 6
REMARK VINA RESULT:      -8.3      3.014      6.216
REMARK  1 active torsions:
REMARK  status: ('A' for Active; 'I' for Inactive)
REMARK    1  A    between atoms: N1_1  and  C1_2 
ROOT
HETATM    1  C1  UNL     1      24.374   0.226  53.075  1.00  0.00     0.719 A 
HETATM    2  N2  UNL     1      23.120   0.320  53.322  1.00  0.00    -0.074 NA
HETATM    3  C2  UNL     1      22.429   1.605  53.059  1.00  0.00     0.267 A 
HETATM    4  C3  UNL     1      23.442   2.542  52.588  1.00  0.00     0.056 A 
HETATM    5  C4  UNL     1      23.603   3.776  52.209  1.00  0.00     0.028 A 
HETATM    6  C5  UNL     1      22.370   4.644  52.229  1.00  0.00     0.086 C 
HETATM    7  C6  UNL     1      22.324   5.537  51.095  1.00  0.00    -0.009 C 
HETATM    8  C7  UNL     1      22.247   5.739  49.809  1.00  0.00    -0.030 A 
HETATM    9  C8  UNL     1      22.272   7.097  49.577  1.00  0.00     0.012 A 
HETATM   10  C9  UNL     1      22.208   7.738  48.370  1.00  0.00     0.001 A 
HETATM   11  C10 UNL     1      22.109   6.976  47.256  1.00  0.00     0.001 A 
HETATM   12  C11 UNL     1      22.082   5.623  47.450  1.00  0.00     0.012 A 
HETATM   13  C12 UNL     1      22.146   4.929  48.675  1.00  0.00    -0.030 A 
HETATM   14  C13 UNL     1      22.126   3.609  48.646  1.00  0.00    -0.014 C 
HETATM   15  C14 UNL     1      22.097   2.191  48.526  1.00  0.00     0.030 C 
HETATM   16  C15 UNL     1      22.221   1.409  49.852  1.00  0.00     0.033 C 
HETATM   17  C16 UNL     1      21.080   1.706  50.742  1.00  0.00     0.109 A 
HETATM   18  C17 UNL     1      19.854   1.026  50.241  1.00  0.00    -0.000 A 
HETATM   19  C18 UNL     1      19.005   0.227  50.860  1.00  0.00     0.018 A 
HETATM   20  C19 UNL     1      19.318  -0.040  52.254  1.00  0.00     0.026 A 
HETATM   21 BR1  UNL     1      18.064  -1.187  53.156  1.00  0.00    -0.050 Br
HETATM   22  C20 UNL     1      20.396   0.491  52.812  1.00  0.00     0.107 A 
HETATM   23  N3  UNL     1      21.341   1.347  52.125  1.00  0.00    -0.354 N 
HETATM   24  N4  UNL     1      24.994   3.786  51.930  1.00  0.00    -0.342 N 
HETATM   25  C21 UNL     1      24.904   2.424  52.334  1.00  0.00     0.159 A 
HETATM   26  N5  UNL     1      25.324   1.201  52.590  1.00  0.00    -0.045 NA
HETATM   27  H20 UNL     1      25.798   4.363  51.606  1.00  0.00     0.167 HD
ENDROOT
BRANCH   1  28
HETATM   28  N1  UNL     1      25.126  -0.988  53.297  1.00  0.00    -0.231 N 
HETATM   29  H1  UNL     1      25.878  -1.339  52.664  1.00  0.00     0.174 HD
HETATM   30  H2  UNL     1      25.042  -1.668  54.083  1.00  0.00     0.174 HD
ENDBRANCH   1  28
TORSDOF 1
ENDMDL
MODEL 7
REMARK VINA RESULT:      -8.0      2.748      3.369
REMARK  1 active torsions:
REMARK  status: ('A' for Active; 'I' for Inactive)
REMARK    1  A    between atoms: N1_1  and  C1_2 
ROOT
HETATM    1  C1  UNL     1      24.147   7.805  48.688  1.00  0.00     0.719 A 
HETATM    2  N2  UNL     1      23.204   6.983  48.409  1.00  0.00    -0.074 NA
HETATM    3  C2  UNL     1      23.433   5.532  48.602  1.00  0.00     0.267 A 
HETATM    4  C3  UNL     1      24.809   5.376  49.059  1.00  0.00     0.056 A 
HETATM    5  C4  UNL     1      25.686   4.475  49.390  1.00  0.00     0.028 A 
HETATM    6  C5  UNL     1      25.229   3.040  49.306  1.00  0.00     0.086 C 
HETATM    7  C6  UNL     1      25.739   2.249  50.401  1.00  0.00    -0.009 C 
HETATM    8  C7  UNL     1      25.808   1.982  51.676  1.00  0.00    -0.030 A 
HETATM    9  C8  UNL     1      26.651   0.906  51.852  1.00  0.00     0.012 A 
HETATM   10  C9  UNL     1      26.995   0.301  53.030  1.00  0.00     0.001 A 
HETATM   11  C10 UNL     1      26.463   0.795  54.172  1.00  0.00     0.001 A 
HETATM   12  C11 UNL     1      25.621   1.864  54.032  1.00  0.00     0.012 A 
HETATM   13  C12 UNL     1      25.245   2.511  52.839  1.00  0.00    -0.030 A 
HETATM   14  C13 UNL     1      24.430   3.548  52.921  1.00  0.00    -0.014 C 
HETATM   15  C14 UNL     1      23.550   4.653  53.099  1.00  0.00     0.030 C 
HETATM   16  C15 UNL     1      23.168   5.411  51.809  1.00  0.00     0.033 C 
HETATM   17  C16 UNL     1      22.433   4.528  50.881  1.00  0.00     0.109 A 
HETATM   18  C17 UNL     1      21.049   4.304  51.381  1.00  0.00    -0.000 A 
HETATM   19  C18 UNL     1      19.886   4.455  50.775  1.00  0.00     0.018 A 
HETATM   20  C19 UNL     1      19.965   4.921  49.401  1.00  0.00     0.026 A 
HETATM   21 BR1  UNL     1      18.267   5.118  48.517  1.00  0.00    -0.050 Br
HETATM   22  C20 UNL     1      21.142   5.177  48.847  1.00  0.00     0.107 A 
HETATM   23  N3  UNL     1      22.416   5.035  49.521  1.00  0.00    -0.354 N 
HETATM   24  N4  UNL     1      26.801   5.294  49.701  1.00  0.00    -0.342 N 
HETATM   25  C21 UNL     1      25.903   6.342  49.351  1.00  0.00     0.159 A 
HETATM   26  N5  UNL     1      25.496   7.581  49.155  1.00  0.00    -0.045 NA
HETATM   27  H20 UNL     1      27.792   5.306  50.020  1.00  0.00     0.167 HD
ENDROOT
BRANCH   1  28
HETATM   28  N1  UNL     1      24.010   9.235  48.534  1.00  0.00    -0.231 N 
HETATM   29  H1  UNL     1      24.262   9.761  47.668  1.00  0.00     0.174 HD
HETATM   30  H2  UNL     1      23.656   9.930  49.225  1.00  0.00     0.174 HD
ENDBRANCH   1  28
TORSDOF 1
ENDMDL
MODEL 8
REMARK VINA RESULT:      -7.9      2.067      4.315
REMARK  1 active torsions:
REMARK  status: ('A' for Active; 'I' for Inactive)
REMARK    1  A    between atoms: N1_1  and  C1_2 
ROOT
HETATM    1  C1  UNL     1      20.635   4.147  47.034  1.00  0.00     0.719 A 
HETATM    2  N2  UNL     1      21.026   5.071  47.832  1.00  0.00    -0.074 NA
HETATM    3  C2  UNL     1      20.920   4.852  49.294  1.00  0.00     0.267 A 
HETATM    4  C3  UNL     1      20.301   3.547  49.484  1.00  0.00     0.056 A 
HETATM    5  C4  UNL     1      19.885   2.730  50.408  1.00  0.00     0.028 A 
HETATM    6  C5  UNL     1      20.048   3.201  51.832  1.00  0.00     0.086 C 
HETATM    7  C6  UNL     1      20.445   2.126  52.710  1.00  0.00    -0.009 C 
HETATM    8  C7  UNL     1      21.308   1.222  53.082  1.00  0.00    -0.030 A 
HETATM    9  C8  UNL     1      20.793   0.546  54.168  1.00  0.00     0.012 A 
HETATM   10  C9  UNL     1      21.375  -0.474  54.868  1.00  0.00     0.001 A 
HETATM   11  C10 UNL     1      22.601  -0.892  54.471  1.00  0.00     0.001 A 
HETATM   12  C11 UNL     1      23.141  -0.243  53.396  1.00  0.00     0.012 A 
HETATM   13  C12 UNL     1      22.572   0.809  52.653  1.00  0.00    -0.030 A 
HETATM   14  C13 UNL     1      23.253   1.290  51.628  1.00  0.00    -0.014 C 
HETATM   15  C14 UNL     1      24.053   1.750  50.544  1.00  0.00     0.030 C 
HETATM   16  C15 UNL     1      23.424   2.866  49.681  1.00  0.00     0.033 C 
HETATM   17  C16 UNL     1      23.197   4.083  50.486  1.00  0.00     0.109 A 
HETATM   18  C17 UNL     1      24.494   4.765  50.753  1.00  0.00    -0.000 A 
HETATM   19  C18 UNL     1      24.858   6.017  50.555  1.00  0.00     0.018 A 
HETATM   20  C19 UNL     1      23.835   6.871  49.975  1.00  0.00     0.026 A 
HETATM   21 BR1  UNL     1      24.367   8.701  49.709  1.00  0.00    -0.050 Br
HETATM   22  C20 UNL     1      22.644   6.376  49.673  1.00  0.00     0.107 A 
HETATM   23  N3  UNL     1      22.252   4.995  49.867  1.00  0.00    -0.354 N 
HETATM   24  N4  UNL     1      19.399   1.660  49.615  1.00  0.00    -0.342 N 
HETATM   25  C21 UNL     1      19.824   2.495  48.544  1.00  0.00     0.159 A 
HETATM   26  N5  UNL     1      20.037   2.857  47.294  1.00  0.00    -0.045 NA
HETATM   27  H20 UNL     1      18.953   0.719  49.628  1.00  0.00     0.167 HD
ENDROOT
BRANCH   1  28
HETATM   28  N1  UNL     1      20.705   4.272  45.597  1.00  0.00    -0.231 N 
HETATM   29  H1  UNL     1      20.063   3.788  44.930  1.00  0.00     0.174 HD
HETATM   30  H2  UNL     1      21.371   4.837  45.027  1.00  0.00     0.174 HD
ENDBRANCH   1  28
TORSDOF 1
ENDMDL
MODEL 9
REMARK VINA RESULT:      -7.9      9.140     11.530
REMARK  1 active torsions:
REMARK  status: ('A' for Active; 'I' for Inactive)
REMARK    1  A    between atoms: N1_1  and  C1_2 
ROOT
HETATM    1  C1  UNL     1      34.819   7.248  48.120  1.00  0.00     0.719 A 
HETATM    2  N2  UNL     1      34.412   7.782  47.028  1.00  0.00    -0.074 NA
HETATM    3  C2  UNL     1      32.992   7.624  46.636  1.00  0.00     0.267 A 
HETATM    4  C3  UNL     1      32.361   6.789  47.651  1.00  0.00     0.056 A 
HETATM    5  C4  UNL     1      31.228   6.231  47.964  1.00  0.00     0.028 A 
HETATM    6  C5  UNL     1      30.089   6.456  47.003  1.00  0.00     0.086 C 
HETATM    7  C6  UNL     1      28.836   6.655  47.693  1.00  0.00    -0.009 C 
HETATM    8  C7  UNL     1      28.078   7.347  48.498  1.00  0.00    -0.030 A 
HETATM    9  C8  UNL     1      26.860   6.712  48.605  1.00  0.00     0.012 A 
HETATM   10  C9  UNL     1      25.777   7.104  49.344  1.00  0.00     0.001 A 
HETATM   11  C10 UNL     1      25.886   8.245  50.066  1.00  0.00     0.001 A 
HETATM   12  C11 UNL     1      27.084   8.900  49.982  1.00  0.00     0.012 A 
HETATM   13  C12 UNL     1      28.217   8.526  49.233  1.00  0.00    -0.030 A 
HETATM   14  C13 UNL     1      29.292   9.290  49.304  1.00  0.00    -0.014 C 
HETATM   15  C14 UNL     1      30.405  10.169  49.435  1.00  0.00     0.030 C 
HETATM   16  C15 UNL     1      31.677   9.749  48.666  1.00  0.00     0.033 C 
HETATM   17  C16 UNL     1      31.424   9.724  47.211  1.00  0.00     0.109 A 
HETATM   18  C17 UNL     1      31.341  11.115  46.686  1.00  0.00    -0.000 A 
HETATM   19  C18 UNL     1      31.978  11.689  45.684  1.00  0.00     0.018 A 
HETATM   20  C19 UNL     1      32.919  10.833  44.981  1.00  0.00     0.026 A 
HETATM   21 BR1  UNL     1      33.829  11.671  43.508  1.00  0.00    -0.050 Br
HETATM   22  C20 UNL     1      33.098   9.578  45.368  1.00  0.00     0.107 A 
HETATM   23  N3  UNL     1      32.417   8.955  46.483  1.00  0.00    -0.354 N 
HETATM   24  N4  UNL     1      31.582   5.578  49.172  1.00  0.00    -0.342 N 
HETATM   25  C21 UNL     1      32.856   6.151  48.901  1.00  0.00     0.159 A 
HETATM   26  N5  UNL     1      34.129   6.437  49.097  1.00  0.00    -0.045 NA
HETATM   27  H20 UNL     1      31.242   4.979  49.953  1.00  0.00     0.167 HD
ENDROOT
BRANCH   1  28
HETATM   28  N1  UNL     1      36.183   7.354  48.582  1.00  0.00    -0.231 N 
HETATM   29  H1  UNL     1      37.010   7.479  47.956  1.00  0.00     0.174 HD
HETATM   30  H2  UNL     1      36.541   7.327  49.561  1.00  0.00     0.174 HD
ENDBRANCH   1  28
TORSDOF 1
ENDMDL
