MODEL 1
REMARK VINA RESULT:      -9.2      0.000      0.000
REMARK  5 active torsions:
REMARK  status: ('A' for Active; 'I' for Inactive)
REMARK    1  A    between atoms: O1_2  and  C2_3 
REMARK    2  A    between atoms: C6_9  and  N3_10 
REMARK    3  A    between atoms: N3_10  and  C7_11 
REMARK    4  A    between atoms: C14_19  and  N4_20 
REMARK       I    between atoms: N4_20  and  C15_21 
REMARK    5  A    between atoms: C15_21  and  C16_23 
ROOT
HETATM    1  C2  UNL     1      26.213   4.052  49.962  1.00  0.00     0.075 A 
HETATM    2  C3  UNL     1      25.281   4.990  49.927  1.00  0.00     0.067 A 
HETATM    3  C4  UNL     1      24.116   4.549  50.678  1.00  0.00     0.073 A 
HETATM    4  N1  UNL     1      22.939   5.152  50.919  1.00  0.00    -0.241 NA
HETATM    5  C5  UNL     1      22.003   4.541  51.648  1.00  0.00     0.235 A 
HETATM    6  N2  UNL     1      22.272   3.323  52.125  1.00  0.00    -0.224 NA
HETATM    7  C6  UNL     1      23.407   2.638  51.942  1.00  0.00     0.140 A 
HETATM    8  C13 UNL     1      24.347   3.292  51.190  1.00  0.00     0.046 A 
HETATM    9  C14 UNL     1      25.712   2.902  50.758  1.00  0.00     0.181 A 
ENDROOT
BRANCH   9  10
HETATM   10  N4  UNL     1      26.636   2.716  51.841  1.00  0.00    -0.344 N 
HETATM   11  C15 UNL     1      27.165   1.535  52.428  1.00  0.00     0.243 C 
HETATM   12  O2  UNL     1      26.751   0.471  51.909  1.00  0.00    -0.271 OA
HETATM   13  H12 UNL     1      26.911   3.674  52.194  1.00  0.00     0.163 HD
BRANCH  11  14
HETATM   14  C16 UNL     1      28.117   1.601  53.552  1.00  0.00     0.203 C 
HETATM   15  C17 UNL     1      27.662   0.844  54.776  1.00  0.00     0.215 C 
HETATM   16  O3  UNL     1      28.238  -0.435  54.701  1.00  0.00    -0.301 OA
HETATM   17  C18 UNL     1      29.130  -0.461  53.632  1.00  0.00     0.361 C 
HETATM   18  O4  UNL     1      29.704  -1.471  53.100  1.00  0.00    -0.238 OA
HETATM   19  N5  UNL     1      29.323   0.895  53.186  1.00  0.00    -0.322 N 
HETATM   20  H16 UNL     1      30.162   1.256  52.707  1.00  0.00     0.165 HD
ENDBRANCH  11  14
ENDBRANCH   9  10
BRANCH   1  21
HETATM   21  O1  UNL     1      27.482   4.047  49.383  1.00  0.00    -0.358 OA
HETATM   22  C1  UNL     1      27.961   5.078  48.542  1.00  0.00     0.209 C 
ENDBRANCH   1  21
BRANCH   7  23
HETATM   23  N3  UNL     1      23.701   1.345  52.445  1.00  0.00    -0.340 N 
HETATM   24  H6  UNL     1      24.683   0.988  52.326  1.00  0.00     0.167 HD
BRANCH  23  25
HETATM   25  C7  UNL     1      22.837   0.435  53.103  1.00  0.00     0.035 A 
HETATM   26  C8  UNL     1      23.292  -0.405  54.126  1.00  0.00     0.029 A 
HETATM   27  C9  UNL     1      22.469  -1.292  54.774  1.00  0.00     0.004 A 
HETATM   28  C10 UNL     1      21.146  -1.402  54.450  1.00  0.00     0.019 A 
HETATM   29  C11 UNL     1      20.639  -0.600  53.449  1.00  0.00     0.013 A 
HETATM   30 BR1  UNL     1      18.795  -0.742  52.985  1.00  0.00    -0.051 Br
HETATM   31  C12 UNL     1      21.500   0.275  52.826  1.00  0.00     0.048 A 
ENDBRANCH  23  25
ENDBRANCH   7  23
TORSDOF 5
ENDMDL
MODEL 2
REMARK VINA RESULT:      -9.1      3.318      6.142
REMARK  5 active torsions:
REMARK  status: ('A' for Active; 'I' for Inactive)
REMARK    1  A    between atoms: O1_2  and  C2_3 
REMARK    2  A    between atoms: C6_9  and  N3_10 
REMARK    3  A    between atoms: N3_10  and  C7_11 
REMARK    4  A    between atoms: C14_19  and  N4_20 
REMARK       I    between atoms: N4_20  and  C15_21 
REMARK    5  A    between atoms: C15_21  and  C16_23 
ROOT
HETATM    1  C2  UNL     1      21.886   0.467  51.934  1.00  0.00     0.075 A 
HETATM    2  C3  UNL     1      21.203   0.268  50.819  1.00  0.00     0.067 A 
HETATM    3  C4  UNL     1      21.596   1.252  49.823  1.00  0.00     0.073 A 
HETATM    4  N1  UNL     1      21.181   1.444  48.558  1.00  0.00    -0.241 NA
HETATM    5  C5  UNL     1      21.695   2.431  47.822  1.00  0.00     0.235 A 
HETATM    6  N2  UNL     1      22.624   3.213  48.376  1.00  0.00    -0.224 NA
HETATM    7  C6  UNL     1      23.103   3.107  49.622  1.00  0.00     0.140 A 
HETATM    8  C13 UNL     1      22.556   2.085  50.352  1.00  0.00     0.046 A 
HETATM    9  C14 UNL     1      22.797   1.624  51.742  1.00  0.00     0.181 A 
ENDROOT
BRANCH   9  10
HETATM   10  N4  UNL     1      24.130   1.144  51.975  1.00  0.00    -0.344 N 
HETATM   11  C15 UNL     1      25.259   1.767  52.571  1.00  0.00     0.243 C 
HETATM   12  O2  UNL     1      25.054   2.941  52.962  1.00  0.00    -0.271 OA
HETATM   13  H12 UNL     1      24.181   0.154  51.607  1.00  0.00     0.163 HD
BRANCH  11  14
HETATM   14  C16 UNL     1      26.545   1.057  52.700  1.00  0.00     0.203 C 
HETATM   15  C17 UNL     1      27.516   1.727  53.640  1.00  0.00     0.215 C 
HETATM   16  O3  UNL     1      27.351   1.121  54.896  1.00  0.00    -0.301 OA
HETATM   17  C18 UNL     1      26.490   0.035  54.758  1.00  0.00     0.361 C 
HETATM   18  O4  UNL     1      25.925  -0.654  55.674  1.00  0.00    -0.238 OA
HETATM   19  N5  UNL     1      26.316  -0.213  53.350  1.00  0.00    -0.322 N 
HETATM   20  H16 UNL     1      26.077  -1.122  52.925  1.00  0.00     0.165 HD
ENDBRANCH  11  14
ENDBRANCH   9  10
BRANCH   1  21
HETATM   21  O1  UNL     1      21.834  -0.233  53.139  1.00  0.00    -0.358 OA
HETATM   22  C1  UNL     1      21.062   0.181  54.249  1.00  0.00     0.209 C 
ENDBRANCH   1  21
BRANCH   7  23
HETATM   23  N3  UNL     1      24.089   3.932  50.218  1.00  0.00    -0.340 N 
HETATM   24  H6  UNL     1      24.003   4.127  51.249  1.00  0.00     0.167 HD
BRANCH  23  25
HETATM   25  C7  UNL     1      25.207   4.555  49.610  1.00  0.00     0.035 A 
HETATM   26  C8  UNL     1      26.433   3.894  49.470  1.00  0.00     0.029 A 
HETATM   27  C9  UNL     1      27.526   4.483  48.883  1.00  0.00     0.004 A 
HETATM   28  C10 UNL     1      27.473   5.759  48.400  1.00  0.00     0.019 A 
HETATM   29  C11 UNL     1      26.291   6.462  48.509  1.00  0.00     0.013 A 
HETATM   30 BR1  UNL     1      26.201   8.244  47.838  1.00  0.00    -0.051 Br
HETATM   31  C12 UNL     1      25.221   5.832  49.104  1.00  0.00     0.048 A 
ENDBRANCH  23  25
ENDBRANCH   7  23
TORSDOF 5
ENDMDL
MODEL 3
REMARK VINA RESULT:      -9.0      3.484      7.080
REMARK  5 active torsions:
REMARK  status: ('A' for Active; 'I' for Inactive)
REMARK    1  A    between atoms: O1_2  and  C2_3 
REMARK    2  A    between atoms: C6_9  and  N3_10 
REMARK    3  A    between atoms: N3_10  and  C7_11 
REMARK    4  A    between atoms: C14_19  and  N4_20 
REMARK       I    between atoms: N4_20  and  C15_21 
REMARK    5  A    between atoms: C15_21  and  C16_23 
ROOT
HETATM    1  C2  UNL     1      20.522   1.104  52.739  1.00  0.00     0.075 A 
HETATM    2  C3  UNL     1      20.330   0.302  53.773  1.00  0.00     0.067 A 
HETATM    3  C4  UNL     1      21.605  -0.247  54.208  1.00  0.00     0.073 A 
HETATM    4  N1  UNL     1      21.907  -1.098  55.205  1.00  0.00    -0.241 NA
HETATM    5  C5  UNL     1      23.172  -1.466  55.417  1.00  0.00     0.235 A 
HETATM    6  N2  UNL     1      24.117  -0.969  54.616  1.00  0.00    -0.224 NA
HETATM    7  C6  UNL     1      23.921  -0.120  53.599  1.00  0.00     0.140 A 
HETATM    8  C13 UNL     1      22.614   0.239  53.407  1.00  0.00     0.046 A 
HETATM    9  C14 UNL     1      21.971   1.139  52.416  1.00  0.00     0.181 A 
ENDROOT
BRANCH   9  10
HETATM   10  N4  UNL     1      22.386   2.510  52.518  1.00  0.00    -0.344 N 
HETATM   11  C15 UNL     1      23.326   3.263  51.765  1.00  0.00     0.243 C 
HETATM   12  O2  UNL     1      23.892   2.615  50.851  1.00  0.00    -0.271 OA
HETATM   13  H12 UNL     1      21.846   2.948  53.315  1.00  0.00     0.163 HD
BRANCH  11  14
HETATM   14  C16 UNL     1      23.584   4.683  52.065  1.00  0.00     0.203 C 
HETATM   15  C17 UNL     1      24.215   5.439  50.921  1.00  0.00     0.215 C 
HETATM   16  O3  UNL     1      23.168   6.047  50.208  1.00  0.00    -0.301 OA
HETATM   17  C18 UNL     1      21.982   5.864  50.914  1.00  0.00     0.361 C 
HETATM   18  O4  UNL     1      20.784   6.080  50.526  1.00  0.00    -0.238 OA
HETATM   19  N5  UNL     1      22.320   5.366  52.222  1.00  0.00    -0.322 N 
HETATM   20  H16 UNL     1      21.755   5.488  53.077  1.00  0.00     0.165 HD
ENDBRANCH  11  14
ENDBRANCH   9  10
BRANCH   1  21
HETATM   21  O1  UNL     1      19.590   1.839  52.007  1.00  0.00    -0.358 OA
HETATM   22  C1  UNL     1      19.286   1.582  50.650  1.00  0.00     0.209 C 
ENDBRANCH   1  21
BRANCH   7  23
HETATM   23  N3  UNL     1      24.919   0.413  52.745  1.00  0.00    -0.340 N 
HETATM   24  H6  UNL     1      24.645   0.627  51.751  1.00  0.00     0.167 HD
BRANCH  23  25
HETATM   25  C7  UNL     1      26.272   0.708  53.040  1.00  0.00     0.035 A 
HETATM   26  C8  UNL     1      26.715   2.021  53.238  1.00  0.00     0.029 A 
HETATM   27  C9  UNL     1      28.023   2.324  53.526  1.00  0.00     0.004 A 
HETATM   28  C10 UNL     1      28.971   1.347  53.636  1.00  0.00     0.019 A 
HETATM   29  C11 UNL     1      28.596   0.033  53.451  1.00  0.00     0.013 A 
HETATM   30 BR1  UNL     1      29.909  -1.341  53.602  1.00  0.00    -0.051 Br
HETATM   31  C12 UNL     1      27.274  -0.225  53.165  1.00  0.00     0.048 A 
ENDBRANCH  23  25
ENDBRANCH   7  23
TORSDOF 5
ENDMDL
MODEL 4
REMARK VINA RESULT:      -8.8      1.483      1.748
REMARK  5 active torsions:
REMARK  status: ('A' for Active; 'I' for Inactive)
REMARK    1  A    between atoms: O1_2  and  C2_3 
REMARK    2  A    between atoms: C6_9  and  N3_10 
REMARK    3  A    between atoms: N3_10  and  C7_11 
REMARK    4  A    between atoms: C14_19  and  N4_20 
REMARK       I    between atoms: N4_20  and  C15_21 
REMARK    5  A    between atoms: C15_21  and  C16_23 
ROOT
HETATM    1  C2  UNL     1      26.574   4.444  49.430  1.00  0.00     0.075 A 
HETATM    2  C3  UNL     1      25.620   5.297  49.097  1.00  0.00     0.067 A 
HETATM    3  C4  UNL     1      24.323   4.744  49.455  1.00  0.00     0.073 A 
HETATM    4  N1  UNL     1      23.081   5.239  49.313  1.00  0.00    -0.241 NA
HETATM    5  C5  UNL     1      22.023   4.536  49.723  1.00  0.00     0.235 A 
HETATM    6  N2  UNL     1      22.237   3.338  50.273  1.00  0.00    -0.224 NA
HETATM    7  C6  UNL     1      23.429   2.758  50.459  1.00  0.00     0.140 A 
HETATM    8  C13 UNL     1      24.494   3.504  50.028  1.00  0.00     0.046 A 
HETATM    9  C14 UNL     1      25.955   3.242  50.045  1.00  0.00     0.181 A 
ENDROOT
BRANCH   9  10
HETATM   10  N4  UNL     1      26.510   3.118  51.363  1.00  0.00    -0.344 N 
HETATM   11  C15 UNL     1      26.903   1.976  52.111  1.00  0.00     0.243 C 
HETATM   12  O2  UNL     1      26.733   0.886  51.514  1.00  0.00    -0.271 OA
HETATM   13  H12 UNL     1      26.606   4.093  51.762  1.00  0.00     0.163 HD
BRANCH  11  14
HETATM   14  C16 UNL     1      27.457   2.106  53.471  1.00  0.00     0.203 C 
HETATM   15  C17 UNL     1      27.023   1.008  54.410  1.00  0.00     0.215 C 
HETATM   16  O3  UNL     1      28.025   0.023  54.375  1.00  0.00    -0.301 OA
HETATM   17  C18 UNL     1      29.099   0.505  53.631  1.00  0.00     0.361 C 
HETATM   18  O4  UNL     1      30.113  -0.136  53.191  1.00  0.00    -0.238 OA
HETATM   19  N5  UNL     1      28.888   1.913  53.414  1.00  0.00    -0.322 N 
HETATM   20  H16 UNL     1      29.628   2.614  53.254  1.00  0.00     0.165 HD
ENDBRANCH  11  14
ENDBRANCH   9  10
BRANCH   1  21
HETATM   21  O1  UNL     1      27.955   4.559  49.274  1.00  0.00    -0.358 OA
HETATM   22  C1  UNL     1      28.564   5.350  48.272  1.00  0.00     0.209 C 
ENDBRANCH   1  21
BRANCH   7  23
HETATM   23  N3  UNL     1      23.664   1.488  51.043  1.00  0.00    -0.340 N 
HETATM   24  H6  UNL     1      24.500   0.944  50.705  1.00  0.00     0.167 HD
BRANCH  23  25
HETATM   25  C7  UNL     1      22.915   0.821  52.044  1.00  0.00     0.035 A 
HETATM   26  C8  UNL     1      21.520   0.735  51.985  1.00  0.00     0.029 A 
HETATM   27  C9  UNL     1      20.779   0.092  52.946  1.00  0.00     0.004 A 
HETATM   28  C10 UNL     1      21.373  -0.504  54.022  1.00  0.00     0.019 A 
HETATM   29  C11 UNL     1      22.747  -0.453  54.135  1.00  0.00     0.013 A 
HETATM   30 BR1  UNL     1      23.591  -1.282  55.630  1.00  0.00    -0.051 Br
HETATM   31  C12 UNL     1      23.450   0.201  53.148  1.00  0.00     0.048 A 
ENDBRANCH  23  25
ENDBRANCH   7  23
TORSDOF 5
ENDMDL
MODEL 5
REMARK VINA RESULT:      -8.8      3.297      7.466
REMARK  5 active torsions:
REMARK  status: ('A' for Active; 'I' for Inactive)
REMARK    1  A    between atoms: O1_2  and  C2_3 
REMARK    2  A    between atoms: C6_9  and  N3_10 
REMARK    3  A    between atoms: N3_10  and  C7_11 
REMARK    4  A    between atoms: C14_19  and  N4_20 
REMARK       I    between atoms: N4_20  and  C15_21 
REMARK    5  A    between atoms: C15_21  and  C16_23 
ROOT
HETATM    1  C2  UNL     1      24.356  -0.226  53.581  1.00  0.00     0.075 A 
HETATM    2  C3  UNL     1      25.430  -0.163  54.351  1.00  0.00     0.067 A 
HETATM    3  C4  UNL     1      26.404   0.741  53.760  1.00  0.00     0.073 A 
HETATM    4  N1  UNL     1      27.626   1.117  54.174  1.00  0.00    -0.241 NA
HETATM    5  C5  UNL     1      28.350   1.974  53.451  1.00  0.00     0.235 A 
HETATM    6  N2  UNL     1      27.825   2.441  52.315  1.00  0.00    -0.224 NA
HETATM    7  C6  UNL     1      26.622   2.130  51.817  1.00  0.00     0.140 A 
HETATM    8  C13 UNL     1      25.904   1.249  52.581  1.00  0.00     0.046 A 
HETATM    9  C14 UNL     1      24.556   0.654  52.401  1.00  0.00     0.181 A 
ENDROOT
BRANCH   9  10
HETATM   10  N4  UNL     1      23.489   1.615  52.415  1.00  0.00    -0.344 N 
HETATM   11  C15 UNL     1      22.737   2.196  51.359  1.00  0.00     0.243 C 
HETATM   12  O2  UNL     1      23.065   1.800  50.215  1.00  0.00    -0.271 OA
HETATM   13  H12 UNL     1      23.304   1.871  53.424  1.00  0.00     0.163 HD
BRANCH  11  14
HETATM   14  C16 UNL     1      21.671   3.177  51.630  1.00  0.00     0.203 C 
HETATM   15  C17 UNL     1      20.793   3.462  50.436  1.00  0.00     0.215 C 
HETATM   16  O3  UNL     1      19.679   2.612  50.538  1.00  0.00    -0.301 OA
HETATM   17  C18 UNL     1      19.725   1.962  51.768  1.00  0.00     0.361 C 
HETATM   18  O4  UNL     1      19.025   0.971  52.171  1.00  0.00    -0.238 OA
HETATM   19  N5  UNL     1      20.734   2.605  52.569  1.00  0.00    -0.322 N 
HETATM   20  H16 UNL     1      20.755   2.634  53.600  1.00  0.00     0.165 HD
ENDBRANCH  11  14
ENDBRANCH   9  10
BRANCH   1  21
HETATM   21  O1  UNL     1      23.185  -0.961  53.756  1.00  0.00    -0.358 OA
HETATM   22  C1  UNL     1      22.412  -0.926  54.940  1.00  0.00     0.209 C 
ENDBRANCH   1  21
BRANCH   7  23
HETATM   23  N3  UNL     1      26.058   2.622  50.613  1.00  0.00    -0.340 N 
HETATM   24  H6  UNL     1      25.534   1.939  50.007  1.00  0.00     0.167 HD
BRANCH  23  25
HETATM   25  C7  UNL     1      26.099   3.937  50.088  1.00  0.00     0.035 A 
HETATM   26  C8  UNL     1      27.044   4.319  49.130  1.00  0.00     0.029 A 
HETATM   27  C9  UNL     1      27.098   5.589  48.610  1.00  0.00     0.004 A 
HETATM   28  C10 UNL     1      26.220   6.557  49.008  1.00  0.00     0.019 A 
HETATM   29  C11 UNL     1      25.265   6.241  49.951  1.00  0.00     0.013 A 
HETATM   30 BR1  UNL     1      24.032   7.582  50.516  1.00  0.00    -0.051 Br
HETATM   31  C12 UNL     1      25.248   4.956  50.444  1.00  0.00     0.048 A 
ENDBRANCH  23  25
ENDBRANCH   7  23
TORSDOF 5
ENDMDL
MODEL 6
REMARK VINA RESULT:      -8.7      3.213      7.415
REMARK  5 active torsions:
REMARK  status: ('A' for Active; 'I' for Inactive)
REMARK    1  A    between atoms: O1_2  and  C2_3 
REMARK    2  A    between atoms: C6_9  and  N3_10 
REMARK    3  A    between atoms: N3_10  and  C7_11 
REMARK    4  A    between atoms: C14_19  and  N4_20 
REMARK       I    between atoms: N4_20  and  C15_21 
REMARK    5  A    between atoms: C15_21  and  C16_23 
ROOT
HETATM    1  C2  UNL     1      24.320  -0.151  53.542  1.00  0.00     0.075 A 
HETATM    2  C3  UNL     1      25.379  -0.092  54.333  1.00  0.00     0.067 A 
HETATM    3  C4  UNL     1      26.372   0.799  53.754  1.00  0.00     0.073 A 
HETATM    4  N1  UNL     1      27.590   1.167  54.189  1.00  0.00    -0.241 NA
HETATM    5  C5  UNL     1      28.335   2.012  53.474  1.00  0.00     0.235 A 
HETATM    6  N2  UNL     1      27.837   2.475  52.325  1.00  0.00    -0.224 NA
HETATM    7  C6  UNL     1      26.641   2.171  51.805  1.00  0.00     0.140 A 
HETATM    8  C13 UNL     1      25.901   1.302  52.562  1.00  0.00     0.046 A 
HETATM    9  C14 UNL     1      24.551   0.718  52.359  1.00  0.00     0.181 A 
ENDROOT
BRANCH   9  10
HETATM   10  N4  UNL     1      23.492   1.688  52.346  1.00  0.00    -0.344 N 
HETATM   11  C15 UNL     1      22.263   1.722  51.634  1.00  0.00     0.243 C 
HETATM   12  O2  UNL     1      22.072   0.733  50.887  1.00  0.00    -0.271 OA
HETATM   13  H12 UNL     1      23.765   2.467  53.006  1.00  0.00     0.163 HD
BRANCH  11  14
HETATM   14  C16 UNL     1      21.322   2.846  51.789  1.00  0.00     0.203 C 
HETATM   15  C17 UNL     1      21.969   4.115  52.287  1.00  0.00     0.215 C 
HETATM   16  O3  UNL     1      22.291   4.879  51.153  1.00  0.00    -0.301 OA
HETATM   17  C18 UNL     1      21.746   4.263  50.029  1.00  0.00     0.361 C 
HETATM   18  O4  UNL     1      21.969   4.516  48.797  1.00  0.00    -0.238 OA
HETATM   19  N5  UNL     1      20.841   3.239  50.485  1.00  0.00    -0.322 N 
HETATM   20  H16 UNL     1      20.026   2.882  49.962  1.00  0.00     0.165 HD
ENDBRANCH  11  14
ENDBRANCH   9  10
BRANCH   1  21
HETATM   21  O1  UNL     1      23.139  -0.875  53.700  1.00  0.00    -0.358 OA
HETATM   22  C1  UNL     1      22.607  -1.235  54.960  1.00  0.00     0.209 C 
ENDBRANCH   1  21
BRANCH   7  23
HETATM   23  N3  UNL     1      26.105   2.658  50.587  1.00  0.00    -0.340 N 
HETATM   24  H6  UNL     1      25.530   1.993  50.008  1.00  0.00     0.167 HD
BRANCH  23  25
HETATM   25  C7  UNL     1      26.235   3.948  50.015  1.00  0.00     0.035 A 
HETATM   26  C8  UNL     1      27.221   4.238  49.066  1.00  0.00     0.029 A 
HETATM   27  C9  UNL     1      27.361   5.482  48.502  1.00  0.00     0.004 A 
HETATM   28  C10 UNL     1      26.532   6.514  48.843  1.00  0.00     0.019 A 
HETATM   29  C11 UNL     1      25.540   6.289  49.774  1.00  0.00     0.013 A 
HETATM   30 BR1  UNL     1      24.376   7.720  50.259  1.00  0.00    -0.051 Br
HETATM   31  C12 UNL     1      25.437   5.027  50.313  1.00  0.00     0.048 A 
ENDBRANCH  23  25
ENDBRANCH   7  23
TORSDOF 5
ENDMDL
MODEL 7
REMARK VINA RESULT:      -8.5      1.568      2.120
REMARK  5 active torsions:
REMARK  status: ('A' for Active; 'I' for Inactive)
REMARK    1  A    between atoms: O1_2  and  C2_3 
REMARK    2  A    between atoms: C6_9  and  N3_10 
REMARK    3  A    between atoms: N3_10  and  C7_11 
REMARK    4  A    between atoms: C14_19  and  N4_20 
REMARK       I    between atoms: N4_20  and  C15_21 
REMARK    5  A    between atoms: C15_21  and  C16_23 
ROOT
HETATM    1  C2  UNL     1      26.765   4.769  49.216  1.00  0.00     0.075 A 
HETATM    2  C3  UNL     1      26.090   5.907  49.219  1.00  0.00     0.067 A 
HETATM    3  C4  UNL     1      24.860   5.743  49.978  1.00  0.00     0.073 A 
HETATM    4  N1  UNL     1      23.870   6.609  50.253  1.00  0.00    -0.241 NA
HETATM    5  C5  UNL     1      22.820   6.225  50.983  1.00  0.00     0.235 A 
HETATM    6  N2  UNL     1      22.787   4.966  51.425  1.00  0.00    -0.224 NA
HETATM    7  C6  UNL     1      23.719   4.029  51.207  1.00  0.00     0.140 A 
HETATM    8  C13 UNL     1      24.782   4.454  50.456  1.00  0.00     0.046 A 
HETATM    9  C14 UNL     1      26.007   3.755  49.992  1.00  0.00     0.181 A 
ENDROOT
BRANCH   9  10
HETATM   10  N4  UNL     1      26.867   3.318  51.055  1.00  0.00    -0.344 N 
HETATM   11  C15 UNL     1      26.980   2.065  51.714  1.00  0.00     0.243 C 
HETATM   12  O2  UNL     1      26.189   1.188  51.292  1.00  0.00    -0.271 OA
HETATM   13  H12 UNL     1      27.482   4.136  51.324  1.00  0.00     0.163 HD
BRANCH  11  14
HETATM   14  C16 UNL     1      27.959   1.856  52.797  1.00  0.00     0.203 C 
HETATM   15  C17 UNL     1      27.526   2.432  54.123  1.00  0.00     0.215 C 
HETATM   16  O3  UNL     1      26.905   1.392  54.835  1.00  0.00    -0.301 OA
HETATM   17  C18 UNL     1      27.073   0.204  54.128  1.00  0.00     0.361 C 
HETATM   18  O4  UNL     1      26.501  -0.923  54.318  1.00  0.00    -0.238 OA
HETATM   19  N5  UNL     1      28.041   0.443  53.089  1.00  0.00    -0.322 N 
HETATM   20  H16 UNL     1      28.652  -0.270  52.661  1.00  0.00     0.165 HD
ENDBRANCH  11  14
ENDBRANCH   9  10
BRANCH   1  21
HETATM   21  O1  UNL     1      27.989   4.470  48.617  1.00  0.00    -0.358 OA
HETATM   22  C1  UNL     1      28.935   5.452  48.243  1.00  0.00     0.209 C 
ENDBRANCH   1  21
BRANCH   7  23
HETATM   23  N3  UNL     1      23.692   2.691  51.674  1.00  0.00    -0.340 N 
HETATM   24  H6  UNL     1      24.578   2.302  52.088  1.00  0.00     0.167 HD
BRANCH  23  25
HETATM   25  C7  UNL     1      22.614   1.771  51.662  1.00  0.00     0.035 A 
HETATM   26  C8  UNL     1      21.725   1.690  50.584  1.00  0.00     0.029 A 
HETATM   27  C9  UNL     1      20.676   0.804  50.557  1.00  0.00     0.004 A 
HETATM   28  C10 UNL     1      20.444  -0.054  51.593  1.00  0.00     0.019 A 
HETATM   29  C11 UNL     1      21.286  -0.022  52.685  1.00  0.00     0.013 A 
HETATM   30 BR1  UNL     1      20.974  -1.215  54.139  1.00  0.00    -0.051 Br
HETATM   31  C12 UNL     1      22.325   0.882  52.669  1.00  0.00     0.048 A 
ENDBRANCH  23  25
ENDBRANCH   7  23
TORSDOF 5
ENDMDL
MODEL 8
REMARK VINA RESULT:      -8.3      3.911      7.955
REMARK  5 active torsions:
REMARK  status: ('A' for Active; 'I' for Inactive)
REMARK    1  A    between atoms: O1_2  and  C2_3 
REMARK    2  A    between atoms: C6_9  and  N3_10 
REMARK    3  A    between atoms: N3_10  and  C7_11 
REMARK    4  A    between atoms: C14_19  and  N4_20 
REMARK       I    between atoms: N4_20  and  C15_21 
REMARK    5  A    between atoms: C15_21  and  C16_23 
ROOT
HETATM    1  C2  UNL     1      23.390   0.865  52.681  1.00  0.00     0.075 A 
HETATM    2  C3  UNL     1      24.364   0.715  53.563  1.00  0.00     0.067 A 
HETATM    3  C4  UNL     1      25.584   1.320  53.051  1.00  0.00     0.073 A 
HETATM    4  N1  UNL     1      26.815   1.414  53.585  1.00  0.00    -0.241 NA
HETATM    5  C5  UNL     1      27.795   2.026  52.916  1.00  0.00     0.235 A 
HETATM    6  N2  UNL     1      27.516   2.534  51.713  1.00  0.00    -0.224 NA
HETATM    7  C6  UNL     1      26.328   2.492  51.097  1.00  0.00     0.140 A 
HETATM    8  C13 UNL     1      25.344   1.859  51.807  1.00  0.00     0.046 A 
HETATM    9  C14 UNL     1      23.916   1.597  51.500  1.00  0.00     0.181 A 
ENDROOT
BRANCH   9  10
HETATM   10  N4  UNL     1      23.121   2.785  51.362  1.00  0.00    -0.344 N 
HETATM   11  C15 UNL     1      22.618   3.446  50.210  1.00  0.00     0.243 C 
HETATM   12  O2  UNL     1      22.921   2.895  49.125  1.00  0.00    -0.271 OA
HETATM   13  H12 UNL     1      22.931   3.156  52.333  1.00  0.00     0.163 HD
BRANCH  11  14
HETATM   14  C16 UNL     1      21.811   4.675  50.325  1.00  0.00     0.203 C 
HETATM   15  C17 UNL     1      20.672   4.746  49.337  1.00  0.00     0.215 C 
HETATM   16  O3  UNL     1      19.534   4.247  49.992  1.00  0.00    -0.301 OA
HETATM   17  C18 UNL     1      19.845   4.038  51.333  1.00  0.00     0.361 C 
HETATM   18  O4  UNL     1      19.168   3.414  52.219  1.00  0.00    -0.238 OA
HETATM   19  N5  UNL     1      21.117   4.663  51.592  1.00  0.00    -0.322 N 
HETATM   20  H16 UNL     1      21.436   5.018  52.507  1.00  0.00     0.165 HD
ENDBRANCH  11  14
ENDBRANCH   9  10
BRANCH   1  21
HETATM   21  O1  UNL     1      22.062   0.446  52.752  1.00  0.00    -0.358 OA
HETATM   22  C1  UNL     1      21.329  -0.016  51.634  1.00  0.00     0.209 C 
ENDBRANCH   1  21
BRANCH   7  23
HETATM   23  N3  UNL     1      26.024   3.030  49.820  1.00  0.00    -0.340 N 
HETATM   24  H6  UNL     1      25.456   2.435  49.165  1.00  0.00     0.167 HD
BRANCH  23  25
HETATM   25  C7  UNL     1      26.386   4.289  49.281  1.00  0.00     0.035 A 
HETATM   26  C8  UNL     1      25.450   5.316  49.115  1.00  0.00     0.029 A 
HETATM   27  C9  UNL     1      25.784   6.543  48.595  1.00  0.00     0.004 A 
HETATM   28  C10 UNL     1      27.063   6.826  48.209  1.00  0.00     0.019 A 
HETATM   29  C11 UNL     1      28.031   5.854  48.348  1.00  0.00     0.013 A 
HETATM   30 BR1  UNL     1      29.821   6.235  47.812  1.00  0.00    -0.051 Br
HETATM   31  C12 UNL     1      27.651   4.639  48.874  1.00  0.00     0.048 A 
ENDBRANCH  23  25
ENDBRANCH   7  23
TORSDOF 5
ENDMDL
MODEL 9
REMARK VINA RESULT:      -8.1      1.903      2.525
REMARK  5 active torsions:
REMARK  status: ('A' for Active; 'I' for Inactive)
REMARK    1  A    between atoms: O1_2  and  C2_3 
REMARK    2  A    between atoms: C6_9  and  N3_10 
REMARK    3  A    between atoms: N3_10  and  C7_11 
REMARK    4  A    between atoms: C14_19  and  N4_20 
REMARK       I    between atoms: N4_20  and  C15_21 
REMARK    5  A    between atoms: C15_21  and  C16_23 
ROOT
HETATM    1  C2  UNL     1      25.460   4.326  49.753  1.00  0.00     0.075 A 
HETATM    2  C3  UNL     1      24.745   5.438  49.801  1.00  0.00     0.067 A 
HETATM    3  C4  UNL     1      23.344   5.109  50.012  1.00  0.00     0.073 A 
HETATM    4  N1  UNL     1      22.259   5.895  50.126  1.00  0.00    -0.241 NA
HETATM    5  C5  UNL     1      21.053   5.356  50.320  1.00  0.00     0.235 A 
HETATM    6  N2  UNL     1      20.960   4.026  50.394  1.00  0.00    -0.224 NA
HETATM    7  C6  UNL     1      21.976   3.159  50.293  1.00  0.00     0.140 A 
HETATM    8  C13 UNL     1      23.199   3.742  50.095  1.00  0.00     0.046 A 
HETATM    9  C14 UNL     1      24.556   3.162  49.934  1.00  0.00     0.181 A 
ENDROOT
BRANCH   9  10
HETATM   10  N4  UNL     1      25.026   2.448  51.088  1.00  0.00    -0.344 N 
HETATM   11  C15 UNL     1      24.852   2.694  52.476  1.00  0.00     0.243 C 
HETATM   12  O2  UNL     1      24.169   3.714  52.738  1.00  0.00    -0.271 OA
HETATM   13  H12 UNL     1      25.583   1.618  50.745  1.00  0.00     0.163 HD
BRANCH  11  14
HETATM   14  C16 UNL     1      25.441   1.801  53.491  1.00  0.00     0.203 C 
HETATM   15  C17 UNL     1      25.993   0.518  52.921  1.00  0.00     0.215 C 
HETATM   16  O3  UNL     1      27.362   0.731  52.687  1.00  0.00    -0.301 OA
HETATM   17  C18 UNL     1      27.718   1.967  53.220  1.00  0.00     0.361 C 
HETATM   18  O4  UNL     1      28.801   2.623  53.051  1.00  0.00    -0.238 OA
HETATM   19  N5  UNL     1      26.624   2.427  54.035  1.00  0.00    -0.322 N 
HETATM   20  H16 UNL     1      26.702   3.072  54.838  1.00  0.00     0.165 HD
ENDBRANCH  11  14
ENDBRANCH   9  10
BRANCH   1  21
HETATM   21  O1  UNL     1      26.833   4.167  49.569  1.00  0.00    -0.358 OA
HETATM   22  C1  UNL     1      27.585   4.907  48.628  1.00  0.00     0.209 C 
ENDBRANCH   1  21
BRANCH   7  23
HETATM   23  N3  UNL     1      21.886   1.747  50.371  1.00  0.00    -0.340 N 
HETATM   24  H6  UNL     1      22.321   1.188  49.593  1.00  0.00     0.167 HD
BRANCH  23  25
HETATM   25  C7  UNL     1      21.276   0.953  51.374  1.00  0.00     0.035 A 
HETATM   26  C8  UNL     1      19.903   0.684  51.368  1.00  0.00     0.029 A 
HETATM   27  C9  UNL     1      19.296  -0.084  52.331  1.00  0.00     0.004 A 
HETATM   28  C10 UNL     1      20.011  -0.632  53.358  1.00  0.00     0.019 A 
HETATM   29  C11 UNL     1      21.370  -0.402  53.418  1.00  0.00     0.013 A 
HETATM   30 BR1  UNL     1      22.381  -1.160  54.846  1.00  0.00    -0.051 Br
HETATM   31  C12 UNL     1      21.936   0.373  52.431  1.00  0.00     0.048 A 
ENDBRANCH  23  25
ENDBRANCH   7  23
TORSDOF 5
ENDMDL
