MODEL 1
REMARK VINA RESULT:      -9.2      0.000      0.000
REMARK  7 active torsions:
REMARK  status: ('A' for Active; 'I' for Inactive)
REMARK    1  A    between atoms: C4_4  and  C5_5 
REMARK    2  A    between atoms: C5_5  and  N1_6 
REMARK    3  A    between atoms: C5_5  and  N2_7 
REMARK    4  A    between atoms: N2_7  and  C6_8 
REMARK    5  A    between atoms: N3_11  and  C9_12 
REMARK    6  A    between atoms: C13_18  and  O1_19 
REMARK    7  A    between atoms: C15_21  and  O2_22 
ROOT
HETATM    1  C6  UNL     1      22.026   3.124  49.652  1.00  0.00     0.027 C 
HETATM    2  C7  UNL     1      22.250   1.820  49.646  1.00  0.00     0.022 C 
HETATM    3  C8  UNL     1      21.546   0.769  50.453  1.00  0.00     0.154 C 
HETATM    4  N3  UNL     1      21.534   1.121  51.881  1.00  0.00    -0.358 N 
HETATM    5  C19 UNL     1      21.092   2.301  52.587  1.00  0.00     0.152 C 
HETATM    6  C20 UNL     1      20.676   3.415  51.710  1.00  0.00    -0.005 C 
HETATM    7  C21 UNL     1      21.018   3.825  50.478  1.00  0.00     0.026 C 
ENDROOT
BRANCH   1   8
HETATM    8  N2  UNL     1      22.780   4.024  48.821  1.00  0.00    -0.357 N 
HETATM    9  H8  UNL     1      22.695   3.563  47.880  1.00  0.00     0.162 HD
BRANCH   8  10
HETATM   10  C5  UNL     1      23.427   5.208  49.302  1.00  0.00     0.351 C 
BRANCH  10  11
HETATM   11  C4  UNL     1      24.887   5.180  49.084  1.00  0.00    -0.006 A 
HETATM   12  C3  UNL     1      25.385   6.349  48.543  1.00  0.00     0.019 A 
HETATM   13  C2  UNL     1      26.727   6.503  48.270  1.00  0.00    -0.040 A 
HETATM   14  C1  UNL     1      27.371   7.709  47.689  1.00  0.00     0.050 C 
HETATM   15  C24 UNL     1      27.603   5.468  48.540  1.00  0.00     0.040 A 
HETATM   16  C23 UNL     1      27.122   4.289  49.083  1.00  0.00     0.025 A 
HETATM   17 CL1  UNL     1      29.337   5.579  48.223  1.00  0.00    -0.084 Cl
HETATM   18  C22 UNL     1      25.780   4.162  49.345  1.00  0.00     0.013 A 
ENDBRANCH  10  11
BRANCH  10  19
HETATM   19  N1  UNL     1      22.821   6.399  48.716  1.00  0.00     0.105 N 
HETATM   20  H6  UNL     1      22.277   6.185  47.867  1.00  0.00     0.315 HD
HETATM   21  H7  UNL     1      23.538   7.126  48.459  1.00  0.00     0.315 HD
ENDBRANCH  10  19
ENDBRANCH   8  10
ENDBRANCH   1   8
BRANCH   4  22
HETATM   22  C9  UNL     1      21.990   0.307  52.979  1.00  0.00     0.140 A 
HETATM   23  N4  UNL     1      21.058  -0.239  53.785  1.00  0.00    -0.224 NA
HETATM   24  C10 UNL     1      21.389  -1.019  54.855  1.00  0.00     0.236 A 
HETATM   25  N5  UNL     1      22.693  -1.282  55.159  1.00  0.00    -0.241 NA
HETATM   26  C11 UNL     1      23.664  -0.749  54.369  1.00  0.00     0.075 A 
HETATM   27  C12 UNL     1      24.997  -0.987  54.627  1.00  0.00     0.072 A 
HETATM   28  C18 UNL     1      23.296   0.033  53.296  1.00  0.00     0.041 A 
HETATM   29  C13 UNL     1      25.974  -0.446  53.820  1.00  0.00     0.103 A 
HETATM   30  C15 UNL     1      25.612   0.349  52.728  1.00  0.00     0.102 A 
HETATM   31  C17 UNL     1      24.271   0.560  52.507  1.00  0.00     0.057 A 
BRANCH  29  32
HETATM   32  O1  UNL     1      27.342  -0.631  54.004  1.00  0.00    -0.353 OA
HETATM   33  C14 UNL     1      28.145   0.064  54.907  1.00  0.00     0.210 C 
ENDBRANCH  29  32
BRANCH  30  34
HETATM   34  O2  UNL     1      26.584   0.900  51.907  1.00  0.00    -0.353 OA
HETATM   35  C16 UNL     1      27.010   2.222  52.170  1.00  0.00     0.210 C 
ENDBRANCH  30  34
ENDBRANCH   4  22
TORSDOF 7
ENDMDL
MODEL 2
REMARK VINA RESULT:      -9.0      2.539      4.419
REMARK  7 active torsions:
REMARK  status: ('A' for Active; 'I' for Inactive)
REMARK    1  A    between atoms: C4_4  and  C5_5 
REMARK    2  A    between atoms: C5_5  and  N1_6 
REMARK    3  A    between atoms: C5_5  and  N2_7 
REMARK    4  A    between atoms: N2_7  and  C6_8 
REMARK    5  A    between atoms: N3_11  and  C9_12 
REMARK    6  A    between atoms: C13_18  and  O1_19 
REMARK    7  A    between atoms: C15_21  and  O2_22 
ROOT
HETATM    1  C6  UNL     1      25.494   2.737  50.992  1.00  0.00     0.027 C 
HETATM    2  C7  UNL     1      24.610   2.994  51.944  1.00  0.00     0.022 C 
HETATM    3  C8  UNL     1      24.571   2.422  53.331  1.00  0.00     0.154 C 
HETATM    4  N3  UNL     1      24.644   0.954  53.298  1.00  0.00    -0.358 N 
HETATM    5  C19 UNL     1      25.583   0.040  52.690  1.00  0.00     0.152 C 
HETATM    6  C20 UNL     1      26.604   0.692  51.843  1.00  0.00    -0.005 C 
HETATM    7  C21 UNL     1      26.643   1.812  51.105  1.00  0.00     0.026 C 
ENDROOT
BRANCH   1   8
HETATM    8  N2  UNL     1      25.413   3.360  49.698  1.00  0.00    -0.357 N 
HETATM    9  H8  UNL     1      25.451   2.525  49.060  1.00  0.00     0.162 HD
BRANCH   8  10
HETATM   10  C5  UNL     1      25.311   4.774  49.493  1.00  0.00     0.351 C 
BRANCH  10  11
HETATM   11  C4  UNL     1      26.530   5.344  48.888  1.00  0.00    -0.006 A 
HETATM   12  C3  UNL     1      26.363   6.634  48.424  1.00  0.00     0.019 A 
HETATM   13  C2  UNL     1      27.394   7.326  47.828  1.00  0.00    -0.040 A 
HETATM   14  C1  UNL     1      27.327   8.711  47.293  1.00  0.00     0.050 C 
HETATM   15  C24 UNL     1      28.630   6.723  47.685  1.00  0.00     0.040 A 
HETATM   16  C23 UNL     1      28.817   5.430  48.144  1.00  0.00     0.025 A 
HETATM   17 CL1  UNL     1      30.007   7.535  46.934  1.00  0.00    -0.084 Cl
HETATM   18  C22 UNL     1      27.772   4.763  48.735  1.00  0.00     0.013 A 
ENDBRANCH  10  11
BRANCH  10  19
HETATM   19  N1  UNL     1      24.123   5.095  48.709  1.00  0.00     0.105 N 
HETATM   20  H6  UNL     1      24.029   6.106  48.536  1.00  0.00     0.315 HD
HETATM   21  H7  UNL     1      23.237   4.769  49.177  1.00  0.00     0.315 HD
ENDBRANCH  10  19
ENDBRANCH   8  10
ENDBRANCH   1   8
BRANCH   4  22
HETATM   22  C9  UNL     1      23.729   0.026  53.915  1.00  0.00     0.140 A 
HETATM   23  N4  UNL     1      24.214  -0.793  54.869  1.00  0.00    -0.224 NA
HETATM   24  C10 UNL     1      23.430  -1.711  55.506  1.00  0.00     0.236 A 
HETATM   25  N5  UNL     1      22.106  -1.839  55.202  1.00  0.00    -0.241 NA
HETATM   26  C11 UNL     1      21.579  -1.030  54.244  1.00  0.00     0.075 A 
HETATM   27  C12 UNL     1      20.246  -1.115  53.901  1.00  0.00     0.072 A 
HETATM   28  C18 UNL     1      22.397  -0.114  53.620  1.00  0.00     0.041 A 
HETATM   29  C13 UNL     1      19.719  -0.289  52.932  1.00  0.00     0.103 A 
HETATM   30  C15 UNL     1      20.540   0.644  52.292  1.00  0.00     0.102 A 
HETATM   31  C17 UNL     1      21.863   0.695  52.666  1.00  0.00     0.057 A 
BRANCH  29  32
HETATM   32  O1  UNL     1      18.388  -0.303  52.521  1.00  0.00    -0.353 OA
HETATM   33  C14 UNL     1      17.397  -1.159  52.996  1.00  0.00     0.210 C 
ENDBRANCH  29  32
BRANCH  30  34
HETATM   34  O2  UNL     1      20.024   1.482  51.316  1.00  0.00    -0.353 OA
HETATM   35  C16 UNL     1      19.701   2.811  51.678  1.00  0.00     0.210 C 
ENDBRANCH  30  34
ENDBRANCH   4  22
TORSDOF 7
ENDMDL
MODEL 3
REMARK VINA RESULT:      -8.9      1.821      2.536
REMARK  7 active torsions:
REMARK  status: ('A' for Active; 'I' for Inactive)
REMARK    1  A    between atoms: C4_4  and  C5_5 
REMARK    2  A    between atoms: C5_5  and  N1_6 
REMARK    3  A    between atoms: C5_5  and  N2_7 
REMARK    4  A    between atoms: N2_7  and  C6_8 
REMARK    5  A    between atoms: N3_11  and  C9_12 
REMARK    6  A    between atoms: C13_18  and  O1_19 
REMARK    7  A    between atoms: C15_21  and  O2_22 
ROOT
HETATM    1  C6  UNL     1      24.683   5.351  50.433  1.00  0.00     0.027 C 
HETATM    2  C7  UNL     1      24.885   4.135  49.953  1.00  0.00     0.022 C 
HETATM    3  C8  UNL     1      23.934   2.974  49.980  1.00  0.00     0.154 C 
HETATM    4  N3  UNL     1      23.425   2.741  51.339  1.00  0.00    -0.358 N 
HETATM    5  C19 UNL     1      22.771   3.606  52.294  1.00  0.00     0.152 C 
HETATM    6  C20 UNL     1      22.699   5.023  51.881  1.00  0.00    -0.005 C 
HETATM    7  C21 UNL     1      23.454   5.822  51.110  1.00  0.00     0.026 C 
ENDROOT
BRANCH   1   8
HETATM    8  N2  UNL     1      25.687   6.377  50.339  1.00  0.00    -0.357 N 
HETATM    9  H8  UNL     1      26.013   6.445  51.337  1.00  0.00     0.162 HD
BRANCH   8  10
HETATM   10  C5  UNL     1      26.041   7.045  49.123  1.00  0.00     0.351 C 
BRANCH  10  11
HETATM   11  C4  UNL     1      27.392   6.679  48.653  1.00  0.00    -0.006 A 
HETATM   12  C3  UNL     1      28.172   7.770  48.320  1.00  0.00     0.019 A 
HETATM   13  C2  UNL     1      29.462   7.619  47.860  1.00  0.00    -0.040 A 
HETATM   14  C1  UNL     1      30.388   8.716  47.474  1.00  0.00     0.050 C 
HETATM   15  C24 UNL     1      29.997   6.352  47.724  1.00  0.00     0.040 A 
HETATM   16  C23 UNL     1      29.230   5.247  48.052  1.00  0.00     0.025 A 
HETATM   17 CL1  UNL     1      31.641   6.067  47.143  1.00  0.00    -0.084 Cl
HETATM   18  C22 UNL     1      27.947   5.425  48.509  1.00  0.00     0.013 A 
ENDBRANCH  10  11
BRANCH  10  19
HETATM   19  N1  UNL     1      25.033   6.809  48.095  1.00  0.00     0.105 N 
HETATM   20  H6  UNL     1      25.280   7.248  47.196  1.00  0.00     0.315 HD
HETATM   21  H7  UNL     1      24.085   7.171  48.376  1.00  0.00     0.315 HD
ENDBRANCH  10  19
ENDBRANCH   8  10
ENDBRANCH   1   8
BRANCH   4  22
HETATM   22  C9  UNL     1      23.460   1.504  52.079  1.00  0.00     0.140 A 
HETATM   23  N4  UNL     1      22.292   0.869  52.296  1.00  0.00    -0.224 NA
HETATM   24  C10 UNL     1      22.220  -0.303  52.992  1.00  0.00     0.236 A 
HETATM   25  N5  UNL     1      23.341  -0.889  53.503  1.00  0.00    -0.241 NA
HETATM   26  C11 UNL     1      24.540  -0.279  53.305  1.00  0.00     0.075 A 
HETATM   27  C12 UNL     1      25.705  -0.829  53.797  1.00  0.00     0.072 A 
HETATM   28  C18 UNL     1      24.578   0.904  52.599  1.00  0.00     0.041 A 
HETATM   29  C13 UNL     1      26.916  -0.206  53.589  1.00  0.00     0.103 A 
HETATM   30  C15 UNL     1      26.966   0.995  52.873  1.00  0.00     0.102 A 
HETATM   31  C17 UNL     1      25.781   1.508  52.401  1.00  0.00     0.057 A 
BRANCH  29  32
HETATM   32  O1  UNL     1      28.141  -0.686  54.047  1.00  0.00    -0.353 OA
HETATM   33  C14 UNL     1      29.011  -1.509  53.334  1.00  0.00     0.210 C 
ENDBRANCH  29  32
BRANCH  30  34
HETATM   34  O2  UNL     1      28.177   1.633  52.656  1.00  0.00    -0.353 OA
HETATM   35  C16 UNL     1      28.642   2.537  53.638  1.00  0.00     0.210 C 
ENDBRANCH  30  34
ENDBRANCH   4  22
TORSDOF 7
ENDMDL
MODEL 4
REMARK VINA RESULT:      -8.9      3.999      6.464
REMARK  7 active torsions:
REMARK  status: ('A' for Active; 'I' for Inactive)
REMARK    1  A    between atoms: C4_4  and  C5_5 
REMARK    2  A    between atoms: C5_5  and  N1_6 
REMARK    3  A    between atoms: C5_5  and  N2_7 
REMARK    4  A    between atoms: N2_7  and  C6_8 
REMARK    5  A    between atoms: N3_11  and  C9_12 
REMARK    6  A    between atoms: C13_18  and  O1_19 
REMARK    7  A    between atoms: C15_21  and  O2_22 
ROOT
HETATM    1  C6  UNL     1      23.620   2.662  52.236  1.00  0.00     0.027 C 
HETATM    2  C7  UNL     1      23.226   1.753  51.359  1.00  0.00     0.022 C 
HETATM    3  C8  UNL     1      22.156   1.893  50.316  1.00  0.00     0.154 C 
HETATM    4  N3  UNL     1      20.903   2.382  50.910  1.00  0.00    -0.358 N 
HETATM    5  C19 UNL     1      20.597   3.536  51.723  1.00  0.00     0.152 C 
HETATM    6  C20 UNL     1      21.780   4.319  52.136  1.00  0.00    -0.005 C 
HETATM    7  C21 UNL     1      23.070   4.029  52.371  1.00  0.00     0.026 C 
ENDROOT
BRANCH   1   8
HETATM    8  N2  UNL     1      24.666   2.393  53.186  1.00  0.00    -0.357 N 
HETATM    9  H8  UNL     1      24.115   2.249  54.071  1.00  0.00     0.162 HD
BRANCH   8  10
HETATM   10  C5  UNL     1      26.059   2.364  52.859  1.00  0.00     0.351 C 
BRANCH  10  11
HETATM   11  C4  UNL     1      26.614   0.997  52.878  1.00  0.00    -0.006 A 
HETATM   12  C3  UNL     1      27.947   0.949  53.237  1.00  0.00     0.019 A 
HETATM   13  C2  UNL     1      28.633  -0.244  53.307  1.00  0.00    -0.040 A 
HETATM   14  C1  UNL     1      30.062  -0.413  53.679  1.00  0.00     0.050 C 
HETATM   15  C24 UNL     1      27.981  -1.426  53.014  1.00  0.00     0.040 A 
HETATM   16  C23 UNL     1      26.644  -1.399  52.653  1.00  0.00     0.025 A 
HETATM   17 CL1  UNL     1      28.780  -3.000  53.079  1.00  0.00    -0.084 Cl
HETATM   18  C22 UNL     1      25.984  -0.196  52.590  1.00  0.00     0.013 A 
ENDBRANCH  10  11
BRANCH  10  19
HETATM   19  N1  UNL     1      26.300   3.023  51.579  1.00  0.00     0.105 N 
HETATM   20  H6  UNL     1      25.587   2.784  50.875  1.00  0.00     0.315 HD
HETATM   21  H7  UNL     1      27.241   2.776  51.175  1.00  0.00     0.315 HD
ENDBRANCH  10  19
ENDBRANCH   8  10
ENDBRANCH   1   8
BRANCH   4  22
HETATM   22  C9  UNL     1      19.598   1.776  50.803  1.00  0.00     0.140 A 
HETATM   23  N4  UNL     1      18.749   2.275  49.885  1.00  0.00    -0.224 NA
HETATM   24  C10 UNL     1      17.489   1.776  49.713  1.00  0.00     0.236 A 
HETATM   25  N5  UNL     1      17.033   0.738  50.471  1.00  0.00    -0.241 NA
HETATM   26  C11 UNL     1      17.862   0.207  51.410  1.00  0.00     0.075 A 
HETATM   27  C12 UNL     1      17.453  -0.846  52.202  1.00  0.00     0.072 A 
HETATM   28  C18 UNL     1      19.126   0.733  51.559  1.00  0.00     0.041 A 
HETATM   29  C13 UNL     1      18.300  -1.381  53.148  1.00  0.00     0.103 A 
HETATM   30  C15 UNL     1      19.586  -0.854  53.307  1.00  0.00     0.102 A 
HETATM   31  C17 UNL     1      19.952   0.195  52.496  1.00  0.00     0.057 A 
BRANCH  29  32
HETATM   32  O1  UNL     1      17.975  -2.441  53.990  1.00  0.00    -0.353 OA
HETATM   33  C14 UNL     1      17.291  -3.597  53.618  1.00  0.00     0.210 C 
ENDBRANCH  29  32
BRANCH  30  34
HETATM   34  O2  UNL     1      20.449  -1.382  54.254  1.00  0.00    -0.353 OA
HETATM   35  C16 UNL     1      21.839  -1.195  54.070  1.00  0.00     0.210 C 
ENDBRANCH  30  34
ENDBRANCH   4  22
TORSDOF 7
ENDMDL
MODEL 5
REMARK VINA RESULT:      -8.8      1.933      2.597
REMARK  7 active torsions:
REMARK  status: ('A' for Active; 'I' for Inactive)
REMARK    1  A    between atoms: C4_4  and  C5_5 
REMARK    2  A    between atoms: C5_5  and  N1_6 
REMARK    3  A    between atoms: C5_5  and  N2_7 
REMARK    4  A    between atoms: N2_7  and  C6_8 
REMARK    5  A    between atoms: N3_11  and  C9_12 
REMARK    6  A    between atoms: C13_18  and  O1_19 
REMARK    7  A    between atoms: C15_21  and  O2_22 
ROOT
HETATM    1  C6  UNL     1      24.234   4.492  49.775  1.00  0.00     0.027 C 
HETATM    2  C7  UNL     1      23.829   3.255  49.534  1.00  0.00     0.022 C 
HETATM    3  C8  UNL     1      22.799   2.468  50.290  1.00  0.00     0.154 C 
HETATM    4  N3  UNL     1      23.085   2.475  51.732  1.00  0.00    -0.358 N 
HETATM    5  C19 UNL     1      23.304   3.548  52.675  1.00  0.00     0.152 C 
HETATM    6  C20 UNL     1      23.369   4.891  52.062  1.00  0.00    -0.005 C 
HETATM    7  C21 UNL     1      23.744   5.366  50.864  1.00  0.00     0.026 C 
ENDROOT
BRANCH   1   8
HETATM    8  N2  UNL     1      25.236   5.131  48.965  1.00  0.00    -0.357 N 
HETATM    9  H8  UNL     1      24.672   5.873  48.477  1.00  0.00     0.162 HD
BRANCH   8  10
HETATM   10  C5  UNL     1      26.614   4.740  48.936  1.00  0.00     0.351 C 
BRANCH  10  11
HETATM   11  C4  UNL     1      27.507   5.854  48.562  1.00  0.00    -0.006 A 
HETATM   12  C3  UNL     1      28.783   5.447  48.224  1.00  0.00     0.019 A 
HETATM   13  C2  UNL     1      29.753   6.351  47.850  1.00  0.00    -0.040 A 
HETATM   14  C1  UNL     1      31.152   6.027  47.469  1.00  0.00     0.050 C 
HETATM   15  C24 UNL     1      29.453   7.699  47.809  1.00  0.00     0.040 A 
HETATM   16  C23 UNL     1      28.179   8.127  48.144  1.00  0.00     0.025 A 
HETATM   17 CL1  UNL     1      30.634   8.926  47.340  1.00  0.00    -0.084 Cl
HETATM   18  C22 UNL     1      27.231   7.205  48.514  1.00  0.00     0.013 A 
ENDBRANCH  10  11
BRANCH  10  19
HETATM   19  N1  UNL     1      27.005   4.143  50.209  1.00  0.00     0.105 N 
HETATM   20  H6  UNL     1      27.004   3.113  50.175  1.00  0.00     0.315 HD
HETATM   21  H7  UNL     1      26.371   4.435  50.997  1.00  0.00     0.315 HD
ENDBRANCH  10  19
ENDBRANCH   8  10
ENDBRANCH   1   8
BRANCH   4  22
HETATM   22  C9  UNL     1      23.214   1.329  52.597  1.00  0.00     0.140 A 
HETATM   23  N4  UNL     1      22.084   0.733  53.023  1.00  0.00    -0.224 NA
HETATM   24  C10 UNL     1      22.102  -0.353  53.850  1.00  0.00     0.236 A 
HETATM   25  N5  UNL     1      23.279  -0.889  54.284  1.00  0.00    -0.241 NA
HETATM   26  C11 UNL     1      24.443  -0.315  53.876  1.00  0.00     0.075 A 
HETATM   27  C12 UNL     1      25.661  -0.818  54.282  1.00  0.00     0.072 A 
HETATM   28  C18 UNL     1      24.390   0.780  53.042  1.00  0.00     0.041 A 
HETATM   29  C13 UNL     1      26.836  -0.234  53.861  1.00  0.00     0.103 A 
HETATM   30  C15 UNL     1      26.793   0.878  53.013  1.00  0.00     0.102 A 
HETATM   31  C17 UNL     1      25.557   1.346  52.633  1.00  0.00     0.057 A 
BRANCH  29  32
HETATM   32  O1  UNL     1      28.108  -0.671  54.218  1.00  0.00    -0.353 OA
HETATM   33  C14 UNL     1      28.935  -1.488  53.450  1.00  0.00     0.210 C 
ENDBRANCH  29  32
BRANCH  30  34
HETATM   34  O2  UNL     1      27.967   1.476  52.581  1.00  0.00    -0.353 OA
HETATM   35  C16 UNL     1      28.567   2.450  53.413  1.00  0.00     0.210 C 
ENDBRANCH  30  34
ENDBRANCH   4  22
TORSDOF 7
ENDMDL
MODEL 6
REMARK VINA RESULT:      -8.6      1.624      2.448
REMARK  7 active torsions:
REMARK  status: ('A' for Active; 'I' for Inactive)
REMARK    1  A    between atoms: C4_4  and  C5_5 
REMARK    2  A    between atoms: C5_5  and  N1_6 
REMARK    3  A    between atoms: C5_5  and  N2_7 
REMARK    4  A    between atoms: N2_7  and  C6_8 
REMARK    5  A    between atoms: N3_11  and  C9_12 
REMARK    6  A    between atoms: C13_18  and  O1_19 
REMARK    7  A    between atoms: C15_21  and  O2_22 
ROOT
HETATM    1  C6  UNL     1      23.351   4.422  49.883  1.00  0.00     0.027 C 
HETATM    2  C7  UNL     1      23.265   3.135  49.587  1.00  0.00     0.022 C 
HETATM    3  C8  UNL     1      22.057   2.252  49.696  1.00  0.00     0.154 C 
HETATM    4  N3  UNL     1      21.449   2.353  51.032  1.00  0.00    -0.358 N 
HETATM    5  C19 UNL     1      20.992   3.480  51.809  1.00  0.00     0.152 C 
HETATM    6  C20 UNL     1      21.290   4.796  51.206  1.00  0.00    -0.005 C 
HETATM    7  C21 UNL     1      22.251   5.267  50.395  1.00  0.00     0.026 C 
ENDROOT
BRANCH   1   8
HETATM    8  N2  UNL     1      24.582   5.152  49.730  1.00  0.00    -0.357 N 
HETATM    9  H8  UNL     1      24.265   6.138  49.914  1.00  0.00     0.162 HD
BRANCH   8  10
HETATM   10  C5  UNL     1      25.839   4.547  49.407  1.00  0.00     0.351 C 
BRANCH  10  11
HETATM   11  C4  UNL     1      26.762   5.489  48.744  1.00  0.00    -0.006 A 
HETATM   12  C3  UNL     1      28.049   5.001  48.619  1.00  0.00     0.019 A 
HETATM   13  C2  UNL     1      29.047   5.744  48.026  1.00  0.00    -0.040 A 
HETATM   14  C1  UNL     1      30.459   5.323  47.840  1.00  0.00     0.050 C 
HETATM   15  C24 UNL     1      28.764   7.007  47.542  1.00  0.00     0.040 A 
HETATM   16  C23 UNL     1      27.480   7.513  47.658  1.00  0.00     0.025 A 
HETATM   17 CL1  UNL     1      29.981   8.027  46.768  1.00  0.00    -0.084 Cl
HETATM   18  C22 UNL     1      26.504   6.752  48.253  1.00  0.00     0.013 A 
ENDBRANCH  10  11
BRANCH  10  19
HETATM   19  N1  UNL     1      26.442   3.950  50.593  1.00  0.00     0.105 N 
HETATM   20  H6  UNL     1      27.459   3.819  50.492  1.00  0.00     0.315 HD
HETATM   21  H7  UNL     1      26.022   3.012  50.824  1.00  0.00     0.315 HD
ENDBRANCH  10  19
ENDBRANCH   8  10
ENDBRANCH   1   8
BRANCH   4  22
HETATM   22  C9  UNL     1      21.146   1.267  51.931  1.00  0.00     0.140 A 
HETATM   23  N4  UNL     1      19.864   0.863  52.017  1.00  0.00    -0.224 NA
HETATM   24  C10 UNL     1      19.476  -0.151  52.844  1.00  0.00     0.236 A 
HETATM   25  N5  UNL     1      20.380  -0.807  53.628  1.00  0.00    -0.241 NA
HETATM   26  C11 UNL     1      21.685  -0.428  53.570  1.00  0.00     0.075 A 
HETATM   27  C12 UNL     1      22.641  -1.058  54.338  1.00  0.00     0.072 A 
HETATM   28  C18 UNL     1      22.044   0.599  52.724  1.00  0.00     0.041 A 
HETATM   29  C13 UNL     1      23.962  -0.671  54.270  1.00  0.00     0.103 A 
HETATM   30  C15 UNL     1      24.337   0.370  53.414  1.00  0.00     0.102 A 
HETATM   31  C17 UNL     1      23.351   0.971  52.667  1.00  0.00     0.057 A 
BRANCH  29  32
HETATM   32  O1  UNL     1      24.993  -1.248  55.006  1.00  0.00    -0.353 OA
HETATM   33  C14 UNL     1      25.295  -0.976  56.338  1.00  0.00     0.210 C 
ENDBRANCH  29  32
BRANCH  30  34
HETATM   34  O2  UNL     1      25.662   0.770  53.335  1.00  0.00    -0.353 OA
HETATM   35  C16 UNL     1      26.418   0.361  52.212  1.00  0.00     0.210 C 
ENDBRANCH  30  34
ENDBRANCH   4  22
TORSDOF 7
ENDMDL
MODEL 7
REMARK VINA RESULT:      -8.3      3.530      7.480
REMARK  7 active torsions:
REMARK  status: ('A' for Active; 'I' for Inactive)
REMARK    1  A    between atoms: C4_4  and  C5_5 
REMARK    2  A    between atoms: C5_5  and  N1_6 
REMARK    3  A    between atoms: C5_5  and  N2_7 
REMARK    4  A    between atoms: N2_7  and  C6_8 
REMARK    5  A    between atoms: N3_11  and  C9_12 
REMARK    6  A    between atoms: C13_18  and  O1_19 
REMARK    7  A    between atoms: C15_21  and  O2_22 
ROOT
HETATM    1  C6  UNL     1      24.807   3.751  50.004  1.00  0.00     0.027 C 
HETATM    2  C7  UNL     1      23.861   2.904  49.631  1.00  0.00     0.022 C 
HETATM    3  C8  UNL     1      23.001   2.978  48.403  1.00  0.00     0.154 C 
HETATM    4  N3  UNL     1      22.366   4.299  48.284  1.00  0.00    -0.358 N 
HETATM    5  C19 UNL     1      22.903   5.640  48.281  1.00  0.00     0.152 C 
HETATM    6  C20 UNL     1      24.351   5.716  48.564  1.00  0.00    -0.005 C 
HETATM    7  C21 UNL     1      25.215   4.969  49.271  1.00  0.00     0.026 C 
ENDROOT
BRANCH   1   8
HETATM    8  N2  UNL     1      25.560   3.557  51.214  1.00  0.00    -0.357 N 
HETATM    9  H8  UNL     1      26.334   4.259  51.095  1.00  0.00     0.162 HD
BRANCH   8  10
HETATM   10  C5  UNL     1      25.217   2.608  52.230  1.00  0.00     0.351 C 
BRANCH  10  11
HETATM   11  C4  UNL     1      26.355   1.743  52.599  1.00  0.00    -0.006 A 
HETATM   12  C3  UNL     1      26.124   0.401  52.364  1.00  0.00     0.019 A 
HETATM   13  C2  UNL     1      27.075  -0.554  52.650  1.00  0.00    -0.040 A 
HETATM   14  C1  UNL     1      26.936  -2.019  52.440  1.00  0.00     0.050 C 
HETATM   15  C24 UNL     1      28.290  -0.172  53.185  1.00  0.00     0.040 A 
HETATM   16  C23 UNL     1      28.540   1.168  53.428  1.00  0.00     0.025 A 
HETATM   17 CL1  UNL     1      29.566  -1.329  53.581  1.00  0.00    -0.084 Cl
HETATM   18  C22 UNL     1      27.575   2.100  53.134  1.00  0.00     0.013 A 
ENDBRANCH  10  11
BRANCH  10  19
HETATM   19  N1  UNL     1      24.656   3.283  53.395  1.00  0.00     0.105 N 
HETATM   20  H6  UNL     1      25.382   3.707  53.990  1.00  0.00     0.315 HD
HETATM   21  H7  UNL     1      24.091   2.631  53.999  1.00  0.00     0.315 HD
ENDBRANCH  10  19
ENDBRANCH   8  10
ENDBRANCH   1   8
BRANCH   4  22
HETATM   22  C9  UNL     1      20.959   4.574  48.127  1.00  0.00     0.140 A 
HETATM   23  N4  UNL     1      20.539   5.031  46.932  1.00  0.00    -0.224 NA
HETATM   24  C10 UNL     1      19.229   5.328  46.686  1.00  0.00     0.236 A 
HETATM   25  N5  UNL     1      18.278   5.171  47.652  1.00  0.00    -0.241 NA
HETATM   26  C11 UNL     1      18.663   4.712  48.873  1.00  0.00     0.075 A 
HETATM   27  C12 UNL     1      17.743   4.531  49.885  1.00  0.00     0.072 A 
HETATM   28  C18 UNL     1      19.992   4.422  49.088  1.00  0.00     0.041 A 
HETATM   29  C13 UNL     1      18.140   4.061  51.118  1.00  0.00     0.103 A 
HETATM   30  C15 UNL     1      19.488   3.764  51.346  1.00  0.00     0.102 A 
HETATM   31  C17 UNL     1      20.371   3.958  50.310  1.00  0.00     0.057 A 
BRANCH  29  32
HETATM   32  O1  UNL     1      17.284   3.848  52.195  1.00  0.00    -0.353 OA
HETATM   33  C14 UNL     1      15.926   4.157  52.230  1.00  0.00     0.210 C 
ENDBRANCH  29  32
BRANCH  30  34
HETATM   34  O2  UNL     1      19.902   3.290  52.581  1.00  0.00    -0.353 OA
HETATM   35  C16 UNL     1      20.525   2.021  52.636  1.00  0.00     0.210 C 
ENDBRANCH  30  34
ENDBRANCH   4  22
TORSDOF 7
ENDMDL
MODEL 8
REMARK VINA RESULT:      -8.2      4.449      8.120
REMARK  7 active torsions:
REMARK  status: ('A' for Active; 'I' for Inactive)
REMARK    1  A    between atoms: C4_4  and  C5_5 
REMARK    2  A    between atoms: C5_5  and  N1_6 
REMARK    3  A    between atoms: C5_5  and  N2_7 
REMARK    4  A    between atoms: N2_7  and  C6_8 
REMARK    5  A    between atoms: N3_11  and  C9_12 
REMARK    6  A    between atoms: C13_18  and  O1_19 
REMARK    7  A    between atoms: C15_21  and  O2_22 
ROOT
HETATM    1  C6  UNL     1      19.949   1.717  51.373  1.00  0.00     0.027 C 
HETATM    2  C7  UNL     1      20.682   2.678  51.911  1.00  0.00     0.022 C 
HETATM    3  C8  UNL     1      21.640   3.596  51.209  1.00  0.00     0.154 C 
HETATM    4  N3  UNL     1      22.595   2.834  50.391  1.00  0.00    -0.358 N 
HETATM    5  C19 UNL     1      22.415   1.842  49.357  1.00  0.00     0.152 C 
HETATM    6  C20 UNL     1      21.013   1.422  49.155  1.00  0.00    -0.005 C 
HETATM    7  C21 UNL     1      19.928   1.341  49.942  1.00  0.00     0.026 C 
ENDROOT
BRANCH   1   8
HETATM    8  N2  UNL     1      19.064   0.907  52.168  1.00  0.00    -0.357 N 
HETATM    9  H8  UNL     1      19.543   0.929  53.105  1.00  0.00     0.162 HD
BRANCH   8  10
HETATM   10  C5  UNL     1      17.872   0.291  51.667  1.00  0.00     0.351 C 
BRANCH  10  11
HETATM   11  C4  UNL     1      17.571  -0.986  52.343  1.00  0.00    -0.006 A 
HETATM   12  C3  UNL     1      16.352  -1.525  51.981  1.00  0.00     0.019 A 
HETATM   13  C2  UNL     1      15.904  -2.714  52.514  1.00  0.00    -0.040 A 
HETATM   14  C1  UNL     1      14.615  -3.385  52.200  1.00  0.00     0.050 C 
HETATM   15  C24 UNL     1      16.684  -3.391  53.433  1.00  0.00     0.040 A 
HETATM   16  C23 UNL     1      17.909  -2.865  53.808  1.00  0.00     0.025 A 
HETATM   17 CL1  UNL     1      16.188  -4.920  54.164  1.00  0.00    -0.084 Cl
HETATM   18  C22 UNL     1      18.332  -1.678  53.262  1.00  0.00     0.013 A 
ENDBRANCH  10  11
BRANCH  10  19
HETATM   19  N1  UNL     1      16.746   1.216  51.741  1.00  0.00     0.105 N 
HETATM   20  H6  UNL     1      16.435   1.379  52.710  1.00  0.00     0.315 HD
HETATM   21  H7  UNL     1      15.914   0.875  51.193  1.00  0.00     0.315 HD
ENDBRANCH  10  19
ENDBRANCH   8  10
ENDBRANCH   1   8
BRANCH   4  22
HETATM   22  C9  UNL     1      24.034   2.916  50.436  1.00  0.00     0.140 A 
HETATM   23  N4  UNL     1      24.638   3.801  49.619  1.00  0.00    -0.224 NA
HETATM   24  C10 UNL     1      25.995   3.947  49.582  1.00  0.00     0.236 A 
HETATM   25  N5  UNL     1      26.807   3.196  50.380  1.00  0.00    -0.241 NA
HETATM   26  C11 UNL     1      26.235   2.290  51.219  1.00  0.00     0.075 A 
HETATM   27  C12 UNL     1      27.008   1.507  52.051  1.00  0.00     0.072 A 
HETATM   28  C18 UNL     1      24.863   2.167  51.232  1.00  0.00     0.041 A 
HETATM   29  C13 UNL     1      26.420   0.595  52.900  1.00  0.00     0.103 A 
HETATM   30  C15 UNL     1      25.028   0.462  52.921  1.00  0.00     0.102 A 
HETATM   31  C17 UNL     1      24.296   1.263  52.076  1.00  0.00     0.057 A 
BRANCH  29  32
HETATM   32  O1  UNL     1      27.118  -0.236  53.773  1.00  0.00    -0.353 OA
HETATM   33  C14 UNL     1      27.928   0.184  54.826  1.00  0.00     0.210 C 
ENDBRANCH  29  32
BRANCH  30  34
HETATM   34  O2  UNL     1      24.423  -0.450  53.771  1.00  0.00    -0.353 OA
HETATM   35  C16 UNL     1      23.040  -0.698  53.611  1.00  0.00     0.210 C 
ENDBRANCH  30  34
ENDBRANCH   4  22
TORSDOF 7
ENDMDL
MODEL 9
REMARK VINA RESULT:      -7.9      4.480      7.490
REMARK  7 active torsions:
REMARK  status: ('A' for Active; 'I' for Inactive)
REMARK    1  A    between atoms: C4_4  and  C5_5 
REMARK    2  A    between atoms: C5_5  and  N1_6 
REMARK    3  A    between atoms: C5_5  and  N2_7 
REMARK    4  A    between atoms: N2_7  and  C6_8 
REMARK    5  A    between atoms: N3_11  and  C9_12 
REMARK    6  A    between atoms: C13_18  and  O1_19 
REMARK    7  A    between atoms: C15_21  and  O2_22 
ROOT
HETATM    1  C6  UNL     1      19.794   1.628  50.962  1.00  0.00     0.027 C 
HETATM    2  C7  UNL     1      20.723   0.701  50.792  1.00  0.00     0.022 C 
HETATM    3  C8  UNL     1      21.943   0.466  51.633  1.00  0.00     0.154 C 
HETATM    4  N3  UNL     1      22.709   1.710  51.809  1.00  0.00    -0.358 N 
HETATM    5  C19 UNL     1      22.337   3.021  52.287  1.00  0.00     0.152 C 
HETATM    6  C20 UNL     1      20.891   3.187  52.544  1.00  0.00    -0.005 C 
HETATM    7  C21 UNL     1      19.773   2.645  52.036  1.00  0.00     0.026 C 
ENDROOT
BRANCH   1   8
HETATM    8  N2  UNL     1      18.667   1.740  50.074  1.00  0.00    -0.357 N 
HETATM    9  H8  UNL     1      19.053   2.369  49.323  1.00  0.00     0.162 HD
BRANCH   8  10
HETATM   10  C5  UNL     1      17.406   1.100  50.294  1.00  0.00     0.351 C 
BRANCH  10  11
HETATM   11  C4  UNL     1      16.482   1.935  51.087  1.00  0.00    -0.006 A 
HETATM   12  C3  UNL     1      15.572   1.200  51.823  1.00  0.00     0.019 A 
HETATM   13  C2  UNL     1      14.630   1.812  52.623  1.00  0.00    -0.040 A 
HETATM   14  C1  UNL     1      13.607   1.125  53.453  1.00  0.00     0.050 C 
HETATM   15  C24 UNL     1      14.587   3.191  52.696  1.00  0.00     0.040 A 
HETATM   16  C23 UNL     1      15.490   3.944  51.966  1.00  0.00     0.025 A 
HETATM   17 CL1  UNL     1      13.415   4.058  53.695  1.00  0.00    -0.084 Cl
HETATM   18  C22 UNL     1      16.419   3.310  51.177  1.00  0.00     0.013 A 
ENDBRANCH  10  11
BRANCH  10  19
HETATM   19  N1  UNL     1      16.808   0.694  49.027  1.00  0.00     0.105 N 
HETATM   20  H6  UNL     1      17.249  -0.153  48.639  1.00  0.00     0.315 HD
HETATM   21  H7  UNL     1      16.872   1.449  48.296  1.00  0.00     0.315 HD
ENDBRANCH  10  19
ENDBRANCH   8  10
ENDBRANCH   1   8
BRANCH   4  22
HETATM   22  C9  UNL     1      24.108   1.915  51.526  1.00  0.00     0.140 A 
HETATM   23  N4  UNL     1      24.430   2.782  50.547  1.00  0.00    -0.224 NA
HETATM   24  C10 UNL     1      25.725   3.038  50.200  1.00  0.00     0.236 A 
HETATM   25  N5  UNL     1      26.761   2.420  50.838  1.00  0.00    -0.241 NA
HETATM   26  C11 UNL     1      26.477   1.537  51.833  1.00  0.00     0.075 A 
HETATM   27  C12 UNL     1      27.485   0.886  52.513  1.00  0.00     0.072 A 
HETATM   28  C18 UNL     1      25.159   1.301  52.159  1.00  0.00     0.041 A 
HETATM   29  C13 UNL     1      27.188  -0.004  53.522  1.00  0.00     0.103 A 
HETATM   30  C15 UNL     1      25.854  -0.251  53.861  1.00  0.00     0.102 A 
HETATM   31  C17 UNL     1      24.881   0.420  53.157  1.00  0.00     0.057 A 
BRANCH  29  32
HETATM   32  O1  UNL     1      28.137  -0.705  54.261  1.00  0.00    -0.353 OA
HETATM   33  C14 UNL     1      29.500  -0.778  53.978  1.00  0.00     0.210 C 
ENDBRANCH  29  32
BRANCH  30  34
HETATM   34  O2  UNL     1      25.540  -1.143  54.874  1.00  0.00    -0.353 OA
HETATM   35  C16 UNL     1      24.209  -1.172  55.351  1.00  0.00     0.210 C 
ENDBRANCH  30  34
ENDBRANCH   4  22
TORSDOF 7
ENDMDL
