MODEL 1
REMARK VINA RESULT:      -7.5      0.000      0.000
REMARK  5 active torsions:
REMARK  status: ('A' for Active; 'I' for Inactive)
REMARK       I    between atoms: C3_3  and  N1_5 
REMARK    1  A    between atoms: N1_5  and  C4_6 
REMARK    2  A    between atoms: N1_5  and  C11_15 
REMARK    3  A    between atoms: C4_6  and  C5_7 
REMARK    4  A    between atoms: C5_7  and  C6_8 
REMARK    5  A    between atoms: C6_8  and  N2_9 
ROOT
HETATM    1  C1  UNL     1      27.105   4.738  48.806  1.00  0.00     0.017 C 
HETATM    2  C2  UNL     1      26.687   3.929  49.729  1.00  0.00     0.064 C 
HETATM    3  C3  UNL     1      26.313   3.038  50.773  1.00  0.00     0.247 C 
HETATM    4  O1  UNL     1      27.345   2.777  51.443  1.00  0.00    -0.268 OA
HETATM    5  N1  UNL     1      25.177   2.378  51.274  1.00  0.00    -0.315 N 
ENDROOT
BRANCH   5   6
HETATM    6  C4  UNL     1      23.815   2.373  50.839  1.00  0.00     0.134 C 
BRANCH   6   7
HETATM    7  C5  UNL     1      22.844   1.933  51.895  1.00  0.00     0.040 C 
BRANCH   7   8
HETATM    8  C6  UNL     1      22.200   0.592  51.543  1.00  0.00     0.118 C 
BRANCH   8   9
HETATM    9  N2  UNL     1      21.921  -0.089  52.742  1.00  0.00    -0.408 N 
HETATM   10  C7  UNL     1      20.621   0.042  53.305  1.00  0.00     0.143 C 
HETATM   11  C8  UNL     1      20.292  -1.258  54.016  1.00  0.00     0.187 C 
HETATM   12  O2  UNL     1      21.463  -1.959  54.260  1.00  0.00    -0.388 OA
HETATM   13  C9  UNL     1      22.504  -1.170  54.748  1.00  0.00     0.187 C 
HETATM   14  C10 UNL     1      22.879  -0.049  53.790  1.00  0.00     0.143 C 
ENDBRANCH   8   9
ENDBRANCH   7   8
ENDBRANCH   6   7
ENDBRANCH   5   6
BRANCH   5  15
HETATM   15  C11 UNL     1      25.717   1.670  52.381  1.00  0.00     0.038 A 
HETATM   16  C12 UNL     1      25.843   2.140  53.692  1.00  0.00     0.030 A 
HETATM   17  C13 UNL     1      26.389   1.316  54.638  1.00  0.00     0.004 A 
HETATM   18  C14 UNL     1      26.829   0.036  54.392  1.00  0.00     0.023 A 
HETATM   19  C15 UNL     1      26.722  -0.473  53.101  1.00  0.00     0.046 A 
HETATM   20  C16 UNL     1      27.151  -1.788  52.753  1.00  0.00     0.099 C 
HETATM   21  C17 UNL     1      26.166   0.377  52.155  1.00  0.00     0.052 A 
HETATM   22  N3  UNL     1      27.490  -2.876  52.479  1.00  0.00    -0.191 NA
ENDBRANCH   5  15
TORSDOF 5
ENDMDL
MODEL 2
REMARK VINA RESULT:      -7.3      1.307      1.677
REMARK  5 active torsions:
REMARK  status: ('A' for Active; 'I' for Inactive)
REMARK       I    between atoms: C3_3  and  N1_5 
REMARK    1  A    between atoms: N1_5  and  C4_6 
REMARK    2  A    between atoms: N1_5  and  C11_15 
REMARK    3  A    between atoms: C4_6  and  C5_7 
REMARK    4  A    between atoms: C5_7  and  C6_8 
REMARK    5  A    between atoms: C6_8  and  N2_9 
ROOT
HETATM    1  C1  UNL     1      25.116   4.589  49.116  1.00  0.00     0.017 C 
HETATM    2  C2  UNL     1      25.495   3.883  50.134  1.00  0.00     0.064 C 
HETATM    3  C3  UNL     1      25.992   3.099  51.212  1.00  0.00     0.247 C 
HETATM    4  O1  UNL     1      27.182   2.790  50.946  1.00  0.00    -0.268 OA
HETATM    5  N1  UNL     1      25.576   2.578  52.450  1.00  0.00    -0.315 N 
ENDROOT
BRANCH   5   6
HETATM    6  C4  UNL     1      24.330   2.668  53.145  1.00  0.00     0.134 C 
BRANCH   6   7
HETATM    7  C5  UNL     1      23.129   2.517  52.258  1.00  0.00     0.040 C 
BRANCH   7   8
HETATM    8  C6  UNL     1      22.973   1.079  51.763  1.00  0.00     0.118 C 
BRANCH   8   9
HETATM    9  N2  UNL     1      22.232   0.363  52.721  1.00  0.00    -0.408 N 
HETATM   10  C7  UNL     1      22.809  -0.811  53.279  1.00  0.00     0.143 C 
HETATM   11  C8  UNL     1      22.308  -0.939  54.706  1.00  0.00     0.187 C 
HETATM   12  O2  UNL     1      21.168  -0.166  54.864  1.00  0.00    -0.388 OA
HETATM   13  C9  UNL     1      20.254  -0.283  53.817  1.00  0.00     0.187 C 
HETATM   14  C10 UNL     1      20.852   0.124  52.479  1.00  0.00     0.143 C 
ENDBRANCH   8   9
ENDBRANCH   7   8
ENDBRANCH   6   7
ENDBRANCH   5   6
BRANCH   5  15
HETATM   15  C11 UNL     1      26.743   1.897  52.887  1.00  0.00     0.038 A 
HETATM   16  C12 UNL     1      27.875   2.472  53.475  1.00  0.00     0.030 A 
HETATM   17  C13 UNL     1      28.914   1.659  53.837  1.00  0.00     0.004 A 
HETATM   18  C14 UNL     1      28.929   0.294  53.664  1.00  0.00     0.023 A 
HETATM   19  C15 UNL     1      27.824  -0.320  53.083  1.00  0.00     0.046 A 
HETATM   20  C16 UNL     1      27.751  -1.728  52.864  1.00  0.00     0.099 C 
HETATM   21  C17 UNL     1      26.780   0.520  52.722  1.00  0.00     0.052 A 
HETATM   22  N3  UNL     1      27.691  -2.887  52.704  1.00  0.00    -0.191 NA
ENDBRANCH   5  15
TORSDOF 5
ENDMDL
MODEL 3
REMARK VINA RESULT:      -7.2      2.336      5.959
REMARK  5 active torsions:
REMARK  status: ('A' for Active; 'I' for Inactive)
REMARK       I    between atoms: C3_3  and  N1_5 
REMARK    1  A    between atoms: N1_5  and  C4_6 
REMARK    2  A    between atoms: N1_5  and  C11_15 
REMARK    3  A    between atoms: C4_6  and  C5_7 
REMARK    4  A    between atoms: C5_7  and  C6_8 
REMARK    5  A    between atoms: C6_8  and  N2_9 
ROOT
HETATM    1  C1  UNL     1      21.510  -0.646  54.673  1.00  0.00     0.017 C 
HETATM    2  C2  UNL     1      22.694  -0.454  54.182  1.00  0.00     0.064 C 
HETATM    3  C3  UNL     1      24.026  -0.302  53.704  1.00  0.00     0.247 C 
HETATM    4  O1  UNL     1      24.769  -1.044  54.397  1.00  0.00    -0.268 OA
HETATM    5  N1  UNL     1      24.747   0.400  52.723  1.00  0.00    -0.315 N 
ENDROOT
BRANCH   5   6
HETATM    6  C4  UNL     1      24.329   1.341  51.731  1.00  0.00     0.134 C 
BRANCH   6   7
HETATM    7  C5  UNL     1      25.008   2.674  51.837  1.00  0.00     0.040 C 
BRANCH   7   8
HETATM    8  C6  UNL     1      26.006   2.889  50.698  1.00  0.00     0.118 C 
BRANCH   8   9
HETATM    9  N2  UNL     1      25.822   4.188  50.191  1.00  0.00    -0.408 N 
HETATM   10  C7  UNL     1      24.492   4.648  49.982  1.00  0.00     0.143 C 
HETATM   11  C8  UNL     1      24.478   6.147  50.221  1.00  0.00     0.187 C 
HETATM   12  O2  UNL     1      25.772   6.638  50.137  1.00  0.00    -0.388 OA
HETATM   13  C9  UNL     1      26.500   6.135  49.059  1.00  0.00     0.187 C 
HETATM   14  C10 UNL     1      26.632   4.620  49.106  1.00  0.00     0.143 C 
ENDBRANCH   8   9
ENDBRANCH   7   8
ENDBRANCH   6   7
ENDBRANCH   5   6
BRANCH   5  15
HETATM   15  C11 UNL     1      26.071  -0.061  52.949  1.00  0.00     0.038 A 
HETATM   16  C12 UNL     1      26.596  -1.306  52.586  1.00  0.00     0.030 A 
HETATM   17  C13 UNL     1      27.903  -1.583  52.884  1.00  0.00     0.004 A 
HETATM   18  C14 UNL     1      28.753  -0.712  53.525  1.00  0.00     0.023 A 
HETATM   19  C15 UNL     1      28.274   0.537  53.905  1.00  0.00     0.046 A 
HETATM   20  C16 UNL     1      29.083   1.503  54.574  1.00  0.00     0.099 C 
HETATM   21  C17 UNL     1      26.947   0.800  53.595  1.00  0.00     0.052 A 
HETATM   22  N3  UNL     1      29.759   2.298  55.107  1.00  0.00    -0.191 NA
ENDBRANCH   5  15
TORSDOF 5
ENDMDL
MODEL 4
REMARK VINA RESULT:      -7.1      2.665      4.412
REMARK  5 active torsions:
REMARK  status: ('A' for Active; 'I' for Inactive)
REMARK       I    between atoms: C3_3  and  N1_5 
REMARK    1  A    between atoms: N1_5  and  C4_6 
REMARK    2  A    between atoms: N1_5  and  C11_15 
REMARK    3  A    between atoms: C4_6  and  C5_7 
REMARK    4  A    between atoms: C5_7  and  C6_8 
REMARK    5  A    between atoms: C6_8  and  N2_9 
ROOT
HETATM    1  C1  UNL     1      21.873  -1.049  54.976  1.00  0.00     0.017 C 
HETATM    2  C2  UNL     1      23.027  -0.780  54.451  1.00  0.00     0.064 C 
HETATM    3  C3  UNL     1      24.331  -0.542  53.934  1.00  0.00     0.247 C 
HETATM    4  O1  UNL     1      25.140  -1.241  54.598  1.00  0.00    -0.268 OA
HETATM    5  N1  UNL     1      24.977   0.211  52.938  1.00  0.00    -0.315 N 
ENDROOT
BRANCH   5   6
HETATM    6  C4  UNL     1      24.471   1.130  51.968  1.00  0.00     0.134 C 
BRANCH   6   7
HETATM    7  C5  UNL     1      23.696   2.270  52.560  1.00  0.00     0.040 C 
BRANCH   7   8
HETATM    8  C6  UNL     1      22.789   2.933  51.522  1.00  0.00     0.118 C 
BRANCH   8   9
HETATM    9  N2  UNL     1      21.601   2.183  51.436  1.00  0.00    -0.408 N 
HETATM   10  C7  UNL     1      20.698   2.472  50.375  1.00  0.00     0.143 C 
HETATM   11  C8  UNL     1      20.002   1.178  49.996  1.00  0.00     0.187 C 
HETATM   12  O2  UNL     1      20.129   0.265  51.032  1.00  0.00    -0.388 OA
HETATM   13  C9  UNL     1      19.898   0.808  52.296  1.00  0.00     0.187 C 
HETATM   14  C10 UNL     1      20.855   1.945  52.621  1.00  0.00     0.143 C 
ENDBRANCH   8   9
ENDBRANCH   7   8
ENDBRANCH   6   7
ENDBRANCH   5   6
BRANCH   5  15
HETATM   15  C11 UNL     1      26.334  -0.169  53.121  1.00  0.00     0.038 A 
HETATM   16  C12 UNL     1      26.923  -1.376  52.733  1.00  0.00     0.030 A 
HETATM   17  C13 UNL     1      28.253  -1.573  52.989  1.00  0.00     0.004 A 
HETATM   18  C14 UNL     1      29.068  -0.654  53.609  1.00  0.00     0.023 A 
HETATM   19  C15 UNL     1      28.524   0.561  54.012  1.00  0.00     0.046 A 
HETATM   20  C16 UNL     1      29.292   1.572  54.662  1.00  0.00     0.099 C 
HETATM   21  C17 UNL     1      27.174   0.743  53.745  1.00  0.00     0.052 A 
HETATM   22  N3  UNL     1      29.934   2.405  55.180  1.00  0.00    -0.191 NA
ENDBRANCH   5  15
TORSDOF 5
ENDMDL
MODEL 5
REMARK VINA RESULT:      -7.0      3.014      5.214
REMARK  5 active torsions:
REMARK  status: ('A' for Active; 'I' for Inactive)
REMARK       I    between atoms: C3_3  and  N1_5 
REMARK    1  A    between atoms: N1_5  and  C4_6 
REMARK    2  A    between atoms: N1_5  and  C11_15 
REMARK    3  A    between atoms: C4_6  and  C5_7 
REMARK    4  A    between atoms: C5_7  and  C6_8 
REMARK    5  A    between atoms: C6_8  and  N2_9 
ROOT
HETATM    1  C1  UNL     1      21.383  -0.556  54.619  1.00  0.00     0.017 C 
HETATM    2  C2  UNL     1      22.566  -0.366  54.123  1.00  0.00     0.064 C 
HETATM    3  C3  UNL     1      23.895  -0.219  53.637  1.00  0.00     0.247 C 
HETATM    4  O1  UNL     1      24.633  -0.995  54.298  1.00  0.00    -0.268 OA
HETATM    5  N1  UNL     1      24.618   0.504  52.673  1.00  0.00    -0.315 N 
ENDROOT
BRANCH   5   6
HETATM    6  C4  UNL     1      24.206   1.484  51.718  1.00  0.00     0.134 C 
BRANCH   6   7
HETATM    7  C5  UNL     1      23.577   2.701  52.331  1.00  0.00     0.040 C 
BRANCH   7   8
HETATM    8  C6  UNL     1      22.080   2.774  52.026  1.00  0.00     0.118 C 
BRANCH   8   9
HETATM    9  N2  UNL     1      21.833   3.965  51.320  1.00  0.00    -0.408 N 
HETATM   10  C7  UNL     1      21.837   3.919  49.898  1.00  0.00     0.143 C 
HETATM   11  C8  UNL     1      20.844   4.954  49.400  1.00  0.00     0.187 C 
HETATM   12  O2  UNL     1      20.589   5.870  50.409  1.00  0.00    -0.388 OA
HETATM   13  C9  UNL     1      21.731   6.303  51.083  1.00  0.00     0.187 C 
HETATM   14  C10 UNL     1      22.483   5.157  51.741  1.00  0.00     0.143 C 
ENDBRANCH   8   9
ENDBRANCH   7   8
ENDBRANCH   6   7
ENDBRANCH   5   6
BRANCH   5  15
HETATM   15  C11 UNL     1      25.937   0.015  52.871  1.00  0.00     0.038 A 
HETATM   16  C12 UNL     1      26.433  -1.233  52.479  1.00  0.00     0.030 A 
HETATM   17  C13 UNL     1      27.739  -1.539  52.752  1.00  0.00     0.004 A 
HETATM   18  C14 UNL     1      28.615  -0.695  53.394  1.00  0.00     0.023 A 
HETATM   19  C15 UNL     1      28.165   0.556  53.802  1.00  0.00     0.046 A 
HETATM   20  C16 UNL     1      29.003   1.495  54.474  1.00  0.00     0.099 C 
HETATM   21  C17 UNL     1      26.839   0.849  53.517  1.00  0.00     0.052 A 
HETATM   22  N3  UNL     1      29.701   2.269  55.010  1.00  0.00    -0.191 NA
ENDBRANCH   5  15
TORSDOF 5
ENDMDL
MODEL 6
REMARK VINA RESULT:      -6.9      2.995      6.307
REMARK  5 active torsions:
REMARK  status: ('A' for Active; 'I' for Inactive)
REMARK       I    between atoms: C3_3  and  N1_5 
REMARK    1  A    between atoms: N1_5  and  C4_6 
REMARK    2  A    between atoms: N1_5  and  C11_15 
REMARK    3  A    between atoms: C4_6  and  C5_7 
REMARK    4  A    between atoms: C5_7  and  C6_8 
REMARK    5  A    between atoms: C6_8  and  N2_9 
ROOT
HETATM    1  C1  UNL     1      21.314   1.008  49.572  1.00  0.00     0.017 C 
HETATM    2  C2  UNL     1      22.373   1.718  49.806  1.00  0.00     0.064 C 
HETATM    3  C3  UNL     1      23.528   2.532  49.979  1.00  0.00     0.247 C 
HETATM    4  O1  UNL     1      23.699   3.186  48.918  1.00  0.00    -0.268 OA
HETATM    5  N1  UNL     1      24.507   2.824  50.944  1.00  0.00    -0.315 N 
ENDROOT
BRANCH   5   6
HETATM    6  C4  UNL     1      24.710   2.328  52.269  1.00  0.00     0.134 C 
BRANCH   6   7
HETATM    7  C5  UNL     1      25.283   0.942  52.316  1.00  0.00     0.040 C 
BRANCH   7   8
HETATM    8  C6  UNL     1      26.743   0.922  51.861  1.00  0.00     0.118 C 
BRANCH   8   9
HETATM    9  N2  UNL     1      27.498   0.247  52.839  1.00  0.00    -0.408 N 
HETATM   10  C7  UNL     1      27.459  -1.175  52.858  1.00  0.00     0.143 C 
HETATM   11  C8  UNL     1      28.808  -1.667  53.349  1.00  0.00     0.187 C 
HETATM   12  O2  UNL     1      29.463  -0.636  54.007  1.00  0.00    -0.388 OA
HETATM   13  C9  UNL     1      28.650   0.083  54.883  1.00  0.00     0.187 C 
HETATM   14  C10 UNL     1      27.465   0.724  54.177  1.00  0.00     0.143 C 
ENDBRANCH   8   9
ENDBRANCH   7   8
ENDBRANCH   6   7
ENDBRANCH   5   6
BRANCH   5  15
HETATM   15  C11 UNL     1      25.305   3.785  50.266  1.00  0.00     0.038 A 
HETATM   16  C12 UNL     1      26.422   3.528  49.466  1.00  0.00     0.030 A 
HETATM   17  C13 UNL     1      27.075   4.582  48.886  1.00  0.00     0.004 A 
HETATM   18  C14 UNL     1      26.706   5.899  49.034  1.00  0.00     0.023 A 
HETATM   19  C15 UNL     1      25.600   6.201  49.822  1.00  0.00     0.046 A 
HETATM   20  C16 UNL     1      25.145   7.537  50.032  1.00  0.00     0.099 C 
HETATM   21  C17 UNL     1      24.951   5.120  50.402  1.00  0.00     0.052 A 
HETATM   22  N3  UNL     1      24.766   8.635  50.185  1.00  0.00    -0.191 NA
ENDBRANCH   5  15
TORSDOF 5
ENDMDL
MODEL 7
REMARK VINA RESULT:      -6.9      2.668      6.366
REMARK  5 active torsions:
REMARK  status: ('A' for Active; 'I' for Inactive)
REMARK       I    between atoms: C3_3  and  N1_5 
REMARK    1  A    between atoms: N1_5  and  C4_6 
REMARK    2  A    between atoms: N1_5  and  C11_15 
REMARK    3  A    between atoms: C4_6  and  C5_7 
REMARK    4  A    between atoms: C5_7  and  C6_8 
REMARK    5  A    between atoms: C6_8  and  N2_9 
ROOT
HETATM    1  C1  UNL     1      22.767  -0.967  53.843  1.00  0.00     0.017 C 
HETATM    2  C2  UNL     1      23.259   0.103  53.301  1.00  0.00     0.064 C 
HETATM    3  C3  UNL     1      23.741   1.266  52.639  1.00  0.00     0.247 C 
HETATM    4  O1  UNL     1      23.091   1.395  51.569  1.00  0.00    -0.268 OA
HETATM    5  N1  UNL     1      24.692   2.288  52.805  1.00  0.00    -0.315 N 
ENDROOT
BRANCH   5   6
HETATM    6  C4  UNL     1      25.639   2.540  53.846  1.00  0.00     0.134 C 
BRANCH   6   7
HETATM    7  C5  UNL     1      26.920   1.773  53.698  1.00  0.00     0.040 C 
BRANCH   7   8
HETATM    8  C6  UNL     1      26.937   0.529  54.587  1.00  0.00     0.118 C 
BRANCH   8   9
HETATM    9  N2  UNL     1      27.465  -0.539  53.838  1.00  0.00    -0.408 N 
HETATM   10  C7  UNL     1      28.813  -0.449  53.393  1.00  0.00     0.143 C 
HETATM   11  C8  UNL     1      29.383  -1.855  53.357  1.00  0.00     0.187 C 
HETATM   12  O2  UNL     1      28.343  -2.772  53.342  1.00  0.00    -0.388 OA
HETATM   13  C9  UNL     1      27.309  -2.442  52.466  1.00  0.00     0.187 C 
HETATM   14  C10 UNL     1      26.676  -1.100  52.798  1.00  0.00     0.143 C 
ENDBRANCH   8   9
ENDBRANCH   7   8
ENDBRANCH   6   7
ENDBRANCH   5   6
BRANCH   5  15
HETATM   15  C11 UNL     1      24.491   3.066  51.634  1.00  0.00     0.038 A 
HETATM   16  C12 UNL     1      25.091   2.866  50.386  1.00  0.00     0.030 A 
HETATM   17  C13 UNL     1      24.779   3.718  49.361  1.00  0.00     0.004 A 
HETATM   18  C14 UNL     1      23.903   4.774  49.469  1.00  0.00     0.023 A 
HETATM   19  C15 UNL     1      23.284   5.009  50.692  1.00  0.00     0.046 A 
HETATM   20  C16 UNL     1      22.363   6.079  50.896  1.00  0.00     0.099 C 
HETATM   21  C17 UNL     1      23.612   4.136  51.720  1.00  0.00     0.052 A 
HETATM   22  N3  UNL     1      21.594   6.950  51.052  1.00  0.00    -0.191 NA
ENDBRANCH   5  15
TORSDOF 5
ENDMDL
MODEL 8
REMARK VINA RESULT:      -6.9      2.762      4.348
REMARK  5 active torsions:
REMARK  status: ('A' for Active; 'I' for Inactive)
REMARK       I    between atoms: C3_3  and  N1_5 
REMARK    1  A    between atoms: N1_5  and  C4_6 
REMARK    2  A    between atoms: N1_5  and  C11_15 
REMARK    3  A    between atoms: C4_6  and  C5_7 
REMARK    4  A    between atoms: C5_7  and  C6_8 
REMARK    5  A    between atoms: C6_8  and  N2_9 
ROOT
HETATM    1  C1  UNL     1      26.837   4.682  48.894  1.00  0.00     0.017 C 
HETATM    2  C2  UNL     1      26.515   3.857  49.840  1.00  0.00     0.064 C 
HETATM    3  C3  UNL     1      26.247   2.951  50.904  1.00  0.00     0.247 C 
HETATM    4  O1  UNL     1      27.330   2.741  51.510  1.00  0.00    -0.268 OA
HETATM    5  N1  UNL     1      25.177   2.240  51.473  1.00  0.00    -0.315 N 
ENDROOT
BRANCH   5   6
HETATM    6  C4  UNL     1      23.793   2.169  51.122  1.00  0.00     0.134 C 
BRANCH   6   7
HETATM    7  C5  UNL     1      22.898   2.969  52.022  1.00  0.00     0.040 C 
BRANCH   7   8
HETATM    8  C6  UNL     1      23.527   4.314  52.390  1.00  0.00     0.118 C 
BRANCH   8   9
HETATM    9  N2  UNL     1      23.151   5.256  51.415  1.00  0.00    -0.408 N 
HETATM   10  C7  UNL     1      23.967   6.407  51.240  1.00  0.00     0.143 C 
HETATM   11  C8  UNL     1      23.894   6.807  49.778  1.00  0.00     0.187 C 
HETATM   12  O2  UNL     1      22.774   6.230  49.198  1.00  0.00    -0.388 OA
HETATM   13  C9  UNL     1      21.622   6.319  49.979  1.00  0.00     0.187 C 
HETATM   14  C10 UNL     1      21.786   5.645  51.332  1.00  0.00     0.143 C 
ENDBRANCH   8   9
ENDBRANCH   7   8
ENDBRANCH   6   7
ENDBRANCH   5   6
BRANCH   5  15
HETATM   15  C11 UNL     1      25.816   1.560  52.544  1.00  0.00     0.038 A 
HETATM   16  C12 UNL     1      26.005   2.041  53.844  1.00  0.00     0.030 A 
HETATM   17  C13 UNL     1      26.645   1.245  54.755  1.00  0.00     0.004 A 
HETATM   18  C14 UNL     1      27.122  -0.016  54.483  1.00  0.00     0.023 A 
HETATM   19  C15 UNL     1      26.956  -0.535  53.203  1.00  0.00     0.046 A 
HETATM   20  C16 UNL     1      27.419  -1.832  52.831  1.00  0.00     0.099 C 
HETATM   21  C17 UNL     1      26.305   0.286  52.293  1.00  0.00     0.052 A 
HETATM   22  N3  UNL     1      27.786  -2.905  52.537  1.00  0.00    -0.191 NA
ENDBRANCH   5  15
TORSDOF 5
ENDMDL
MODEL 9
REMARK VINA RESULT:      -6.8      2.151      2.790
REMARK  5 active torsions:
REMARK  status: ('A' for Active; 'I' for Inactive)
REMARK       I    between atoms: C3_3  and  N1_5 
REMARK    1  A    between atoms: N1_5  and  C4_6 
REMARK    2  A    between atoms: N1_5  and  C11_15 
REMARK    3  A    between atoms: C4_6  and  C5_7 
REMARK    4  A    between atoms: C5_7  and  C6_8 
REMARK    5  A    between atoms: C6_8  and  N2_9 
ROOT
HETATM    1  C1  UNL     1      24.881   3.880  49.223  1.00  0.00     0.017 C 
HETATM    2  C2  UNL     1      25.380   3.299  50.268  1.00  0.00     0.064 C 
HETATM    3  C3  UNL     1      26.008   2.661  51.374  1.00  0.00     0.247 C 
HETATM    4  O1  UNL     1      27.226   2.515  51.092  1.00  0.00    -0.268 OA
HETATM    5  N1  UNL     1      25.698   2.158  52.649  1.00  0.00    -0.315 N 
ENDROOT
BRANCH   5   6
HETATM    6  C4  UNL     1      24.466   2.104  53.373  1.00  0.00     0.134 C 
BRANCH   6   7
HETATM    7  C5  UNL     1      23.810   0.755  53.351  1.00  0.00     0.040 C 
BRANCH   7   8
HETATM    8  C6  UNL     1      23.187   0.454  51.987  1.00  0.00     0.118 C 
BRANCH   8   9
HETATM    9  N2  UNL     1      22.220   1.440  51.718  1.00  0.00    -0.408 N 
HETATM   10  C7  UNL     1      20.964   1.351  52.381  1.00  0.00     0.143 C 
HETATM   11  C8  UNL     1      20.454   2.764  52.595  1.00  0.00     0.187 C 
HETATM   12  O2  UNL     1      21.117   3.629  51.737  1.00  0.00    -0.388 OA
HETATM   13  C9  UNL     1      21.239   3.148  50.434  1.00  0.00     0.187 C 
HETATM   14  C10 UNL     1      22.000   1.833  50.371  1.00  0.00     0.143 C 
ENDBRANCH   8   9
ENDBRANCH   7   8
ENDBRANCH   6   7
ENDBRANCH   5   6
BRANCH   5  15
HETATM   15  C11 UNL     1      26.962   1.683  53.091  1.00  0.00     0.038 A 
HETATM   16  C12 UNL     1      28.007   2.452  53.613  1.00  0.00     0.030 A 
HETATM   17  C13 UNL     1      29.162   1.824  53.991  1.00  0.00     0.004 A 
HETATM   18  C14 UNL     1      29.375   0.468  53.896  1.00  0.00     0.023 A 
HETATM   19  C15 UNL     1      28.362  -0.336  53.382  1.00  0.00     0.046 A 
HETATM   20  C16 UNL     1      28.495  -1.749  53.245  1.00  0.00     0.099 C 
HETATM   21  C17 UNL     1      27.199   0.319  53.003  1.00  0.00     0.052 A 
HETATM   22  N3  UNL     1      28.604  -2.912  53.153  1.00  0.00    -0.191 NA
ENDBRANCH   5  15
TORSDOF 5
ENDMDL
