MODEL 1
REMARK VINA RESULT:      -7.8      0.000      0.000
REMARK  3 active torsions:
REMARK  status: ('A' for Active; 'I' for Inactive)
REMARK       I    between atoms: N1_1  and  C1_2 
REMARK    1  A    between atoms: C1_2  and  C2_4 
REMARK    2  A    between atoms: N2_7  and  C5_8 
REMARK    3  A    between atoms: C5_8  and  C6_9 
ROOT
HETATM    1  C6  UNL     1      24.692   2.795  51.155  1.00  0.00     0.083 C 
HETATM    2  C7  UNL     1      25.569   3.194  50.261  1.00  0.00     0.050 C 
HETATM    3  C8  UNL     1      26.009   4.369  49.536  1.00  0.00     0.012 C 
HETATM    4  C9  UNL     1      27.178   4.364  48.949  1.00  0.00    -0.015 C 
HETATM    5  C10 UNL     1      27.651   5.549  48.582  1.00  0.00    -0.006 C 
HETATM    6  C11 UNL     1      26.820   6.795  48.788  1.00  0.00     0.100 C 
HETATM    7  P1  UNL     1      25.238   5.969  49.244  1.00  0.00     0.097 P 
HETATM    8  F1  UNL     1      24.196   5.958  47.966  1.00  0.00    -0.222 F 
HETATM    9  C12 UNL     1      24.593   6.582  50.572  1.00  0.00     0.156 C 
HETATM   10  N3  UNL     1      23.935   6.027  51.675  1.00  0.00    -0.246 NA
HETATM   11  C13 UNL     1      23.600   4.901  52.150  1.00  0.00     0.258 C 
HETATM   12  O2  UNL     1      23.727   3.570  51.790  1.00  0.00    -0.307 OA
ENDROOT
BRANCH   1  13
HETATM   13  C5  UNL     1      24.597   1.425  51.632  1.00  0.00     0.337 C 
BRANCH  13  14
HETATM   14  N2  UNL     1      24.734   1.305  53.043  1.00  0.00     0.095 N 
HETATM   15  C4  UNL     1      24.324   0.059  53.608  1.00  0.00     0.273 C 
HETATM   16  C3  UNL     1      25.641  -0.612  54.050  1.00  0.00     0.046 C 
HETATM   17  C2  UNL     1      26.371   0.641  54.564  1.00  0.00     0.107 C 
HETATM   18  C14 UNL     1      26.058   1.637  53.491  1.00  0.00     0.286 C 
BRANCH  17  19
HETATM   19  C1  UNL     1      27.828   0.383  54.672  1.00  0.00     0.221 C 
HETATM   20  N1  UNL     1      27.967  -0.897  54.039  1.00  0.00    -0.370 N 
HETATM   21  H1  UNL     1      28.319  -0.996  53.052  1.00  0.00     0.159 HD
HETATM   22  H2  UNL     1      27.721  -1.793  54.539  1.00  0.00     0.159 HD
HETATM   23  O1  UNL     1      28.849   0.955  55.132  1.00  0.00    -0.273 OA
ENDBRANCH  17  19
ENDBRANCH  13  14
ENDBRANCH   1  13
TORSDOF 3
ENDMDL
MODEL 2
REMARK VINA RESULT:      -7.7      4.515      5.522
REMARK  3 active torsions:
REMARK  status: ('A' for Active; 'I' for Inactive)
REMARK       I    between atoms: N1_1  and  C1_2 
REMARK    1  A    between atoms: C1_2  and  C2_4 
REMARK    2  A    between atoms: N2_7  and  C5_8 
REMARK    3  A    between atoms: C5_8  and  C6_9 
ROOT
HETATM    1  C6  UNL     1      23.380  -0.376  53.720  1.00  0.00     0.083 C 
HETATM    2  C7  UNL     1      23.122   0.758  53.107  1.00  0.00     0.050 C 
HETATM    3  C8  UNL     1      22.050   1.495  52.468  1.00  0.00     0.012 C 
HETATM    4  C9  UNL     1      22.181   2.780  52.266  1.00  0.00    -0.015 C 
HETATM    5  C10 UNL     1      21.067   3.442  51.976  1.00  0.00    -0.006 C 
HETATM    6  C11 UNL     1      19.760   2.699  51.829  1.00  0.00     0.100 C 
HETATM    7  P1  UNL     1      20.440   0.987  51.842  1.00  0.00     0.097 P 
HETATM    8  F1  UNL     1      20.508   0.375  50.312  1.00  0.00    -0.222 F 
HETATM    9  C12 UNL     1      19.666   0.033  52.864  1.00  0.00     0.156 C 
HETATM   10  N3  UNL     1      20.073  -0.970  53.752  1.00  0.00    -0.246 NA
HETATM   11  C13 UNL     1      21.127  -1.527  54.182  1.00  0.00     0.258 C 
HETATM   12  O2  UNL     1      22.491  -1.415  53.974  1.00  0.00    -0.307 OA
ENDROOT
BRANCH   1  13
HETATM   13  C5  UNL     1      24.690  -0.727  54.242  1.00  0.00     0.337 C 
BRANCH  13  14
HETATM   14  N2  UNL     1      25.766  -0.228  53.456  1.00  0.00     0.095 N 
HETATM   15  C4  UNL     1      26.536   0.822  54.043  1.00  0.00     0.273 C 
HETATM   16  C3  UNL     1      27.895   0.167  54.364  1.00  0.00     0.046 C 
HETATM   17  C2  UNL     1      28.019  -0.719  53.113  1.00  0.00     0.107 C 
HETATM   18  C14 UNL     1      26.635  -1.276  52.996  1.00  0.00     0.286 C 
BRANCH  17  19
HETATM   19  C1  UNL     1      29.027  -1.785  53.331  1.00  0.00     0.221 C 
HETATM   20  N1  UNL     1      28.287  -2.980  53.046  1.00  0.00    -0.370 N 
HETATM   21  H1  UNL     1      28.378  -3.487  52.129  1.00  0.00     0.159 HD
HETATM   22  H2  UNL     1      27.618  -3.400  53.747  1.00  0.00     0.159 HD
HETATM   23  O1  UNL     1      30.236  -1.877  53.666  1.00  0.00    -0.273 OA
ENDBRANCH  17  19
ENDBRANCH  13  14
ENDBRANCH   1  13
TORSDOF 3
ENDMDL
MODEL 3
REMARK VINA RESULT:      -7.2      4.006      5.601
REMARK  3 active torsions:
REMARK  status: ('A' for Active; 'I' for Inactive)
REMARK       I    between atoms: N1_1  and  C1_2 
REMARK    1  A    between atoms: C1_2  and  C2_4 
REMARK    2  A    between atoms: N2_7  and  C5_8 
REMARK    3  A    between atoms: C5_8  and  C6_9 
ROOT
HETATM    1  C6  UNL     1      23.412   1.428  51.873  1.00  0.00     0.083 C 
HETATM    2  C7  UNL     1      22.505   0.911  52.672  1.00  0.00     0.050 C 
HETATM    3  C8  UNL     1      21.093   0.595  52.748  1.00  0.00     0.012 C 
HETATM    4  C9  UNL     1      20.666  -0.239  53.660  1.00  0.00    -0.015 C 
HETATM    5  C10 UNL     1      19.443  -0.723  53.481  1.00  0.00    -0.006 C 
HETATM    6  C11 UNL     1      18.605  -0.255  52.314  1.00  0.00     0.100 C 
HETATM    7  P1  UNL     1      19.679   1.142  51.778  1.00  0.00     0.097 P 
HETATM    8  F1  UNL     1      19.063   2.583  52.294  1.00  0.00    -0.222 F 
HETATM    9  C12 UNL     1      19.974   1.115  50.208  1.00  0.00     0.156 C 
HETATM   10  N3  UNL     1      21.106   1.380  49.429  1.00  0.00    -0.246 NA
HETATM   11  C13 UNL     1      22.329   1.688  49.554  1.00  0.00     0.258 C 
HETATM   12  O2  UNL     1      23.213   1.931  50.592  1.00  0.00    -0.307 OA
ENDROOT
BRANCH   1  13
HETATM   13  C5  UNL     1      24.815   1.558  52.227  1.00  0.00     0.337 C 
BRANCH  13  14
HETATM   14  N2  UNL     1      25.246   0.609  53.196  1.00  0.00     0.095 N 
HETATM   15  C4  UNL     1      25.679  -0.653  52.688  1.00  0.00     0.273 C 
HETATM   16  C3  UNL     1      27.203  -0.656  52.920  1.00  0.00     0.046 C 
HETATM   17  C2  UNL     1      27.225   0.042  54.290  1.00  0.00     0.107 C 
HETATM   18  C14 UNL     1      26.240   1.150  54.082  1.00  0.00     0.286 C 
BRANCH  17  19
HETATM   19  C1  UNL     1      28.584   0.559  54.586  1.00  0.00     0.221 C 
HETATM   20  N1  UNL     1      29.431  -0.496  54.109  1.00  0.00    -0.370 N 
HETATM   21  H1  UNL     1      29.928  -0.436  53.183  1.00  0.00     0.159 HD
HETATM   22  H2  UNL     1      29.590  -1.377  54.669  1.00  0.00     0.159 HD
HETATM   23  O1  UNL     1      29.106   1.583  55.096  1.00  0.00    -0.273 OA
ENDBRANCH  17  19
ENDBRANCH  13  14
ENDBRANCH   1  13
TORSDOF 3
ENDMDL
MODEL 4
REMARK VINA RESULT:      -7.2      3.397      4.329
REMARK  3 active torsions:
REMARK  status: ('A' for Active; 'I' for Inactive)
REMARK       I    between atoms: N1_1  and  C1_2 
REMARK    1  A    between atoms: C1_2  and  C2_4 
REMARK    2  A    between atoms: N2_7  and  C5_8 
REMARK    3  A    between atoms: C5_8  and  C6_9 
ROOT
HETATM    1  C6  UNL     1      24.360   2.102  51.868  1.00  0.00     0.083 C 
HETATM    2  C7  UNL     1      23.380   1.487  51.243  1.00  0.00     0.050 C 
HETATM    3  C8  UNL     1      21.962   1.586  50.963  1.00  0.00     0.012 C 
HETATM    4  C9  UNL     1      21.445   0.880  49.991  1.00  0.00    -0.015 C 
HETATM    5  C10 UNL     1      20.235   1.244  49.585  1.00  0.00    -0.006 C 
HETATM    6  C11 UNL     1      19.507   2.369  50.283  1.00  0.00     0.100 C 
HETATM    7  P1  UNL     1      20.644   2.551  51.720  1.00  0.00     0.097 P 
HETATM    8  F1  UNL     1      20.009   1.832  53.062  1.00  0.00    -0.222 F 
HETATM    9  C12 UNL     1      21.072   4.071  51.968  1.00  0.00     0.156 C 
HETATM   10  N3  UNL     1      22.271   4.693  52.334  1.00  0.00    -0.246 NA
HETATM   11  C13 UNL     1      23.484   4.414  52.577  1.00  0.00     0.258 C 
HETATM   12  O2  UNL     1      24.279   3.281  52.601  1.00  0.00    -0.307 OA
ENDROOT
BRANCH   1  13
HETATM   13  C5  UNL     1      25.729   1.617  51.888  1.00  0.00     0.337 C 
BRANCH  13  14
HETATM   14  N2  UNL     1      26.045   0.854  53.047  1.00  0.00     0.095 N 
HETATM   15  C4  UNL     1      25.827  -0.554  52.948  1.00  0.00     0.273 C 
HETATM   16  C3  UNL     1      27.244  -1.160  52.925  1.00  0.00     0.046 C 
HETATM   17  C2  UNL     1      27.908  -0.220  53.946  1.00  0.00     0.107 C 
HETATM   18  C14 UNL     1      27.376   1.113  53.523  1.00  0.00     0.286 C 
BRANCH  17  19
HETATM   19  C1  UNL     1      29.385  -0.288  53.829  1.00  0.00     0.221 C 
HETATM   20  N1  UNL     1      29.751   1.090  53.672  1.00  0.00    -0.370 N 
HETATM   21  H1  UNL     1      30.133   1.661  54.469  1.00  0.00     0.159 HD
HETATM   22  H2  UNL     1      29.651   1.589  52.747  1.00  0.00     0.159 HD
HETATM   23  O1  UNL     1      30.286  -1.165  53.836  1.00  0.00    -0.273 OA
ENDBRANCH  17  19
ENDBRANCH  13  14
ENDBRANCH   1  13
TORSDOF 3
ENDMDL
MODEL 5
REMARK VINA RESULT:      -7.1      3.355      4.013
REMARK  3 active torsions:
REMARK  status: ('A' for Active; 'I' for Inactive)
REMARK       I    between atoms: N1_1  and  C1_2 
REMARK    1  A    between atoms: C1_2  and  C2_4 
REMARK    2  A    between atoms: N2_7  and  C5_8 
REMARK    3  A    between atoms: C5_8  and  C6_9 
ROOT
HETATM    1  C6  UNL     1      23.500   0.744  52.618  1.00  0.00     0.083 C 
HETATM    2  C7  UNL     1      23.764   1.406  51.513  1.00  0.00     0.050 C 
HETATM    3  C8  UNL     1      23.122   2.081  50.403  1.00  0.00     0.012 C 
HETATM    4  C9  UNL     1      23.815   2.905  49.661  1.00  0.00    -0.015 C 
HETATM    5  C10 UNL     1      23.113   3.717  48.879  1.00  0.00    -0.006 C 
HETATM    6  C11 UNL     1      21.607   3.608  48.829  1.00  0.00     0.100 C 
HETATM    7  P1  UNL     1      21.437   2.033  49.769  1.00  0.00     0.097 P 
HETATM    8  F1  UNL     1      21.171   0.768  48.745  1.00  0.00    -0.222 F 
HETATM    9  C12 UNL     1      20.349   2.134  50.935  1.00  0.00     0.156 C 
HETATM   10  N3  UNL     1      20.286   1.652  52.247  1.00  0.00    -0.246 NA
HETATM   11  C13 UNL     1      20.986   1.015  53.090  1.00  0.00     0.258 C 
HETATM   12  O2  UNL     1      22.245   0.442  53.136  1.00  0.00    -0.307 OA
ENDROOT
BRANCH   1  13
HETATM   13  C5  UNL     1      24.525   0.207  53.497  1.00  0.00     0.337 C 
BRANCH  13  14
HETATM   14  N2  UNL     1      25.850   0.485  53.059  1.00  0.00     0.095 N 
HETATM   15  C4  UNL     1      26.687   1.172  53.991  1.00  0.00     0.273 C 
HETATM   16  C3  UNL     1      27.719   0.114  54.430  1.00  0.00     0.046 C 
HETATM   17  C2  UNL     1      27.925  -0.578  53.071  1.00  0.00     0.107 C 
HETATM   18  C14 UNL     1      26.518  -0.690  52.572  1.00  0.00     0.286 C 
BRANCH  17  19
HETATM   19  C1  UNL     1      28.553  -1.908  53.258  1.00  0.00     0.221 C 
HETATM   20  N1  UNL     1      27.533  -2.804  52.795  1.00  0.00    -0.370 N 
HETATM   21  H1  UNL     1      27.568  -3.246  51.841  1.00  0.00     0.159 HD
HETATM   22  H2  UNL     1      26.702  -3.057  53.396  1.00  0.00     0.159 HD
HETATM   23  O1  UNL     1      29.642  -2.380  53.675  1.00  0.00    -0.273 OA
ENDBRANCH  17  19
ENDBRANCH  13  14
ENDBRANCH   1  13
TORSDOF 3
ENDMDL
MODEL 6
REMARK VINA RESULT:      -7.0      1.715      1.998
REMARK  3 active torsions:
REMARK  status: ('A' for Active; 'I' for Inactive)
REMARK       I    between atoms: N1_1  and  C1_2 
REMARK    1  A    between atoms: C1_2  and  C2_4 
REMARK    2  A    between atoms: N2_7  and  C5_8 
REMARK    3  A    between atoms: C5_8  and  C6_9 
ROOT
HETATM    1  C6  UNL     1      24.675   4.139  49.981  1.00  0.00     0.083 C 
HETATM    2  C7  UNL     1      25.804   4.277  49.321  1.00  0.00     0.050 C 
HETATM    3  C8  UNL     1      26.729   5.280  48.833  1.00  0.00     0.012 C 
HETATM    4  C9  UNL     1      27.938   4.925  48.482  1.00  0.00    -0.015 C 
HETATM    5  C10 UNL     1      28.819   5.910  48.350  1.00  0.00    -0.006 C 
HETATM    6  C11 UNL     1      28.387   7.345  48.538  1.00  0.00     0.100 C 
HETATM    7  P1  UNL     1      26.568   7.056  48.589  1.00  0.00     0.097 P 
HETATM    8  F1  UNL     1      25.875   7.446  47.143  1.00  0.00    -0.222 F 
HETATM    9  C12 UNL     1      25.872   7.778  49.832  1.00  0.00     0.156 C 
HETATM   10  N3  UNL     1      24.852   7.413  50.719  1.00  0.00    -0.246 NA
HETATM   11  C13 UNL     1      24.094   6.434  50.988  1.00  0.00     0.258 C 
HETATM   12  O2  UNL     1      23.882   5.153  50.507  1.00  0.00    -0.307 OA
ENDROOT
BRANCH   1  13
HETATM   13  C5  UNL     1      24.064   2.853  50.269  1.00  0.00     0.337 C 
BRANCH  13  14
HETATM   14  N2  UNL     1      23.833   2.632  51.656  1.00  0.00     0.095 N 
HETATM   15  C4  UNL     1      23.325   1.345  52.010  1.00  0.00     0.273 C 
HETATM   16  C3  UNL     1      24.500   0.656  52.733  1.00  0.00     0.046 C 
HETATM   17  C2  UNL     1      25.037   1.874  53.502  1.00  0.00     0.107 C 
HETATM   18  C14 UNL     1      24.987   2.942  52.455  1.00  0.00     0.286 C 
BRANCH  17  19
HETATM   19  C1  UNL     1      26.423   1.622  53.969  1.00  0.00     0.221 C 
HETATM   20  N1  UNL     1      27.208   2.388  53.045  1.00  0.00    -0.370 N 
HETATM   21  H1  UNL     1      27.606   3.329  53.298  1.00  0.00     0.159 HD
HETATM   22  H2  UNL     1      27.419   2.038  52.072  1.00  0.00     0.159 HD
HETATM   23  O1  UNL     1      27.002   0.973  54.877  1.00  0.00    -0.273 OA
ENDBRANCH  17  19
ENDBRANCH  13  14
ENDBRANCH   1  13
TORSDOF 3
ENDMDL
MODEL 7
REMARK VINA RESULT:      -7.0      2.592      2.954
REMARK  3 active torsions:
REMARK  status: ('A' for Active; 'I' for Inactive)
REMARK       I    between atoms: N1_1  and  C1_2 
REMARK    1  A    between atoms: C1_2  and  C2_4 
REMARK    2  A    between atoms: N2_7  and  C5_8 
REMARK    3  A    between atoms: C5_8  and  C6_9 
ROOT
HETATM    1  C6  UNL     1      24.119   3.123  50.741  1.00  0.00     0.083 C 
HETATM    2  C7  UNL     1      25.141   3.370  49.952  1.00  0.00     0.050 C 
HETATM    3  C8  UNL     1      25.886   4.458  49.351  1.00  0.00     0.012 C 
HETATM    4  C9  UNL     1      27.078   4.231  48.863  1.00  0.00    -0.015 C 
HETATM    5  C10 UNL     1      27.823   5.303  48.621  1.00  0.00    -0.006 C 
HETATM    6  C11 UNL     1      27.257   6.687  48.847  1.00  0.00     0.100 C 
HETATM    7  P1  UNL     1      25.501   6.200  49.113  1.00  0.00     0.097 P 
HETATM    8  F1  UNL     1      24.606   6.482  47.756  1.00  0.00    -0.222 F 
HETATM    9  C12 UNL     1      24.876   6.867  50.424  1.00  0.00     0.156 C 
HETATM   10  N3  UNL     1      24.014   6.411  51.428  1.00  0.00    -0.246 NA
HETATM   11  C13 UNL     1      23.406   5.360  51.791  1.00  0.00     0.258 C 
HETATM   12  O2  UNL     1      23.284   4.054  51.349  1.00  0.00    -0.307 OA
ENDROOT
BRANCH   1  13
HETATM   13  C5  UNL     1      23.693   1.783  51.109  1.00  0.00     0.337 C 
BRANCH  13  14
HETATM   14  N2  UNL     1      22.685   1.764  52.113  1.00  0.00     0.095 N 
HETATM   15  C4  UNL     1      21.406   1.275  51.707  1.00  0.00     0.273 C 
HETATM   16  C3  UNL     1      21.270  -0.083  52.425  1.00  0.00     0.046 C 
HETATM   17  C2  UNL     1      21.925   0.302  53.762  1.00  0.00     0.107 C 
HETATM   18  C14 UNL     1      23.116   1.084  53.303  1.00  0.00     0.286 C 
BRANCH  17  19
HETATM   19  C1  UNL     1      22.319  -0.914  54.515  1.00  0.00     0.221 C 
HETATM   20  N1  UNL     1      23.751  -0.853  54.481  1.00  0.00    -0.370 N 
HETATM   21  H1  UNL     1      24.315  -0.516  55.304  1.00  0.00     0.159 HD
HETATM   22  H2  UNL     1      24.300  -1.144  53.628  1.00  0.00     0.159 HD
HETATM   23  O1  UNL     1      21.759  -1.871  55.107  1.00  0.00    -0.273 OA
ENDBRANCH  17  19
ENDBRANCH  13  14
ENDBRANCH   1  13
TORSDOF 3
ENDMDL
MODEL 8
REMARK VINA RESULT:      -7.0      2.441      3.027
REMARK  3 active torsions:
REMARK  status: ('A' for Active; 'I' for Inactive)
REMARK       I    between atoms: N1_1  and  C1_2 
REMARK    1  A    between atoms: C1_2  and  C2_4 
REMARK    2  A    between atoms: N2_7  and  C5_8 
REMARK    3  A    between atoms: C5_8  and  C6_9 
ROOT
HETATM    1  C6  UNL     1      23.935   3.669  51.934  1.00  0.00     0.083 C 
HETATM    2  C7  UNL     1      24.816   3.978  51.009  1.00  0.00     0.050 C 
HETATM    3  C8  UNL     1      25.017   4.843  49.864  1.00  0.00     0.012 C 
HETATM    4  C9  UNL     1      26.227   5.043  49.410  1.00  0.00    -0.015 C 
HETATM    5  C10 UNL     1      26.378   6.070  48.583  1.00  0.00    -0.006 C 
HETATM    6  C11 UNL     1      25.179   6.888  48.163  1.00  0.00     0.100 C 
HETATM    7  P1  UNL     1      23.871   5.786  48.845  1.00  0.00     0.097 P 
HETATM    8  F1  UNL     1      23.184   4.885  47.646  1.00  0.00    -0.222 F 
HETATM    9  C12 UNL     1      22.798   6.584  49.720  1.00  0.00     0.156 C 
HETATM   10  N3  UNL     1      22.122   6.308  50.914  1.00  0.00    -0.246 NA
HETATM   11  C13 UNL     1      22.058   5.424  51.820  1.00  0.00     0.258 C 
HETATM   12  O2  UNL     1      22.665   4.211  52.099  1.00  0.00    -0.307 OA
ENDROOT
BRANCH   1  13
HETATM   13  C5  UNL     1      24.168   2.671  52.964  1.00  0.00     0.337 C 
BRANCH  13  14
HETATM   14  N2  UNL     1      23.869   1.344  52.547  1.00  0.00     0.095 N 
HETATM   15  C4  UNL     1      24.939   0.402  52.638  1.00  0.00     0.273 C 
HETATM   16  C3  UNL     1      24.528  -0.534  53.792  1.00  0.00     0.046 C 
HETATM   17  C2  UNL     1      23.020  -0.609  53.496  1.00  0.00     0.107 C 
HETATM   18  C14 UNL     1      22.698   0.821  53.195  1.00  0.00     0.286 C 
BRANCH  17  19
HETATM   19  C1  UNL     1      22.283  -1.104  54.684  1.00  0.00     0.221 C 
HETATM   20  N1  UNL     1      21.248  -0.123  54.842  1.00  0.00    -0.370 N 
HETATM   21  H1  UNL     1      20.261  -0.296  54.520  1.00  0.00     0.159 HD
HETATM   22  H2  UNL     1      21.436   0.815  55.288  1.00  0.00     0.159 HD
HETATM   23  O1  UNL     1      22.343  -2.068  55.489  1.00  0.00    -0.273 OA
ENDBRANCH  17  19
ENDBRANCH  13  14
ENDBRANCH   1  13
TORSDOF 3
ENDMDL
MODEL 9
REMARK VINA RESULT:      -6.8      3.461      6.436
REMARK  3 active torsions:
REMARK  status: ('A' for Active; 'I' for Inactive)
REMARK       I    between atoms: N1_1  and  C1_2 
REMARK    1  A    between atoms: C1_2  and  C2_4 
REMARK    2  A    between atoms: N2_7  and  C5_8 
REMARK    3  A    between atoms: C5_8  and  C6_9 
ROOT
HETATM    1  C6  UNL     1      24.195   2.724  52.972  1.00  0.00     0.083 C 
HETATM    2  C7  UNL     1      25.482   2.687  53.240  1.00  0.00     0.050 C 
HETATM    3  C8  UNL     1      26.539   1.786  53.652  1.00  0.00     0.012 C 
HETATM    4  C9  UNL     1      27.788   2.136  53.482  1.00  0.00    -0.015 C 
HETATM    5  C10 UNL     1      28.685   1.163  53.581  1.00  0.00    -0.006 C 
HETATM    6  C11 UNL     1      28.248  -0.238  53.940  1.00  0.00     0.100 C 
HETATM    7  P1  UNL     1      26.510   0.152  54.407  1.00  0.00     0.097 P 
HETATM    8  F1  UNL     1      26.344   0.204  56.048  1.00  0.00    -0.222 F 
HETATM    9  C12 UNL     1      25.457  -0.822  53.702  1.00  0.00     0.156 C 
HETATM   10  N3  UNL     1      24.193  -0.633  53.131  1.00  0.00    -0.246 NA
HETATM   11  C13 UNL     1      23.366   0.291  52.869  1.00  0.00     0.258 C 
HETATM   12  O2  UNL     1      23.296   1.664  53.027  1.00  0.00    -0.307 OA
ENDROOT
BRANCH   1  13
HETATM   13  C5  UNL     1      23.494   3.928  52.561  1.00  0.00     0.337 C 
BRANCH  13  14
HETATM   14  N2  UNL     1      23.451   4.106  51.150  1.00  0.00     0.095 N 
HETATM   15  C4  UNL     1      22.859   5.322  50.689  1.00  0.00     0.273 C 
HETATM   16  C3  UNL     1      24.043   6.136  50.130  1.00  0.00     0.046 C 
HETATM   17  C2  UNL     1      24.825   4.982  49.483  1.00  0.00     0.107 C 
HETATM   18  C14 UNL     1      24.740   3.925  50.540  1.00  0.00     0.286 C 
BRANCH  17  19
HETATM   19  C1  UNL     1      26.228   5.389  49.221  1.00  0.00     0.221 C 
HETATM   20  N1  UNL     1      26.378   6.548  50.053  1.00  0.00    -0.370 N 
HETATM   21  H1  UNL     1      26.871   6.508  50.982  1.00  0.00     0.159 HD
HETATM   22  H2  UNL     1      25.998   7.490  49.766  1.00  0.00     0.159 HD
HETATM   23  O1  UNL     1      27.201   5.003  48.525  1.00  0.00    -0.273 OA
ENDBRANCH  17  19
ENDBRANCH  13  14
ENDBRANCH   1  13
TORSDOF 3
ENDMDL
