MODEL 1
REMARK VINA RESULT:      -7.1      0.000      0.000
REMARK  8 active torsions:
REMARK  status: ('A' for Active; 'I' for Inactive)
REMARK    1  A    between atoms: C2_2  and  C3_3 
REMARK    2  A    between atoms: C4_4  and  N1_5 
REMARK    3  A    between atoms: C4_4  and  C15_22 
REMARK    4  A    between atoms: N1_5  and  C5_6 
REMARK    5  A    between atoms: C6_8  and  N3_9 
REMARK    6  A    between atoms: N3_9  and  C7_10 
REMARK    7  A    between atoms: C7_10  and  C8_11 
REMARK    8  A    between atoms: N6_19  and  C13_20 
ROOT
HETATM    1  C8  UNL     1      29.121   0.256  53.606  1.00  0.00    -0.051 C 
HETATM    2  C9  UNL     1      29.621  -0.857  53.732  1.00  0.00     0.107 C 
HETATM    3  F1  UNL     1      30.144  -2.083  53.865  1.00  0.00    -0.144 F 
ENDROOT
BRANCH   1   4
HETATM    4  C7  UNL     1      28.548   1.597  53.446  1.00  0.00     0.235 C 
BRANCH   4   5
HETATM    5  N3  UNL     1      27.333   1.699  54.205  1.00  0.00    -0.212 N 
HETATM    6  H6  UNL     1      27.346   1.715  55.249  1.00  0.00     0.178 HD
BRANCH   5   7
HETATM    7  C6  UNL     1      26.252   1.761  53.297  1.00  0.00     0.727 A 
HETATM    8  N2  UNL     1      26.160   2.509  52.165  1.00  0.00    -0.043 NA
HETATM    9  C5  UNL     1      25.060   2.452  51.394  1.00  0.00     0.180 A 
HETATM   10  C11 UNL     1      23.999   1.615  51.757  1.00  0.00     0.151 A 
HETATM   11  C10 UNL     1      24.099   0.857  52.911  1.00  0.00     0.182 A 
HETATM   12  N5  UNL     1      22.786   1.311  51.257  1.00  0.00    -0.236 NA
HETATM   13  N4  UNL     1      25.217   0.948  53.647  1.00  0.00    -0.042 NA
HETATM   14  N6  UNL     1      22.984   0.102  53.124  1.00  0.00    -0.324 N 
HETATM   15  C12 UNL     1      22.197   0.415  52.075  1.00  0.00     0.212 A 
BRANCH   9  16
HETATM   16  N1  UNL     1      24.910   3.217  50.211  1.00  0.00    -0.339 N 
HETATM   17  H5  UNL     1      24.238   2.686  49.607  1.00  0.00     0.167 HD
BRANCH  16  18
HETATM   18  C4  UNL     1      25.522   4.457  49.871  1.00  0.00     0.044 C 
HETATM   19  C3  UNL     1      26.602   4.385  49.070  1.00  0.00     0.027 C 
BRANCH  19  20
HETATM   20  C2  UNL     1      27.542   5.347  48.464  1.00  0.00    -0.008 C 
HETATM   21  C1  UNL     1      28.863   5.396  48.466  1.00  0.00     0.011 C 
ENDBRANCH  19  20
BRANCH  18  22
HETATM   22  C15 UNL     1      25.008   5.754  50.373  1.00  0.00     0.215 C 
HETATM   23  C16 UNL     1      23.627   5.565  50.972  1.00  0.00     0.051 C 
HETATM   24  F2  UNL     1      24.812   6.653  49.314  1.00  0.00    -0.243 F 
ENDBRANCH  18  22
ENDBRANCH  16  18
ENDBRANCH   9  16
BRANCH  14  25
HETATM   25  C13 UNL     1      22.772  -0.795  54.236  1.00  0.00     0.127 C 
HETATM   26  C14 UNL     1      21.434  -1.460  54.137  1.00  0.00     0.027 C 
ENDBRANCH  14  25
ENDBRANCH   5   7
ENDBRANCH   4   5
ENDBRANCH   1   4
TORSDOF 8
ENDMDL
MODEL 2
REMARK VINA RESULT:      -6.8      2.634      6.152
REMARK  8 active torsions:
REMARK  status: ('A' for Active; 'I' for Inactive)
REMARK    1  A    between atoms: C2_2  and  C3_3 
REMARK    2  A    between atoms: C4_4  and  N1_5 
REMARK    3  A    between atoms: C4_4  and  C15_22 
REMARK    4  A    between atoms: N1_5  and  C5_6 
REMARK    5  A    between atoms: C6_8  and  N3_9 
REMARK    6  A    between atoms: N3_9  and  C7_10 
REMARK    7  A    between atoms: C7_10  and  C8_11 
REMARK    8  A    between atoms: N6_19  and  C13_20 
ROOT
HETATM    1  C8  UNL     1      26.710   5.094  48.957  1.00  0.00    -0.051 C 
HETATM    2  C9  UNL     1      27.302   5.963  48.326  1.00  0.00     0.107 C 
HETATM    3  F1  UNL     1      27.930   6.927  47.640  1.00  0.00    -0.144 F 
ENDROOT
BRANCH   1   4
HETATM    4  C7  UNL     1      26.026   4.044  49.720  1.00  0.00     0.235 C 
BRANCH   4   5
HETATM    5  N3  UNL     1      26.875   3.585  50.783  1.00  0.00    -0.212 N 
HETATM    6  H6  UNL     1      27.831   3.982  50.923  1.00  0.00     0.178 HD
BRANCH   5   7
HETATM    7  C6  UNL     1      26.179   2.586  51.501  1.00  0.00     0.727 A 
HETATM    8  N2  UNL     1      24.888   2.193  51.336  1.00  0.00    -0.043 NA
HETATM    9  C5  UNL     1      24.368   1.214  52.097  1.00  0.00     0.180 A 
HETATM   10  C11 UNL     1      25.161   0.592  53.068  1.00  0.00     0.151 A 
HETATM   11  C10 UNL     1      26.474   0.998  53.230  1.00  0.00     0.182 A 
HETATM   12  N5  UNL     1      24.992  -0.382  53.983  1.00  0.00    -0.236 NA
HETATM   13  N4  UNL     1      26.948   1.979  52.446  1.00  0.00    -0.042 NA
HETATM   14  N6  UNL     1      27.107   0.299  54.215  1.00  0.00    -0.324 N 
HETATM   15  C12 UNL     1      26.151  -0.545  54.654  1.00  0.00     0.212 A 
BRANCH   9  16
HETATM   16  N1  UNL     1      23.027   0.774  51.972  1.00  0.00    -0.339 N 
HETATM   17  H5  UNL     1      23.064  -0.113  51.413  1.00  0.00     0.167 HD
BRANCH  16  18
HETATM   18  C4  UNL     1      21.842   1.375  52.485  1.00  0.00     0.044 C 
HETATM   19  C3  UNL     1      21.509   2.569  51.959  1.00  0.00     0.027 C 
BRANCH  19  20
HETATM   20  C2  UNL     1      20.421   3.547  52.150  1.00  0.00    -0.008 C 
HETATM   21  C1  UNL     1      19.324   3.779  51.449  1.00  0.00     0.011 C 
ENDBRANCH  19  20
BRANCH  18  22
HETATM   22  C15 UNL     1      21.026   0.731  53.542  1.00  0.00     0.215 C 
HETATM   23  C16 UNL     1      21.598  -0.633  53.878  1.00  0.00     0.051 C 
HETATM   24  F2  UNL     1      19.731   0.465  53.074  1.00  0.00    -0.243 F 
ENDBRANCH  18  22
ENDBRANCH  16  18
ENDBRANCH   9  16
BRANCH  14  25
HETATM   25  C13 UNL     1      28.478   0.481  54.632  1.00  0.00     0.127 C 
HETATM   26  C14 UNL     1      29.389  -0.442  53.884  1.00  0.00     0.027 C 
ENDBRANCH  14  25
ENDBRANCH   5   7
ENDBRANCH   4   5
ENDBRANCH   1   4
TORSDOF 8
ENDMDL
MODEL 3
REMARK VINA RESULT:      -6.7      2.555      5.048
REMARK  8 active torsions:
REMARK  status: ('A' for Active; 'I' for Inactive)
REMARK    1  A    between atoms: C2_2  and  C3_3 
REMARK    2  A    between atoms: C4_4  and  N1_5 
REMARK    3  A    between atoms: C4_4  and  C15_22 
REMARK    4  A    between atoms: N1_5  and  C5_6 
REMARK    5  A    between atoms: C6_8  and  N3_9 
REMARK    6  A    between atoms: N3_9  and  C7_10 
REMARK    7  A    between atoms: C7_10  and  C8_11 
REMARK    8  A    between atoms: N6_19  and  C13_20 
ROOT
HETATM    1  C8  UNL     1      21.511  -0.836  53.331  1.00  0.00    -0.051 C 
HETATM    2  C9  UNL     1      20.332  -0.553  53.524  1.00  0.00     0.107 C 
HETATM    3  F1  UNL     1      19.046  -0.261  53.753  1.00  0.00    -0.144 F 
ENDROOT
BRANCH   1   4
HETATM    4  C7  UNL     1      22.924  -1.150  53.091  1.00  0.00     0.235 C 
BRANCH   4   5
HETATM    5  N3  UNL     1      23.720  -0.663  54.183  1.00  0.00    -0.212 N 
HETATM    6  H6  UNL     1      23.583  -1.019  55.155  1.00  0.00     0.178 HD
BRANCH   5   7
HETATM    7  C6  UNL     1      24.621   0.299  53.674  1.00  0.00     0.727 A 
HETATM    8  N2  UNL     1      24.326   1.419  52.961  1.00  0.00    -0.043 NA
HETATM    9  C5  UNL     1      25.302   2.247  52.551  1.00  0.00     0.180 A 
HETATM   10  C11 UNL     1      26.635   1.957  52.859  1.00  0.00     0.151 A 
HETATM   11  C10 UNL     1      26.929   0.815  53.584  1.00  0.00     0.182 A 
HETATM   12  N5  UNL     1      27.834   2.526  52.624  1.00  0.00    -0.236 NA
HETATM   13  N4  UNL     1      25.920   0.020  53.971  1.00  0.00    -0.042 NA
HETATM   14  N6  UNL     1      28.269   0.675  53.796  1.00  0.00    -0.324 N 
HETATM   15  C12 UNL     1      28.790   1.757  53.184  1.00  0.00     0.212 A 
BRANCH   9  16
HETATM   16  N1  UNL     1      25.049   3.421  51.798  1.00  0.00    -0.339 N 
HETATM   17  H5  UNL     1      24.684   4.128  52.480  1.00  0.00     0.167 HD
BRANCH  16  18
HETATM   18  C4  UNL     1      25.237   3.641  50.404  1.00  0.00     0.044 C 
HETATM   19  C3  UNL     1      26.333   4.343  50.058  1.00  0.00     0.027 C 
BRANCH  19  20
HETATM   20  C2  UNL     1      26.940   4.810  48.798  1.00  0.00    -0.008 C 
HETATM   21  C1  UNL     1      27.608   5.914  48.508  1.00  0.00     0.011 C 
ENDBRANCH  19  20
BRANCH  18  22
HETATM   22  C15 UNL     1      24.282   3.134  49.390  1.00  0.00     0.215 C 
HETATM   23  C16 UNL     1      23.540   4.295  48.753  1.00  0.00     0.051 C 
HETATM   24  F2  UNL     1      23.278   2.365  49.996  1.00  0.00    -0.243 F 
ENDBRANCH  18  22
ENDBRANCH  16  18
ENDBRANCH   9  16
BRANCH  14  25
HETATM   25  C13 UNL     1      28.901  -0.406  54.515  1.00  0.00     0.127 C 
HETATM   26  C14 UNL     1      29.569  -1.357  53.569  1.00  0.00     0.027 C 
ENDBRANCH  14  25
ENDBRANCH   5   7
ENDBRANCH   4   5
ENDBRANCH   1   4
TORSDOF 8
ENDMDL
MODEL 4
REMARK VINA RESULT:      -6.6      2.755      7.028
REMARK  8 active torsions:
REMARK  status: ('A' for Active; 'I' for Inactive)
REMARK    1  A    between atoms: C2_2  and  C3_3 
REMARK    2  A    between atoms: C4_4  and  N1_5 
REMARK    3  A    between atoms: C4_4  and  C15_22 
REMARK    4  A    between atoms: N1_5  and  C5_6 
REMARK    5  A    between atoms: C6_8  and  N3_9 
REMARK    6  A    between atoms: N3_9  and  C7_10 
REMARK    7  A    between atoms: C7_10  and  C8_11 
REMARK    8  A    between atoms: N6_19  and  C13_20 
ROOT
HETATM    1  C8  UNL     1      24.146   3.868  49.505  1.00  0.00    -0.051 C 
HETATM    2  C9  UNL     1      23.366   3.473  48.644  1.00  0.00     0.107 C 
HETATM    3  F1  UNL     1      22.533   3.041  47.689  1.00  0.00    -0.144 F 
ENDROOT
BRANCH   1   4
HETATM    4  C7  UNL     1      25.064   4.328  50.553  1.00  0.00     0.235 C 
BRANCH   4   5
HETATM    5  N3  UNL     1      24.458   4.146  51.842  1.00  0.00    -0.212 N 
HETATM    6  H6  UNL     1      24.041   4.948  52.364  1.00  0.00     0.178 HD
BRANCH   5   7
HETATM    7  C6  UNL     1      24.559   2.779  52.185  1.00  0.00     0.727 A 
HETATM    8  N2  UNL     1      23.571   1.845  52.175  1.00  0.00    -0.043 NA
HETATM    9  C5  UNL     1      23.828   0.571  52.521  1.00  0.00     0.180 A 
HETATM   10  C11 UNL     1      25.124   0.201  52.897  1.00  0.00     0.151 A 
HETATM   11  C10 UNL     1      26.125   1.157  52.906  1.00  0.00     0.182 A 
HETATM   12  N5  UNL     1      25.734  -0.931  53.296  1.00  0.00    -0.236 NA
HETATM   13  N4  UNL     1      25.819   2.414  52.551  1.00  0.00    -0.042 NA
HETATM   14  N6  UNL     1      27.323   0.638  53.298  1.00  0.00    -0.324 N 
HETATM   15  C12 UNL     1      27.034  -0.659  53.529  1.00  0.00     0.212 A 
BRANCH   9  16
HETATM   16  N1  UNL     1      22.833  -0.437  52.537  1.00  0.00    -0.339 N 
HETATM   17  H5  UNL     1      23.269  -1.280  52.091  1.00  0.00     0.167 HD
BRANCH  16  18
HETATM   18  C4  UNL     1      21.504  -0.367  53.044  1.00  0.00     0.044 C 
HETATM   19  C3  UNL     1      20.567   0.088  52.191  1.00  0.00     0.027 C 
BRANCH  19  20
HETATM   20  C2  UNL     1      19.114   0.333  52.241  1.00  0.00    -0.008 C 
HETATM   21  C1  UNL     1      18.087  -0.500  52.209  1.00  0.00     0.011 C 
ENDBRANCH  19  20
BRANCH  18  22
HETATM   22  C15 UNL     1      21.168  -0.765  54.432  1.00  0.00     0.215 C 
HETATM   23  C16 UNL     1      22.416  -1.249  55.147  1.00  0.00     0.051 C 
HETATM   24  F2  UNL     1      20.308  -1.873  54.436  1.00  0.00    -0.243 F 
ENDBRANCH  18  22
ENDBRANCH  16  18
ENDBRANCH   9  16
BRANCH  14  25
HETATM   25  C13 UNL     1      28.563   1.370  53.413  1.00  0.00     0.127 C 
HETATM   26  C14 UNL     1      29.713   0.438  53.644  1.00  0.00     0.027 C 
ENDBRANCH  14  25
ENDBRANCH   5   7
ENDBRANCH   4   5
ENDBRANCH   1   4
TORSDOF 8
ENDMDL
MODEL 5
REMARK VINA RESULT:      -6.6      1.780      2.119
REMARK  8 active torsions:
REMARK  status: ('A' for Active; 'I' for Inactive)
REMARK    1  A    between atoms: C2_2  and  C3_3 
REMARK    2  A    between atoms: C4_4  and  N1_5 
REMARK    3  A    between atoms: C4_4  and  C15_22 
REMARK    4  A    between atoms: N1_5  and  C5_6 
REMARK    5  A    between atoms: C6_8  and  N3_9 
REMARK    6  A    between atoms: N3_9  and  C7_10 
REMARK    7  A    between atoms: C7_10  and  C8_11 
REMARK    8  A    between atoms: N6_19  and  C13_20 
ROOT
HETATM    1  C8  UNL     1      28.914  -0.216  53.440  1.00  0.00    -0.051 C 
HETATM    2  C9  UNL     1      29.158  -1.418  53.416  1.00  0.00     0.107 C 
HETATM    3  F1  UNL     1      29.440  -2.726  53.372  1.00  0.00    -0.144 F 
ENDROOT
BRANCH   1   4
HETATM    4  C7  UNL     1      28.618   1.220  53.495  1.00  0.00     0.235 C 
BRANCH   4   5
HETATM    5  N3  UNL     1      27.445   1.442  54.294  1.00  0.00    -0.212 N 
HETATM    6  H6  UNL     1      27.503   1.512  55.334  1.00  0.00     0.178 HD
BRANCH   5   7
HETATM    7  C6  UNL     1      26.334   1.530  53.426  1.00  0.00     0.727 A 
HETATM    8  N2  UNL     1      26.228   2.258  52.282  1.00  0.00    -0.043 NA
HETATM    9  C5  UNL     1      25.098   2.230  51.554  1.00  0.00     0.180 A 
HETATM   10  C11 UNL     1      24.018   1.446  51.976  1.00  0.00     0.151 A 
HETATM   11  C10 UNL     1      24.132   0.708  53.141  1.00  0.00     0.182 A 
HETATM   12  N5  UNL     1      22.776   1.182  51.528  1.00  0.00    -0.236 NA
HETATM   13  N4  UNL     1      25.281   0.768  53.833  1.00  0.00    -0.042 NA
HETATM   14  N6  UNL     1      22.997   0.005  53.414  1.00  0.00    -0.324 N 
HETATM   15  C12 UNL     1      22.183   0.329  52.388  1.00  0.00     0.212 A 
BRANCH   9  16
HETATM   16  N1  UNL     1      24.933   2.977  50.362  1.00  0.00    -0.339 N 
HETATM   17  H5  UNL     1      25.585   2.549  49.660  1.00  0.00     0.167 HD
BRANCH  16  18
HETATM   18  C4  UNL     1      24.072   4.085  50.118  1.00  0.00     0.044 C 
HETATM   19  C3  UNL     1      24.205   5.134  50.952  1.00  0.00     0.027 C 
BRANCH  19  20
HETATM   20  C2  UNL     1      23.572   6.457  51.103  1.00  0.00    -0.008 C 
HETATM   21  C1  UNL     1      23.981   7.665  50.752  1.00  0.00     0.011 C 
ENDBRANCH  19  20
BRANCH  18  22
HETATM   22  C15 UNL     1      23.081   4.085  49.016  1.00  0.00     0.215 C 
HETATM   23  C16 UNL     1      21.686   3.878  49.575  1.00  0.00     0.051 C 
HETATM   24  F2  UNL     1      23.286   2.988  48.165  1.00  0.00    -0.243 F 
ENDBRANCH  18  22
ENDBRANCH  16  18
ENDBRANCH   9  16
BRANCH  14  25
HETATM   25  C13 UNL     1      22.792  -0.859  54.552  1.00  0.00     0.127 C 
HETATM   26  C14 UNL     1      21.675  -1.824  54.296  1.00  0.00     0.027 C 
ENDBRANCH  14  25
ENDBRANCH   5   7
ENDBRANCH   4   5
ENDBRANCH   1   4
TORSDOF 8
ENDMDL
MODEL 6
REMARK VINA RESULT:      -6.5      1.710      2.393
REMARK  8 active torsions:
REMARK  status: ('A' for Active; 'I' for Inactive)
REMARK    1  A    between atoms: C2_2  and  C3_3 
REMARK    2  A    between atoms: C4_4  and  N1_5 
REMARK    3  A    between atoms: C4_4  and  C15_22 
REMARK    4  A    between atoms: N1_5  and  C5_6 
REMARK    5  A    between atoms: C6_8  and  N3_9 
REMARK    6  A    between atoms: N3_9  and  C7_10 
REMARK    7  A    between atoms: C7_10  and  C8_11 
REMARK    8  A    between atoms: N6_19  and  C13_20 
ROOT
HETATM    1  C8  UNL     1      28.099  -0.164  54.172  1.00  0.00    -0.051 C 
HETATM    2  C9  UNL     1      29.255  -0.521  53.963  1.00  0.00     0.107 C 
HETATM    3  F1  UNL     1      30.516  -0.894  53.717  1.00  0.00    -0.144 F 
ENDROOT
BRANCH   1   4
HETATM    4  C7  UNL     1      26.721   0.256  54.449  1.00  0.00     0.235 C 
BRANCH   4   5
HETATM    5  N3  UNL     1      26.599   1.674  54.258  1.00  0.00    -0.212 N 
HETATM    6  H6  UNL     1      27.303   2.337  54.652  1.00  0.00     0.178 HD
BRANCH   5   7
HETATM    7  C6  UNL     1      25.432   1.916  53.499  1.00  0.00     0.727 A 
HETATM    8  N2  UNL     1      25.124   3.028  52.779  1.00  0.00    -0.043 NA
HETATM    9  C5  UNL     1      23.969   3.104  52.096  1.00  0.00     0.180 A 
HETATM   10  C11 UNL     1      23.072   2.031  52.125  1.00  0.00     0.151 A 
HETATM   11  C10 UNL     1      23.391   0.902  52.859  1.00  0.00     0.182 A 
HETATM   12  N5  UNL     1      21.866   1.757  51.591  1.00  0.00    -0.236 NA
HETATM   13  N4  UNL     1      24.557   0.873  53.523  1.00  0.00    -0.042 NA
HETATM   14  N6  UNL     1      22.415  -0.047  52.787  1.00  0.00    -0.324 N 
HETATM   15  C12 UNL     1      21.490   0.525  51.991  1.00  0.00     0.212 A 
BRANCH   9  16
HETATM   16  N1  UNL     1      23.596   4.243  51.340  1.00  0.00    -0.339 N 
HETATM   17  H5  UNL     1      23.076   4.870  52.000  1.00  0.00     0.167 HD
BRANCH  16  18
HETATM   18  C4  UNL     1      23.855   4.523  49.968  1.00  0.00     0.044 C 
HETATM   19  C3  UNL     1      22.881   4.187  49.101  1.00  0.00     0.027 C 
BRANCH  19  20
HETATM   20  C2  UNL     1      22.682   4.271  47.642  1.00  0.00    -0.008 C 
HETATM   21  C1  UNL     1      21.711   3.820  46.867  1.00  0.00     0.011 C 
ENDBRANCH  19  20
BRANCH  18  22
HETATM   22  C15 UNL     1      25.123   5.143  49.516  1.00  0.00     0.215 C 
HETATM   23  C16 UNL     1      26.201   4.082  49.389  1.00  0.00     0.051 C 
HETATM   24  F2  UNL     1      25.615   6.030  50.485  1.00  0.00    -0.243 F 
ENDBRANCH  18  22
ENDBRANCH  16  18
ENDBRANCH   9  16
BRANCH  14  25
HETATM   25  C13 UNL     1      22.441  -1.336  53.439  1.00  0.00     0.127 C 
HETATM   26  C14 UNL     1      21.469  -1.377  54.578  1.00  0.00     0.027 C 
ENDBRANCH  14  25
ENDBRANCH   5   7
ENDBRANCH   4   5
ENDBRANCH   1   4
TORSDOF 8
ENDMDL
MODEL 7
REMARK VINA RESULT:      -6.5      2.219      5.951
REMARK  8 active torsions:
REMARK  status: ('A' for Active; 'I' for Inactive)
REMARK    1  A    between atoms: C2_2  and  C3_3 
REMARK    2  A    between atoms: C4_4  and  N1_5 
REMARK    3  A    between atoms: C4_4  and  C15_22 
REMARK    4  A    between atoms: N1_5  and  C5_6 
REMARK    5  A    between atoms: C6_8  and  N3_9 
REMARK    6  A    between atoms: N3_9  and  C7_10 
REMARK    7  A    between atoms: C7_10  and  C8_11 
REMARK    8  A    between atoms: N6_19  and  C13_20 
ROOT
HETATM    1  C8  UNL     1      27.779   4.889  48.690  1.00  0.00    -0.051 C 
HETATM    2  C9  UNL     1      28.536   5.718  48.196  1.00  0.00     0.107 C 
HETATM    3  F1  UNL     1      29.379   6.607  47.655  1.00  0.00    -0.144 F 
ENDROOT
BRANCH   1   4
HETATM    4  C7  UNL     1      26.853   3.909  49.269  1.00  0.00     0.235 C 
BRANCH   4   5
HETATM    5  N3  UNL     1      26.223   4.467  50.433  1.00  0.00    -0.212 N 
HETATM    6  H6  UNL     1      26.449   5.432  50.761  1.00  0.00     0.178 HD
BRANCH   5   7
HETATM    7  C6  UNL     1      25.333   3.501  50.955  1.00  0.00     0.727 A 
HETATM    8  N2  UNL     1      25.620   2.227  51.334  1.00  0.00    -0.043 NA
HETATM    9  C5  UNL     1      24.659   1.425  51.825  1.00  0.00     0.180 A 
HETATM   10  C11 UNL     1      23.350   1.905  51.948  1.00  0.00     0.151 A 
HETATM   11  C10 UNL     1      23.065   3.203  51.560  1.00  0.00     0.182 A 
HETATM   12  N5  UNL     1      22.171   1.413  52.375  1.00  0.00    -0.236 NA
HETATM   13  N4  UNL     1      24.059   3.964  51.077  1.00  0.00    -0.042 NA
HETATM   14  N6  UNL     1      21.749   3.512  51.739  1.00  0.00    -0.324 N 
HETATM   15  C12 UNL     1      21.233   2.374  52.246  1.00  0.00     0.212 A 
BRANCH   9  16
HETATM   16  N1  UNL     1      24.902   0.088  52.224  1.00  0.00    -0.339 N 
HETATM   17  H5  UNL     1      24.213  -0.501  51.698  1.00  0.00     0.167 HD
BRANCH  16  18
HETATM   18  C4  UNL     1      25.872  -0.403  53.145  1.00  0.00     0.044 C 
HETATM   19  C3  UNL     1      27.129  -0.516  52.676  1.00  0.00     0.027 C 
BRANCH  19  20
HETATM   20  C2  UNL     1      28.429  -0.955  53.218  1.00  0.00    -0.008 C 
HETATM   21  C1  UNL     1      29.260  -0.376  54.068  1.00  0.00     0.011 C 
ENDBRANCH  19  20
BRANCH  18  22
HETATM   22  C15 UNL     1      25.520  -0.775  54.536  1.00  0.00     0.215 C 
HETATM   23  C16 UNL     1      24.013  -0.750  54.713  1.00  0.00     0.051 C 
HETATM   24  F2  UNL     1      25.997   0.184  55.441  1.00  0.00    -0.243 F 
ENDBRANCH  18  22
ENDBRANCH  16  18
ENDBRANCH   9  16
BRANCH  14  25
HETATM   25  C13 UNL     1      21.132   4.781  51.433  1.00  0.00     0.127 C 
HETATM   26  C14 UNL     1      20.273   4.675  50.210  1.00  0.00     0.027 C 
ENDBRANCH  14  25
ENDBRANCH   5   7
ENDBRANCH   4   5
ENDBRANCH   1   4
TORSDOF 8
ENDMDL
MODEL 8
REMARK VINA RESULT:      -6.4      2.666      5.706
REMARK  8 active torsions:
REMARK  status: ('A' for Active; 'I' for Inactive)
REMARK    1  A    between atoms: C2_2  and  C3_3 
REMARK    2  A    between atoms: C4_4  and  N1_5 
REMARK    3  A    between atoms: C4_4  and  C15_22 
REMARK    4  A    between atoms: N1_5  and  C5_6 
REMARK    5  A    between atoms: C6_8  and  N3_9 
REMARK    6  A    between atoms: N3_9  and  C7_10 
REMARK    7  A    between atoms: C7_10  and  C8_11 
REMARK    8  A    between atoms: N6_19  and  C13_20 
ROOT
HETATM    1  C8  UNL     1      20.646  -0.657  53.841  1.00  0.00    -0.051 C 
HETATM    2  C9  UNL     1      19.503  -0.745  53.403  1.00  0.00     0.107 C 
HETATM    3  F1  UNL     1      18.265  -0.843  52.903  1.00  0.00    -0.144 F 
ENDROOT
BRANCH   1   4
HETATM    4  C7  UNL     1      22.004  -0.563  54.389  1.00  0.00     0.235 C 
BRANCH   4   5
HETATM    5  N3  UNL     1      22.958  -0.950  53.388  1.00  0.00    -0.212 N 
HETATM    6  H6  UNL     1      22.882  -1.865  52.892  1.00  0.00     0.178 HD
BRANCH   5   7
HETATM    7  C6  UNL     1      23.907   0.090  53.261  1.00  0.00     0.727 A 
HETATM    8  N2  UNL     1      23.667   1.421  53.123  1.00  0.00    -0.043 NA
HETATM    9  C5  UNL     1      24.685   2.294  53.023  1.00  0.00     0.180 A 
HETATM   10  C11 UNL     1      26.004   1.830  53.059  1.00  0.00     0.151 A 
HETATM   11  C10 UNL     1      26.241   0.473  53.199  1.00  0.00     0.182 A 
HETATM   12  N5  UNL     1      27.231   2.382  52.986  1.00  0.00    -0.236 NA
HETATM   13  N4  UNL     1      25.192  -0.358  53.296  1.00  0.00    -0.042 NA
HETATM   14  N6  UNL     1      27.574   0.186  53.213  1.00  0.00    -0.324 N 
HETATM   15  C12 UNL     1      28.149   1.399  53.078  1.00  0.00     0.212 A 
BRANCH   9  16
HETATM   16  N1  UNL     1      24.489   3.688  52.868  1.00  0.00    -0.339 N 
HETATM   17  H5  UNL     1      25.036   4.144  53.638  1.00  0.00     0.167 HD
BRANCH  16  18
HETATM   18  C4  UNL     1      23.720   4.375  51.885  1.00  0.00     0.044 C 
HETATM   19  C3  UNL     1      22.392   4.423  52.100  1.00  0.00     0.027 C 
BRANCH  19  20
HETATM   20  C2  UNL     1      21.224   4.994  51.403  1.00  0.00    -0.008 C 
HETATM   21  C1  UNL     1      20.479   4.521  50.418  1.00  0.00     0.011 C 
ENDBRANCH  19  20
BRANCH  18  22
HETATM   22  C15 UNL     1      24.341   4.995  50.691  1.00  0.00     0.215 C 
HETATM   23  C16 UNL     1      25.515   4.155  50.222  1.00  0.00     0.051 C 
HETATM   24  F2  UNL     1      24.906   6.238  51.015  1.00  0.00    -0.243 F 
ENDBRANCH  18  22
ENDBRANCH  16  18
ENDBRANCH   9  16
BRANCH  14  25
HETATM   25  C13 UNL     1      28.153  -1.130  53.343  1.00  0.00     0.127 C 
HETATM   26  C14 UNL     1      29.636  -1.045  53.533  1.00  0.00     0.027 C 
ENDBRANCH  14  25
ENDBRANCH   5   7
ENDBRANCH   4   5
ENDBRANCH   1   4
TORSDOF 8
ENDMDL
MODEL 9
REMARK VINA RESULT:      -6.4      2.458      6.114
REMARK  8 active torsions:
REMARK  status: ('A' for Active; 'I' for Inactive)
REMARK    1  A    between atoms: C2_2  and  C3_3 
REMARK    2  A    between atoms: C4_4  and  N1_5 
REMARK    3  A    between atoms: C4_4  and  C15_22 
REMARK    4  A    between atoms: N1_5  and  C5_6 
REMARK    5  A    between atoms: C6_8  and  N3_9 
REMARK    6  A    between atoms: N3_9  and  C7_10 
REMARK    7  A    between atoms: C7_10  and  C8_11 
REMARK    8  A    between atoms: N6_19  and  C13_20 
ROOT
HETATM    1  C8  UNL     1      28.105   0.315  54.022  1.00  0.00    -0.051 C 
HETATM    2  C9  UNL     1      29.211  -0.195  53.875  1.00  0.00     0.107 C 
HETATM    3  F1  UNL     1      30.418  -0.744  53.691  1.00  0.00    -0.144 F 
ENDROOT
BRANCH   1   4
HETATM    4  C7  UNL     1      26.788   0.929  54.225  1.00  0.00     0.235 C 
BRANCH   4   5
HETATM    5  N3  UNL     1      26.711   2.162  53.495  1.00  0.00    -0.212 N 
HETATM    6  H6  UNL     1      27.448   2.895  53.589  1.00  0.00     0.178 HD
BRANCH   5   7
HETATM    7  C6  UNL     1      25.532   2.138  52.716  1.00  0.00     0.727 A 
HETATM    8  N2  UNL     1      24.569   1.178  52.696  1.00  0.00    -0.043 NA
HETATM    9  C5  UNL     1      23.492   1.304  51.901  1.00  0.00     0.180 A 
HETATM   10  C11 UNL     1      23.359   2.432  51.084  1.00  0.00     0.151 A 
HETATM   11  C10 UNL     1      24.343   3.405  51.108  1.00  0.00     0.182 A 
HETATM   12  N5  UNL     1      22.459   2.884  50.189  1.00  0.00    -0.236 NA
HETATM   13  N4  UNL     1      25.398   3.234  51.919  1.00  0.00    -0.042 NA
HETATM   14  N6  UNL     1      24.067   4.433  50.256  1.00  0.00    -0.324 N 
HETATM   15  C12 UNL     1      22.890   4.067  49.708  1.00  0.00     0.212 A 
BRANCH   9  16
HETATM   16  N1  UNL     1      22.466   0.329  51.835  1.00  0.00    -0.339 N 
HETATM   17  H5  UNL     1      22.673  -0.252  50.987  1.00  0.00     0.167 HD
BRANCH  16  18
HETATM   18  C4  UNL     1      21.365   0.136  52.717  1.00  0.00     0.044 C 
HETATM   19  C3  UNL     1      20.155   0.017  52.137  1.00  0.00     0.027 C 
BRANCH  19  20
HETATM   20  C2  UNL     1      18.770  -0.187  52.602  1.00  0.00    -0.008 C 
HETATM   21  C1  UNL     1      18.170  -1.247  53.115  1.00  0.00     0.011 C 
ENDBRANCH  19  20
BRANCH  18  22
HETATM   22  C15 UNL     1      21.535   0.076  54.188  1.00  0.00     0.215 C 
HETATM   23  C16 UNL     1      21.545  -1.369  54.650  1.00  0.00     0.051 C 
HETATM   24  F2  UNL     1      20.430   0.646  54.839  1.00  0.00    -0.243 F 
ENDBRANCH  18  22
ENDBRANCH  16  18
ENDBRANCH   9  16
BRANCH  14  25
HETATM   25  C13 UNL     1      24.891   5.600  50.046  1.00  0.00     0.127 C 
HETATM   26  C14 UNL     1      24.787   6.079  48.631  1.00  0.00     0.027 C 
ENDBRANCH  14  25
ENDBRANCH   5   7
ENDBRANCH   4   5
ENDBRANCH   1   4
TORSDOF 8
ENDMDL
