MODEL 1
REMARK VINA RESULT:      -8.0      0.000      0.000
REMARK  0 active torsions:
REMARK  status: ('A' for Active; 'I' for Inactive)
ROOT
HETATM    1  C1  UNL     1      22.977   3.780  50.195  1.00  0.00    -0.002 C 
HETATM    2  C2  UNL     1      22.597   2.567  49.873  1.00  0.00     0.001 C 
HETATM    3  C3  UNL     1      22.250   1.221  50.340  1.00  0.00     0.017 C 
HETATM    4  C4  UNL     1      22.138   0.517  51.420  1.00  0.00     0.091 C 
HETATM    5  N1  UNL     1      22.084  -0.043  52.720  1.00  0.00    -0.350 N 
HETATM    6  C5  UNL     1      20.823  -0.467  53.367  1.00  0.00     0.175 A 
HETATM    7  C6  UNL     1      21.214  -1.096  54.640  1.00  0.00     0.109 A 
HETATM    8  N2  UNL     1      22.331  -1.297  55.269  1.00  0.00    -0.273 NA
HETATM    9  C7  UNL     1      23.516  -0.809  54.597  1.00  0.00     0.146 A 
HETATM   10  C8  UNL     1      23.296  -0.243  53.432  1.00  0.00     0.065 A 
HETATM   11  C9  UNL     1      24.547   0.283  52.888  1.00  0.00     0.028 A 
HETATM   12  C10 UNL     1      25.492  -0.675  52.634  1.00  0.00     0.017 A 
HETATM   13  C11 UNL     1      26.699  -0.194  52.112  1.00  0.00     0.001 A 
HETATM   14  C12 UNL     1      26.852   1.165  51.896  1.00  0.00     0.003 A 
HETATM   15  C13 UNL     1      25.853   2.086  52.174  1.00  0.00     0.040 A 
HETATM   16  C14 UNL     1      24.642   1.671  52.692  1.00  0.00     0.111 A 
HETATM   17  O1  UNL     1      23.522   2.362  53.048  1.00  0.00    -0.241 OA
HETATM   18  N3  UNL     1      23.186   3.640  52.790  1.00  0.00    -0.286 N 
HETATM   19  C15 UNL     1      23.546   5.009  52.488  1.00  0.00     0.157 C 
HETATM   20  C16 UNL     1      23.331   4.663  51.268  1.00  0.00     0.002 C 
HETATM   21  H13 UNL     1      22.394   2.950  52.965  1.00  0.00     0.189 HD
ENDROOT
TORSDOF 0
ENDMDL
MODEL 2
REMARK VINA RESULT:      -7.7      1.860      4.043
REMARK  0 active torsions:
REMARK  status: ('A' for Active; 'I' for Inactive)
ROOT
HETATM    1  C1  UNL     1      22.415   4.336  51.365  1.00  0.00    -0.002 C 
HETATM    2  C2  UNL     1      23.039   4.346  52.518  1.00  0.00     0.001 C 
HETATM    3  C3  UNL     1      24.040   3.711  53.381  1.00  0.00     0.017 C 
HETATM    4  C4  UNL     1      24.883   2.729  53.409  1.00  0.00     0.091 C 
HETATM    5  N1  UNL     1      25.723   1.605  53.207  1.00  0.00    -0.350 N 
HETATM    6  C5  UNL     1      27.193   1.706  53.091  1.00  0.00     0.175 A 
HETATM    7  C6  UNL     1      27.687   0.320  53.012  1.00  0.00     0.109 A 
HETATM    8  N2  UNL     1      27.142  -0.857  52.984  1.00  0.00    -0.273 NA
HETATM    9  C7  UNL     1      25.697  -0.871  53.051  1.00  0.00     0.146 A 
HETATM   10  C8  UNL     1      25.138   0.313  53.146  1.00  0.00     0.065 A 
HETATM   11  C9  UNL     1      23.681   0.182  53.121  1.00  0.00     0.028 A 
HETATM   12  C10 UNL     1      23.167  -0.529  54.173  1.00  0.00     0.017 A 
HETATM   13  C11 UNL     1      21.774  -0.668  54.170  1.00  0.00     0.001 A 
HETATM   14  C12 UNL     1      21.036  -0.100  53.145  1.00  0.00     0.003 A 
HETATM   15  C13 UNL     1      21.619   0.611  52.106  1.00  0.00     0.040 A 
HETATM   16  C14 UNL     1      22.989   0.780  52.055  1.00  0.00     0.111 A 
HETATM   17  O1  UNL     1      23.792   1.419  51.159  1.00  0.00    -0.241 OA
HETATM   18  N3  UNL     1      23.463   2.270  50.169  1.00  0.00    -0.286 N 
HETATM   19  C15 UNL     1      22.515   2.785  49.203  1.00  0.00     0.157 C 
HETATM   20  C16 UNL     1      22.275   3.672  50.102  1.00  0.00     0.002 C 
HETATM   21  H13 UNL     1      24.444   2.347  50.574  1.00  0.00     0.189 HD
ENDROOT
TORSDOF 0
ENDMDL
MODEL 3
REMARK VINA RESULT:      -7.5      1.729      2.378
REMARK  0 active torsions:
REMARK  status: ('A' for Active; 'I' for Inactive)
ROOT
HETATM    1  C1  UNL     1      23.080   3.781  49.732  1.00  0.00    -0.002 C 
HETATM    2  C2  UNL     1      22.761   2.613  49.230  1.00  0.00     0.001 C 
HETATM    3  C3  UNL     1      21.992   1.374  49.388  1.00  0.00     0.017 C 
HETATM    4  C4  UNL     1      21.165   0.785  50.190  1.00  0.00     0.091 C 
HETATM    5  N1  UNL     1      20.282   0.348  51.209  1.00  0.00    -0.350 N 
HETATM    6  C5  UNL     1      18.831   0.165  50.997  1.00  0.00     0.175 A 
HETATM    7  C6  UNL     1      18.308  -0.406  52.250  1.00  0.00     0.109 A 
HETATM    8  N2  UNL     1      18.809  -0.712  53.408  1.00  0.00    -0.273 NA
HETATM    9  C7  UNL     1      20.225  -0.457  53.556  1.00  0.00     0.146 A 
HETATM   10  C8  UNL     1      20.811   0.037  52.489  1.00  0.00     0.065 A 
HETATM   11  C9  UNL     1      22.214   0.331  52.781  1.00  0.00     0.028 A 
HETATM   12  C10 UNL     1      22.959  -0.770  53.108  1.00  0.00     0.017 A 
HETATM   13  C11 UNL     1      24.306  -0.512  53.391  1.00  0.00     0.001 A 
HETATM   14  C12 UNL     1      24.778   0.788  53.326  1.00  0.00     0.003 A 
HETATM   15  C13 UNL     1      23.968   1.863  52.987  1.00  0.00     0.040 A 
HETATM   16  C14 UNL     1      22.631   1.670  52.698  1.00  0.00     0.111 A 
HETATM   17  O1  UNL     1      21.643   2.541  52.349  1.00  0.00    -0.241 OA
HETATM   18  N3  UNL     1      21.733   3.828  51.964  1.00  0.00    -0.286 N 
HETATM   19  C15 UNL     1      22.421   5.102  51.949  1.00  0.00     0.157 C 
HETATM   20  C16 UNL     1      22.892   4.690  50.826  1.00  0.00     0.002 C 
HETATM   21  H13 UNL     1      20.884   3.276  51.635  1.00  0.00     0.189 HD
ENDROOT
TORSDOF 0
ENDMDL
MODEL 4
REMARK VINA RESULT:      -7.0      2.767      4.153
REMARK  0 active torsions:
REMARK  status: ('A' for Active; 'I' for Inactive)
ROOT
HETATM    1  C1  UNL     1      21.772   5.926  48.341  1.00  0.00    -0.002 C 
HETATM    2  C2  UNL     1      22.007   4.685  47.989  1.00  0.00     0.001 C 
HETATM    3  C3  UNL     1      22.547   3.377  48.374  1.00  0.00     0.017 C 
HETATM    4  C4  UNL     1      23.109   2.760  49.363  1.00  0.00     0.091 C 
HETATM    5  N1  UNL     1      23.703   2.304  50.567  1.00  0.00    -0.350 N 
HETATM    6  C5  UNL     1      23.071   1.302  51.451  1.00  0.00     0.175 A 
HETATM    7  C6  UNL     1      24.053   1.023  52.512  1.00  0.00     0.109 A 
HETATM    8  N2  UNL     1      25.233   1.466  52.821  1.00  0.00    -0.273 NA
HETATM    9  C7  UNL     1      25.764   2.482  51.938  1.00  0.00     0.146 A 
HETATM   10  C8  UNL     1      24.981   2.803  50.933  1.00  0.00     0.065 A 
HETATM   11  C9  UNL     1      25.580   3.891  50.161  1.00  0.00     0.028 A 
HETATM   12  C10 UNL     1      26.776   3.568  49.578  1.00  0.00     0.017 A 
HETATM   13  C11 UNL     1      27.368   4.596  48.833  1.00  0.00     0.001 A 
HETATM   14  C12 UNL     1      26.731   5.821  48.738  1.00  0.00     0.003 A 
HETATM   15  C13 UNL     1      25.516   6.084  49.354  1.00  0.00     0.040 A 
HETATM   16  C14 UNL     1      24.885   5.110  50.103  1.00  0.00     0.111 A 
HETATM   17  O1  UNL     1      23.711   5.116  50.797  1.00  0.00    -0.241 OA
HETATM   18  N3  UNL     1      22.707   6.013  50.773  1.00  0.00    -0.286 N 
HETATM   19  C15 UNL     1      22.210   7.353  50.546  1.00  0.00     0.157 C 
HETATM   20  C16 UNL     1      21.889   6.901  49.386  1.00  0.00     0.002 C 
HETATM   21  H13 UNL     1      22.468   5.015  51.059  1.00  0.00     0.189 HD
ENDROOT
TORSDOF 0
ENDMDL
MODEL 5
REMARK VINA RESULT:      -7.0      2.655      5.853
REMARK  0 active torsions:
REMARK  status: ('A' for Active; 'I' for Inactive)
ROOT
HETATM    1  C1  UNL     1      26.764   1.892  51.573  1.00  0.00    -0.002 C 
HETATM    2  C2  UNL     1      26.700   2.568  50.451  1.00  0.00     0.001 C 
HETATM    3  C3  UNL     1      26.092   3.684  49.720  1.00  0.00     0.017 C 
HETATM    4  C4  UNL     1      25.234   4.643  49.857  1.00  0.00     0.091 C 
HETATM    5  N1  UNL     1      24.267   5.605  50.242  1.00  0.00    -0.350 N 
HETATM    6  C5  UNL     1      24.573   7.044  50.392  1.00  0.00     0.175 A 
HETATM    7  C6  UNL     1      23.288   7.702  50.680  1.00  0.00     0.109 A 
HETATM    8  N2  UNL     1      22.064   7.307  50.854  1.00  0.00    -0.273 NA
HETATM    9  C7  UNL     1      21.852   5.880  50.741  1.00  0.00     0.146 A 
HETATM   10  C8  UNL     1      22.930   5.183  50.463  1.00  0.00     0.065 A 
HETATM   11  C9  UNL     1      22.613   3.755  50.456  1.00  0.00     0.028 A 
HETATM   12  C10 UNL     1      21.707   3.389  49.498  1.00  0.00     0.017 A 
HETATM   13  C11 UNL     1      21.389   2.025  49.473  1.00  0.00     0.001 A 
HETATM   14  C12 UNL     1      21.987   1.171  50.383  1.00  0.00     0.003 A 
HETATM   15  C13 UNL     1      22.901   1.607  51.332  1.00  0.00     0.040 A 
HETATM   16  C14 UNL     1      23.253   2.941  51.405  1.00  0.00     0.111 A 
HETATM   17  O1  UNL     1      24.106   3.610  52.230  1.00  0.00    -0.241 OA
HETATM   18  N3  UNL     1      25.031   3.126  53.080  1.00  0.00    -0.286 N 
HETATM   19  C15 UNL     1      25.543   2.074  53.933  1.00  0.00     0.157 C 
HETATM   20  C16 UNL     1      26.263   1.771  52.911  1.00  0.00     0.002 C 
HETATM   21  H13 UNL     1      25.181   4.110  52.701  1.00  0.00     0.189 HD
ENDROOT
TORSDOF 0
ENDMDL
MODEL 6
REMARK VINA RESULT:      -7.0      2.589      5.154
REMARK  0 active torsions:
REMARK  status: ('A' for Active; 'I' for Inactive)
ROOT
HETATM    1  C1  UNL     1      20.255   3.431  51.220  1.00  0.00    -0.002 C 
HETATM    2  C2  UNL     1      21.029   4.334  51.772  1.00  0.00     0.001 C 
HETATM    3  C3  UNL     1      22.353   4.963  51.810  1.00  0.00     0.017 C 
HETATM    4  C4  UNL     1      23.517   4.919  51.245  1.00  0.00     0.091 C 
HETATM    5  N1  UNL     1      24.690   4.688  50.484  1.00  0.00    -0.350 N 
HETATM    6  C5  UNL     1      25.239   5.672  49.527  1.00  0.00     0.175 A 
HETATM    7  C6  UNL     1      26.510   5.102  49.047  1.00  0.00     0.109 A 
HETATM    8  N2  UNL     1      27.162   3.997  49.244  1.00  0.00    -0.273 NA
HETATM    9  C7  UNL     1      26.537   3.063  50.154  1.00  0.00     0.146 A 
HETATM   10  C8  UNL     1      25.399   3.472  50.668  1.00  0.00     0.065 A 
HETATM   11  C9  UNL     1      24.820   2.419  51.502  1.00  0.00     0.028 A 
HETATM   12  C10 UNL     1      25.587   2.080  52.585  1.00  0.00     0.017 A 
HETATM   13  C11 UNL     1      25.052   1.073  53.398  1.00  0.00     0.001 A 
HETATM   14  C12 UNL     1      23.832   0.508  53.068  1.00  0.00     0.003 A 
HETATM   15  C13 UNL     1      23.102   0.898  51.954  1.00  0.00     0.040 A 
HETATM   16  C14 UNL     1      23.580   1.886  51.114  1.00  0.00     0.111 A 
HETATM   17  O1  UNL     1      23.068   2.437  49.977  1.00  0.00    -0.241 OA
HETATM   18  N3  UNL     1      21.830   2.332  49.457  1.00  0.00    -0.286 N 
HETATM   19  C15 UNL     1      20.580   1.621  49.294  1.00  0.00     0.157 C 
HETATM   20  C16 UNL     1      20.165   2.393  50.234  1.00  0.00     0.002 C 
HETATM   21  H13 UNL     1      22.397   3.198  49.205  1.00  0.00     0.189 HD
ENDROOT
TORSDOF 0
ENDMDL
MODEL 7
REMARK VINA RESULT:      -6.9      2.916      6.680
REMARK  0 active torsions:
REMARK  status: ('A' for Active; 'I' for Inactive)
ROOT
HETATM    1  C1  UNL     1      26.350   2.030  51.340  1.00  0.00    -0.002 C 
HETATM    2  C2  UNL     1      26.792   2.739  50.329  1.00  0.00     0.001 C 
HETATM    3  C3  UNL     1      26.687   3.981  49.557  1.00  0.00     0.017 C 
HETATM    4  C4  UNL     1      26.032   5.096  49.510  1.00  0.00     0.091 C 
HETATM    5  N1  UNL     1      25.195   6.230  49.661  1.00  0.00    -0.350 N 
HETATM    6  C5  UNL     1      25.704   7.565  50.044  1.00  0.00     0.175 A 
HETATM    7  C6  UNL     1      24.547   8.473  49.973  1.00  0.00     0.109 A 
HETATM    8  N2  UNL     1      23.283   8.343  49.708  1.00  0.00    -0.273 NA
HETATM    9  C7  UNL     1      22.851   6.999  49.393  1.00  0.00     0.146 A 
HETATM   10  C8  UNL     1      23.805   6.097  49.403  1.00  0.00     0.065 A 
HETATM   11  C9  UNL     1      23.242   4.770  49.155  1.00  0.00     0.028 A 
HETATM   12  C10 UNL     1      22.652   4.636  47.927  1.00  0.00     0.017 A 
HETATM   13  C11 UNL     1      22.105   3.373  47.667  1.00  0.00     0.001 A 
HETATM   14  C12 UNL     1      22.193   2.383  48.630  1.00  0.00     0.003 A 
HETATM   15  C13 UNL     1      22.806   2.584  49.858  1.00  0.00     0.040 A 
HETATM   16  C14 UNL     1      23.362   3.809  50.172  1.00  0.00     0.111 A 
HETATM   17  O1  UNL     1      24.006   4.255  51.287  1.00  0.00    -0.241 OA
HETATM   18  N3  UNL     1      24.487   3.558  52.335  1.00  0.00    -0.286 N 
HETATM   19  C15 UNL     1      24.476   2.395  53.196  1.00  0.00     0.157 C 
HETATM   20  C16 UNL     1      25.421   1.977  52.431  1.00  0.00     0.002 C 
HETATM   21  H13 UNL     1      24.939   4.499  52.122  1.00  0.00     0.189 HD
ENDROOT
TORSDOF 0
ENDMDL
MODEL 8
REMARK VINA RESULT:      -6.7      2.075      5.029
REMARK  0 active torsions:
REMARK  status: ('A' for Active; 'I' for Inactive)
ROOT
HETATM    1  C1  UNL     1      27.276   0.436  52.521  1.00  0.00    -0.002 C 
HETATM    2  C2  UNL     1      26.895   0.855  51.338  1.00  0.00     0.001 C 
HETATM    3  C3  UNL     1      26.062   1.787  50.572  1.00  0.00     0.017 C 
HETATM    4  C4  UNL     1      25.216   2.755  50.723  1.00  0.00     0.091 C 
HETATM    5  N1  UNL     1      24.326   3.778  51.134  1.00  0.00    -0.350 N 
HETATM    6  C5  UNL     1      24.582   5.215  50.898  1.00  0.00     0.175 A 
HETATM    7  C6  UNL     1      23.376   5.922  51.364  1.00  0.00     0.109 A 
HETATM    8  N2  UNL     1      22.259   5.575  51.925  1.00  0.00    -0.273 NA
HETATM    9  C7  UNL     1      22.103   4.158  52.171  1.00  0.00     0.146 A 
HETATM   10  C8  UNL     1      23.112   3.416  51.776  1.00  0.00     0.065 A 
HETATM   11  C9  UNL     1      22.883   2.020  52.149  1.00  0.00     0.028 A 
HETATM   12  C10 UNL     1      21.785   1.457  51.554  1.00  0.00     0.017 A 
HETATM   13  C11 UNL     1      21.546   0.120  51.898  1.00  0.00     0.001 A 
HETATM   14  C12 UNL     1      22.400  -0.519  52.780  1.00  0.00     0.003 A 
HETATM   15  C13 UNL     1      23.498   0.110  53.349  1.00  0.00     0.040 A 
HETATM   16  C14 UNL     1      23.784   1.428  53.049  1.00  0.00     0.111 A 
HETATM   17  O1  UNL     1      24.780   2.259  53.468  1.00  0.00    -0.241 OA
HETATM   18  N3  UNL     1      25.915   1.968  54.132  1.00  0.00    -0.286 N 
HETATM   19  C15 UNL     1      26.681   1.124  55.024  1.00  0.00     0.157 C 
HETATM   20  C16 UNL     1      27.135   0.607  53.938  1.00  0.00     0.002 C 
HETATM   21  H13 UNL     1      25.910   2.847  53.531  1.00  0.00     0.189 HD
ENDROOT
TORSDOF 0
ENDMDL
MODEL 9
REMARK VINA RESULT:      -6.6      8.820     11.164
REMARK  0 active torsions:
REMARK  status: ('A' for Active; 'I' for Inactive)
ROOT
HETATM    1  C1  UNL     1      30.202  10.938  47.831  1.00  0.00    -0.002 C 
HETATM    2  C2  UNL     1      30.557  10.301  48.921  1.00  0.00     0.001 C 
HETATM    3  C3  UNL     1      31.099   9.071  49.506  1.00  0.00     0.017 C 
HETATM    4  C4  UNL     1      31.538   7.897  49.181  1.00  0.00     0.091 C 
HETATM    5  N1  UNL     1      31.971   6.685  48.589  1.00  0.00    -0.350 N 
HETATM    6  C5  UNL     1      33.382   6.243  48.591  1.00  0.00     0.175 A 
HETATM    7  C6  UNL     1      33.385   4.898  47.991  1.00  0.00     0.109 A 
HETATM    8  N2  UNL     1      32.490   4.114  47.473  1.00  0.00    -0.273 NA
HETATM    9  C7  UNL     1      31.141   4.636  47.461  1.00  0.00     0.146 A 
HETATM   10  C8  UNL     1      31.008   5.830  47.992  1.00  0.00     0.065 A 
HETATM   11  C9  UNL     1      29.626   6.289  47.850  1.00  0.00     0.028 A 
HETATM   12  C10 UNL     1      28.710   5.512  48.507  1.00  0.00     0.017 A 
HETATM   13  C11 UNL     1      27.380   5.933  48.384  1.00  0.00     0.001 A 
HETATM   14  C12 UNL     1      27.090   7.061  47.636  1.00  0.00     0.003 A 
HETATM   15  C13 UNL     1      28.068   7.806  46.993  1.00  0.00     0.040 A 
HETATM   16  C14 UNL     1      29.397   7.439  47.077  1.00  0.00     0.111 A 
HETATM   17  O1  UNL     1      30.526   7.989  46.547  1.00  0.00    -0.241 OA
HETATM   18  N3  UNL     1      30.700   9.189  45.962  1.00  0.00    -0.286 N 
HETATM   19  C15 UNL     1      30.188  10.333  45.238  1.00  0.00     0.157 C 
HETATM   20  C16 UNL     1      30.092  10.868  46.403  1.00  0.00     0.002 C 
HETATM   21  H13 UNL     1      31.552   8.733  46.410  1.00  0.00     0.189 HD
ENDROOT
TORSDOF 0
ENDMDL
