MODEL 1
REMARK VINA RESULT:      -7.9      0.000      0.000
REMARK  5 active torsions:
REMARK  status: ('A' for Active; 'I' for Inactive)
REMARK    1  A    between atoms: C2_2  and  C3_3 
REMARK    2  A    between atoms: C3_3  and  C4_4 
REMARK    3  A    between atoms: C12_14  and  N3_15 
REMARK       I    between atoms: N3_15  and  C13_16 
REMARK    4  A    between atoms: C13_16  and  C14_18 
REMARK    5  A    between atoms: C15_19  and  N4_21 
ROOT
HETATM    1  C4  UNL     1      24.345   0.124  53.341  1.00  0.00    -0.009 C 
HETATM    2  C5  UNL     1      25.431  -0.429  53.850  1.00  0.00     0.018 C 
HETATM    3  C6  UNL     1      26.405  -0.985  52.724  1.00  0.00     0.097 C 
HETATM    4  C7  UNL     1      26.808   0.530  52.795  1.00  0.00    -0.032 C 
HETATM    5  C8  UNL     1      27.677   0.726  53.773  1.00  0.00     0.046 C 
HETATM    6  C9  UNL     1      28.473   1.888  53.379  1.00  0.00     0.097 C 
HETATM    7  N1  UNL     1      29.102   2.797  53.090  1.00  0.00    -0.192 NA
HETATM    8  C10 UNL     1      27.562  -0.217  54.977  1.00  0.00     0.170 C 
HETATM    9  N2  UNL     1      26.068  -0.481  55.113  1.00  0.00    -0.387 N 
HETATM   10  C11 UNL     1      25.978   1.399  51.971  1.00  0.00     0.039 C 
HETATM   11  C12 UNL     1      24.635   1.155  52.268  1.00  0.00     0.043 C 
HETATM   12  H12 UNL     1      25.187  -0.686  55.712  1.00  0.00     0.159 HD
ENDROOT
BRANCH  11  13
HETATM   13  N3  UNL     1      23.578   1.801  51.661  1.00  0.00    -0.323 N 
HETATM   14  C13 UNL     1      23.179   3.102  52.054  1.00  0.00     0.247 C 
HETATM   15  O1  UNL     1      23.609   3.885  52.916  1.00  0.00    -0.268 OA
HETATM   16  H14 UNL     1      23.078   1.300  50.899  1.00  0.00     0.169 HD
BRANCH  14  17
HETATM   17  C14 UNL     1      22.038   3.680  51.327  1.00  0.00     0.098 C 
HETATM   18  C15 UNL     1      22.041   4.669  50.446  1.00  0.00     0.010 C 
HETATM   19  C16 UNL     1      20.916   5.281  49.692  1.00  0.00     0.068 C 
BRANCH  18  20
HETATM   20  N4  UNL     1      23.181   5.425  49.983  1.00  0.00    -0.361 N 
HETATM   21  C17 UNL     1      23.981   6.487  50.568  1.00  0.00     0.151 C 
HETATM   22  C18 UNL     1      25.330   6.206  49.939  1.00  0.00     0.189 C 
HETATM   23  O2  UNL     1      25.139   5.433  48.822  1.00  0.00    -0.370 OA
HETATM   24  C19 UNL     1      23.796   5.207  48.662  1.00  0.00     0.292 C 
ENDBRANCH  18  20
ENDBRANCH  14  17
ENDBRANCH  11  13
BRANCH   1  25
HETATM   25  C3  UNL     1      23.147  -0.273  54.047  1.00  0.00     0.042 C 
BRANCH  25  26
HETATM   26  C2  UNL     1      22.249  -1.214  53.257  1.00  0.00     0.000 C 
HETATM   27  C1  UNL     1      21.043  -1.557  54.104  1.00  0.00     0.005 C 
ENDBRANCH  25  26
ENDBRANCH   1  25
TORSDOF 5
ENDMDL
MODEL 2
REMARK VINA RESULT:      -7.8      1.854      3.141
REMARK  5 active torsions:
REMARK  status: ('A' for Active; 'I' for Inactive)
REMARK    1  A    between atoms: C2_2  and  C3_3 
REMARK    2  A    between atoms: C3_3  and  C4_4 
REMARK    3  A    between atoms: C12_14  and  N3_15 
REMARK       I    between atoms: N3_15  and  C13_16 
REMARK    4  A    between atoms: C13_16  and  C14_18 
REMARK    5  A    between atoms: C15_19  and  N4_21 
ROOT
HETATM    1  C4  UNL     1      24.395   0.249  53.208  1.00  0.00    -0.009 C 
HETATM    2  C5  UNL     1      25.443  -0.325  53.770  1.00  0.00     0.018 C 
HETATM    3  C6  UNL     1      26.445  -0.932  52.695  1.00  0.00     0.097 C 
HETATM    4  C7  UNL     1      26.889   0.572  52.755  1.00  0.00    -0.032 C 
HETATM    5  C8  UNL     1      27.724   0.762  53.763  1.00  0.00     0.046 C 
HETATM    6  C9  UNL     1      28.569   1.893  53.380  1.00  0.00     0.097 C 
HETATM    7  N1  UNL     1      29.236   2.777  53.100  1.00  0.00    -0.192 NA
HETATM    8  C10 UNL     1      27.533  -0.153  54.979  1.00  0.00     0.170 C 
HETATM    9  N2  UNL     1      26.028  -0.371  55.059  1.00  0.00    -0.387 N 
HETATM   10  C11 UNL     1      26.119   1.449  51.882  1.00  0.00     0.039 C 
HETATM   11  C12 UNL     1      24.759   1.250  52.128  1.00  0.00     0.043 C 
HETATM   12  H12 UNL     1      25.117  -0.539  55.626  1.00  0.00     0.159 HD
ENDROOT
BRANCH  11  13
HETATM   13  N3  UNL     1      23.747   1.914  51.467  1.00  0.00    -0.323 N 
HETATM   14  C13 UNL     1      23.342   3.217  51.848  1.00  0.00     0.247 C 
HETATM   15  O1  UNL     1      23.731   3.987  52.741  1.00  0.00    -0.268 OA
HETATM   16  H14 UNL     1      23.285   1.426  50.673  1.00  0.00     0.169 HD
BRANCH  14  17
HETATM   17  C14 UNL     1      22.252   3.816  51.062  1.00  0.00     0.098 C 
HETATM   18  C15 UNL     1      21.045   3.326  50.825  1.00  0.00     0.010 C 
HETATM   19  C16 UNL     1      19.919   3.897  50.039  1.00  0.00     0.068 C 
BRANCH  18  20
HETATM   20  N4  UNL     1      20.503   2.071  51.290  1.00  0.00    -0.361 N 
HETATM   21  C17 UNL     1      20.005   1.611  52.575  1.00  0.00     0.151 C 
HETATM   22  C18 UNL     1      18.956   0.613  52.131  1.00  0.00     0.189 C 
HETATM   23  O2  UNL     1      19.220   0.247  50.836  1.00  0.00    -0.370 OA
HETATM   24  C19 UNL     1      20.349   0.899  50.412  1.00  0.00     0.292 C 
ENDBRANCH  18  20
ENDBRANCH  14  17
ENDBRANCH  11  13
BRANCH   1  25
HETATM   25  C3  UNL     1      23.159  -0.098  53.871  1.00  0.00     0.042 C 
BRANCH  25  26
HETATM   26  C2  UNL     1      22.387  -1.219  53.190  1.00  0.00     0.000 C 
HETATM   27  C1  UNL     1      21.266  -1.661  54.105  1.00  0.00     0.005 C 
ENDBRANCH  25  26
ENDBRANCH   1  25
TORSDOF 5
ENDMDL
MODEL 3
REMARK VINA RESULT:      -7.6      2.674      4.576
REMARK  5 active torsions:
REMARK  status: ('A' for Active; 'I' for Inactive)
REMARK    1  A    between atoms: C2_2  and  C3_3 
REMARK    2  A    between atoms: C3_3  and  C4_4 
REMARK    3  A    between atoms: C12_14  and  N3_15 
REMARK       I    between atoms: N3_15  and  C13_16 
REMARK    4  A    between atoms: C13_16  and  C14_18 
REMARK    5  A    between atoms: C15_19  and  N4_21 
ROOT
HETATM    1  C4  UNL     1      24.692   1.409  53.085  1.00  0.00    -0.009 C 
HETATM    2  C5  UNL     1      25.961   1.565  53.413  1.00  0.00     0.018 C 
HETATM    3  C6  UNL     1      26.299   0.927  54.830  1.00  0.00     0.097 C 
HETATM    4  C7  UNL     1      26.413  -0.309  53.870  1.00  0.00    -0.032 C 
HETATM    5  C8  UNL     1      27.612  -0.345  53.312  1.00  0.00     0.046 C 
HETATM    6  C9  UNL     1      27.879  -1.753  53.018  1.00  0.00     0.097 C 
HETATM    7  N1  UNL     1      28.103  -2.847  52.777  1.00  0.00    -0.192 NA
HETATM    8  C10 UNL     1      28.295   1.010  53.094  1.00  0.00     0.170 C 
HETATM    9  N2  UNL     1      27.154   1.964  52.764  1.00  0.00    -0.387 N 
HETATM   10  C11 UNL     1      25.143  -0.976  53.615  1.00  0.00     0.039 C 
HETATM   11  C12 UNL     1      24.207  -0.024  53.203  1.00  0.00     0.043 C 
HETATM   12  H12 UNL     1      26.756   2.832  52.247  1.00  0.00     0.159 HD
ENDROOT
BRANCH  11  13
HETATM   13  N3  UNL     1      22.896  -0.312  52.888  1.00  0.00    -0.323 N 
HETATM   14  C13 UNL     1      21.915  -0.499  53.893  1.00  0.00     0.247 C 
HETATM   15  O1  UNL     1      21.969  -0.459  55.132  1.00  0.00    -0.268 OA
HETATM   16  H14 UNL     1      22.646  -0.389  51.881  1.00  0.00     0.169 HD
BRANCH  14  17
HETATM   17  C14 UNL     1      20.553  -0.800  53.425  1.00  0.00     0.098 C 
HETATM   18  C15 UNL     1      19.767  -0.063  52.656  1.00  0.00     0.010 C 
HETATM   19  C16 UNL     1      18.390  -0.329  52.162  1.00  0.00     0.068 C 
BRANCH  18  20
HETATM   20  N4  UNL     1      20.064   1.231  52.085  1.00  0.00    -0.361 N 
HETATM   21  C17 UNL     1      20.110   1.735  50.723  1.00  0.00     0.151 C 
HETATM   22  C18 UNL     1      19.697   3.176  50.942  1.00  0.00     0.189 C 
HETATM   23  O2  UNL     1      19.896   3.493  52.261  1.00  0.00    -0.370 OA
HETATM   24  C19 UNL     1      20.414   2.400  52.907  1.00  0.00     0.292 C 
ENDBRANCH  18  20
ENDBRANCH  14  17
ENDBRANCH  11  13
BRANCH   1  25
HETATM   25  C3  UNL     1      24.115   2.615  52.537  1.00  0.00     0.042 C 
BRANCH  25  26
HETATM   26  C2  UNL     1      23.729   2.504  51.069  1.00  0.00     0.000 C 
HETATM   27  C1  UNL     1      24.823   3.131  50.233  1.00  0.00     0.005 C 
ENDBRANCH  25  26
ENDBRANCH   1  25
TORSDOF 5
ENDMDL
MODEL 4
REMARK VINA RESULT:      -7.3      5.931     10.086
REMARK  5 active torsions:
REMARK  status: ('A' for Active; 'I' for Inactive)
REMARK    1  A    between atoms: C2_2  and  C3_3 
REMARK    2  A    between atoms: C3_3  and  C4_4 
REMARK    3  A    between atoms: C12_14  and  N3_15 
REMARK       I    between atoms: N3_15  and  C13_16 
REMARK    4  A    between atoms: C13_16  and  C14_18 
REMARK    5  A    between atoms: C15_19  and  N4_21 
ROOT
HETATM    1  C4  UNL     1      28.730   8.025  48.966  1.00  0.00    -0.009 C 
HETATM    2  C5  UNL     1      27.426   7.845  49.069  1.00  0.00     0.018 C 
HETATM    3  C6  UNL     1      26.791   7.269  47.731  1.00  0.00     0.097 C 
HETATM    4  C7  UNL     1      27.305   5.969  48.444  1.00  0.00    -0.032 C 
HETATM    5  C8  UNL     1      26.411   5.545  49.322  1.00  0.00     0.046 C 
HETATM    6  C9  UNL     1      26.602   4.099  49.427  1.00  0.00     0.097 C 
HETATM    7  N1  UNL     1      26.739   2.969  49.526  1.00  0.00    -0.192 NA
HETATM    8  C10 UNL     1      25.541   6.627  49.974  1.00  0.00     0.170 C 
HETATM    9  N2  UNL     1      26.465   7.830  50.109  1.00  0.00    -0.387 N 
HETATM   10  C11 UNL     1      28.707   5.668  48.181  1.00  0.00     0.039 C 
HETATM   11  C12 UNL     1      29.472   6.805  48.454  1.00  0.00     0.043 C 
HETATM   12  H12 UNL     1      26.797   8.724  50.627  1.00  0.00     0.159 HD
ENDROOT
BRANCH  11  13
HETATM   13  N3  UNL     1      30.841   6.872  48.303  1.00  0.00    -0.323 N 
HETATM   14  C13 UNL     1      31.719   6.218  49.202  1.00  0.00     0.247 C 
HETATM   15  O1  UNL     1      31.520   5.520  50.209  1.00  0.00    -0.268 OA
HETATM   16  H14 UNL     1      31.213   7.421  47.502  1.00  0.00     0.169 HD
BRANCH  14  17
HETATM   17  C14 UNL     1      33.158   6.366  48.930  1.00  0.00     0.098 C 
HETATM   18  C15 UNL     1      33.940   5.586  48.200  1.00  0.00     0.010 C 
HETATM   19  C16 UNL     1      35.392   5.699  47.901  1.00  0.00     0.068 C 
BRANCH  18  20
HETATM   20  N4  UNL     1      33.562   4.387  47.488  1.00  0.00    -0.361 N 
HETATM   21  C17 UNL     1      33.816   2.973  47.705  1.00  0.00     0.151 C 
HETATM   22  C18 UNL     1      32.555   2.367  47.125  1.00  0.00     0.189 C 
HETATM   23  O2  UNL     1      31.973   3.286  46.289  1.00  0.00    -0.370 OA
HETATM   24  C19 UNL     1      32.749   4.416  46.261  1.00  0.00     0.292 C 
ENDBRANCH  18  20
ENDBRANCH  14  17
ENDBRANCH  11  13
BRANCH   1  25
HETATM   25  C3  UNL     1      29.155   9.291  49.520  1.00  0.00     0.042 C 
BRANCH  25  26
HETATM   26  C2  UNL     1      29.346  10.386  48.480  1.00  0.00     0.000 C 
HETATM   27  C1  UNL     1      30.722  10.987  48.658  1.00  0.00     0.005 C 
ENDBRANCH  25  26
ENDBRANCH   1  25
TORSDOF 5
ENDMDL
MODEL 5
REMARK VINA RESULT:      -7.3      1.728      2.165
REMARK  5 active torsions:
REMARK  status: ('A' for Active; 'I' for Inactive)
REMARK    1  A    between atoms: C2_2  and  C3_3 
REMARK    2  A    between atoms: C3_3  and  C4_4 
REMARK    3  A    between atoms: C12_14  and  N3_15 
REMARK       I    between atoms: N3_15  and  C13_16 
REMARK    4  A    between atoms: C13_16  and  C14_18 
REMARK    5  A    between atoms: C15_19  and  N4_21 
ROOT
HETATM    1  C4  UNL     1      24.301   1.228  52.175  1.00  0.00    -0.009 C 
HETATM    2  C5  UNL     1      24.964   0.353  52.909  1.00  0.00     0.018 C 
HETATM    3  C6  UNL     1      26.170  -0.307  52.111  1.00  0.00     0.097 C 
HETATM    4  C7  UNL     1      26.807   1.029  52.633  1.00  0.00    -0.032 C 
HETATM    5  C8  UNL     1      27.240   0.874  53.873  1.00  0.00     0.046 C 
HETATM    6  C9  UNL     1      28.342   1.823  54.037  1.00  0.00     0.097 C 
HETATM    7  N1  UNL     1      29.202   2.560  54.185  1.00  0.00    -0.192 NA
HETATM    8  C10 UNL     1      26.474  -0.137  54.735  1.00  0.00     0.170 C 
HETATM    9  N2  UNL     1      25.028  -0.011  54.275  1.00  0.00    -0.387 N 
HETATM   10  C11 UNL     1      26.561   2.176  51.768  1.00  0.00     0.039 C 
HETATM   11  C12 UNL     1      25.190   2.263  51.513  1.00  0.00     0.043 C 
HETATM   12  H12 UNL     1      23.960  -0.044  54.467  1.00  0.00     0.159 HD
ENDROOT
BRANCH  11  13
HETATM   13  N3  UNL     1      24.610   3.230  50.719  1.00  0.00    -0.323 N 
HETATM   14  C13 UNL     1      23.927   4.338  51.279  1.00  0.00     0.247 C 
HETATM   15  O1  UNL     1      23.704   4.678  52.452  1.00  0.00    -0.268 OA
HETATM   16  H14 UNL     1      24.690   3.122  49.688  1.00  0.00     0.169 HD
BRANCH  14  17
HETATM   17  C14 UNL     1      23.354   5.300  50.325  1.00  0.00     0.098 C 
HETATM   18  C15 UNL     1      23.987   6.187  49.573  1.00  0.00     0.010 C 
HETATM   19  C16 UNL     1      23.448   7.174  48.600  1.00  0.00     0.068 C 
BRANCH  18  20
HETATM   20  N4  UNL     1      25.410   6.425  49.510  1.00  0.00    -0.361 N 
HETATM   21  C17 UNL     1      26.519   5.701  48.914  1.00  0.00     0.151 C 
HETATM   22  C18 UNL     1      27.448   6.844  48.563  1.00  0.00     0.189 C 
HETATM   23  O2  UNL     1      27.098   7.938  49.313  1.00  0.00    -0.370 OA
HETATM   24  C19 UNL     1      26.047   7.602  50.126  1.00  0.00     0.292 C 
ENDBRANCH  18  20
ENDBRANCH  14  17
ENDBRANCH  11  13
BRANCH   1  25
HETATM   25  C3  UNL     1      22.869   1.084  52.312  1.00  0.00     0.042 C 
BRANCH  25  26
HETATM   26  C2  UNL     1      22.140   0.879  50.991  1.00  0.00     0.000 C 
HETATM   27  C1  UNL     1      20.728   0.421  51.283  1.00  0.00     0.005 C 
ENDBRANCH  25  26
ENDBRANCH   1  25
TORSDOF 5
ENDMDL
MODEL 6
REMARK VINA RESULT:      -7.3      3.043      5.238
REMARK  5 active torsions:
REMARK  status: ('A' for Active; 'I' for Inactive)
REMARK    1  A    between atoms: C2_2  and  C3_3 
REMARK    2  A    between atoms: C3_3  and  C4_4 
REMARK    3  A    between atoms: C12_14  and  N3_15 
REMARK       I    between atoms: N3_15  and  C13_16 
REMARK    4  A    between atoms: C13_16  and  C14_18 
REMARK    5  A    between atoms: C15_19  and  N4_21 
ROOT
HETATM    1  C4  UNL     1      23.175   1.711  51.724  1.00  0.00    -0.009 C 
HETATM    2  C5  UNL     1      24.422   2.121  51.874  1.00  0.00     0.018 C 
HETATM    3  C6  UNL     1      24.853   2.183  53.403  1.00  0.00     0.097 C 
HETATM    4  C7  UNL     1      25.100   0.675  53.047  1.00  0.00    -0.032 C 
HETATM    5  C8  UNL     1      26.286   0.527  52.480  1.00  0.00     0.046 C 
HETATM    6  C9  UNL     1      26.715  -0.837  52.789  1.00  0.00     0.097 C 
HETATM    7  N1  UNL     1      27.064  -1.901  53.016  1.00  0.00    -0.192 NA
HETATM    8  C10 UNL     1      26.800   1.723  51.669  1.00  0.00     0.170 C 
HETATM    9  N2  UNL     1      25.549   2.324  51.042  1.00  0.00    -0.387 N 
HETATM   10  C11 UNL     1      23.915  -0.163  53.177  1.00  0.00     0.039 C 
HETATM   11  C12 UNL     1      22.866   0.424  52.464  1.00  0.00     0.043 C 
HETATM   12  H12 UNL     1      25.042   2.845  50.235  1.00  0.00     0.159 HD
ENDROOT
BRANCH  11  13
HETATM   13  N3  UNL     1      21.594  -0.103  52.383  1.00  0.00    -0.323 N 
HETATM   14  C13 UNL     1      20.682  -0.008  53.463  1.00  0.00     0.247 C 
HETATM   15  O1  UNL     1      20.773   0.497  54.593  1.00  0.00    -0.268 OA
HETATM   16  H14 UNL     1      21.322  -0.576  51.498  1.00  0.00     0.169 HD
BRANCH  14  17
HETATM   17  C14 UNL     1      19.356  -0.609  53.249  1.00  0.00     0.098 C 
HETATM   18  C15 UNL     1      18.431  -0.265  52.367  1.00  0.00     0.010 C 
HETATM   19  C16 UNL     1      17.084  -0.844  52.119  1.00  0.00     0.068 C 
BRANCH  18  20
HETATM   20  N4  UNL     1      18.505   0.795  51.389  1.00  0.00    -0.361 N 
HETATM   21  C17 UNL     1      18.581   0.814  49.938  1.00  0.00     0.151 C 
HETATM   22  C18 UNL     1      17.854   2.107  49.633  1.00  0.00     0.189 C 
HETATM   23  O2  UNL     1      17.845   2.882  50.765  1.00  0.00    -0.370 OA
HETATM   24  C19 UNL     1      18.514   2.220  51.762  1.00  0.00     0.292 C 
ENDBRANCH  18  20
ENDBRANCH  14  17
ENDBRANCH  11  13
BRANCH   1  25
HETATM   25  C3  UNL     1      22.450   2.505  50.757  1.00  0.00     0.042 C 
BRANCH  25  26
HETATM   26  C2  UNL     1      22.264   1.820  49.411  1.00  0.00     0.000 C 
HETATM   27  C1  UNL     1      21.485   2.744  48.501  1.00  0.00     0.005 C 
ENDBRANCH  25  26
ENDBRANCH   1  25
TORSDOF 5
ENDMDL
MODEL 7
REMARK VINA RESULT:      -7.2      1.597      1.984
REMARK  5 active torsions:
REMARK  status: ('A' for Active; 'I' for Inactive)
REMARK    1  A    between atoms: C2_2  and  C3_3 
REMARK    2  A    between atoms: C3_3  and  C4_4 
REMARK    3  A    between atoms: C12_14  and  N3_15 
REMARK       I    between atoms: N3_15  and  C13_16 
REMARK    4  A    between atoms: C13_16  and  C14_18 
REMARK    5  A    between atoms: C15_19  and  N4_21 
ROOT
HETATM    1  C4  UNL     1      24.248   0.169  53.435  1.00  0.00    -0.009 C 
HETATM    2  C5  UNL     1      25.380  -0.489  53.607  1.00  0.00     0.018 C 
HETATM    3  C6  UNL     1      26.155  -0.718  52.238  1.00  0.00     0.097 C 
HETATM    4  C7  UNL     1      26.613   0.727  52.645  1.00  0.00    -0.032 C 
HETATM    5  C8  UNL     1      27.625   0.664  53.494  1.00  0.00     0.046 C 
HETATM    6  C9  UNL     1      28.390   1.896  53.304  1.00  0.00     0.097 C 
HETATM    7  N1  UNL     1      28.998   2.854  53.172  1.00  0.00    -0.192 NA
HETATM    8  C10 UNL     1      27.661  -0.566  54.409  1.00  0.00     0.170 C 
HETATM    9  N2  UNL     1      26.197  -0.870  54.698  1.00  0.00    -0.387 N 
HETATM   10  C11 UNL     1      25.698   1.778  52.217  1.00  0.00     0.039 C 
HETATM   11  C12 UNL     1      24.407   1.452  52.641  1.00  0.00     0.043 C 
HETATM   12  H12 UNL     1      25.409  -1.235  55.350  1.00  0.00     0.159 HD
ENDROOT
BRANCH  11  13
HETATM   13  N3  UNL     1      23.292   2.226  52.395  1.00  0.00    -0.323 N 
HETATM   14  C13 UNL     1      22.397   1.924  51.340  1.00  0.00     0.247 C 
HETATM   15  O1  UNL     1      22.382   1.022  50.487  1.00  0.00    -0.268 OA
HETATM   16  H14 UNL     1      23.127   3.046  53.013  1.00  0.00     0.169 HD
BRANCH  14  17
HETATM   17  C14 UNL     1      21.246   2.827  51.184  1.00  0.00     0.098 C 
HETATM   18  C15 UNL     1      20.913   3.560  50.133  1.00  0.00     0.010 C 
HETATM   19  C16 UNL     1      19.763   4.482  49.935  1.00  0.00     0.068 C 
BRANCH  18  20
HETATM   20  N4  UNL     1      21.610   3.647  48.870  1.00  0.00    -0.361 N 
HETATM   21  C17 UNL     1      21.436   2.991  47.586  1.00  0.00     0.151 C 
HETATM   22  C18 UNL     1      21.918   4.077  46.646  1.00  0.00     0.189 C 
HETATM   23  O2  UNL     1      22.688   4.961  47.358  1.00  0.00    -0.370 OA
HETATM   24  C19 UNL     1      22.763   4.537  48.660  1.00  0.00     0.292 C 
ENDBRANCH  18  20
ENDBRANCH  14  17
ENDBRANCH  11  13
BRANCH   1  25
HETATM   25  C3  UNL     1      23.157  -0.411  54.185  1.00  0.00     0.042 C 
BRANCH  25  26
HETATM   26  C2  UNL     1      22.184  -1.218  53.337  1.00  0.00     0.000 C 
HETATM   27  C1  UNL     1      20.874  -1.336  54.083  1.00  0.00     0.005 C 
ENDBRANCH  25  26
ENDBRANCH   1  25
TORSDOF 5
ENDMDL
MODEL 8
REMARK VINA RESULT:      -7.1      2.370      7.127
REMARK  5 active torsions:
REMARK  status: ('A' for Active; 'I' for Inactive)
REMARK    1  A    between atoms: C2_2  and  C3_3 
REMARK    2  A    between atoms: C3_3  and  C4_4 
REMARK    3  A    between atoms: C12_14  and  N3_15 
REMARK       I    between atoms: N3_15  and  C13_16 
REMARK    4  A    between atoms: C13_16  and  C14_18 
REMARK    5  A    between atoms: C15_19  and  N4_21 
ROOT
HETATM    1  C4  UNL     1      23.609   3.535  50.576  1.00  0.00    -0.009 C 
HETATM    2  C5  UNL     1      22.464   3.326  49.953  1.00  0.00     0.018 C 
HETATM    3  C6  UNL     1      22.446   1.938  49.179  1.00  0.00     0.097 C 
HETATM    4  C7  UNL     1      22.047   1.514  50.637  1.00  0.00    -0.032 C 
HETATM    5  C8  UNL     1      20.749   1.688  50.824  1.00  0.00     0.046 C 
HETATM    6  C9  UNL     1      20.354   0.715  51.842  1.00  0.00     0.097 C 
HETATM    7  N1  UNL     1      20.027  -0.036  52.638  1.00  0.00    -0.192 NA
HETATM    8  C10 UNL     1      20.099   2.822  50.022  1.00  0.00     0.170 C 
HETATM    9  N2  UNL     1      21.171   3.901  49.949  1.00  0.00    -0.387 N 
HETATM   10  C11 UNL     1      23.187   1.273  51.513  1.00  0.00     0.039 C 
HETATM   11  C12 UNL     1      24.040   2.378  51.458  1.00  0.00     0.043 C 
HETATM   12  H12 UNL     1      21.474   4.943  49.907  1.00  0.00     0.159 HD
ENDROOT
BRANCH  11  13
HETATM   13  N3  UNL     1      25.222   2.480  52.160  1.00  0.00    -0.323 N 
HETATM   14  C13 UNL     1      26.479   2.356  51.519  1.00  0.00     0.247 C 
HETATM   15  O1  UNL     1      26.800   2.153  50.337  1.00  0.00    -0.268 OA
HETATM   16  H14 UNL     1      25.164   2.652  53.184  1.00  0.00     0.169 HD
BRANCH  14  17
HETATM   17  C14 UNL     1      27.665   2.485  52.381  1.00  0.00     0.098 C 
HETATM   18  C15 UNL     1      28.035   1.712  53.390  1.00  0.00     0.010 C 
HETATM   19  C16 UNL     1      29.220   1.807  54.283  1.00  0.00     0.068 C 
BRANCH  18  20
HETATM   20  N4  UNL     1      27.353   0.542  53.893  1.00  0.00    -0.361 N 
HETATM   21  C17 UNL     1      26.408   0.324  54.974  1.00  0.00     0.151 C 
HETATM   22  C18 UNL     1      25.597  -0.826  54.414  1.00  0.00     0.189 C 
HETATM   23  O2  UNL     1      26.326  -1.433  53.422  1.00  0.00    -0.370 OA
HETATM   24  C19 UNL     1      27.534  -0.796  53.306  1.00  0.00     0.292 C 
ENDBRANCH  18  20
ENDBRANCH  14  17
ENDBRANCH  11  13
BRANCH   1  25
HETATM   25  C3  UNL     1      24.095   4.884  50.393  1.00  0.00     0.042 C 
BRANCH  25  26
HETATM   26  C2  UNL     1      24.707   5.139  49.023  1.00  0.00     0.000 C 
HETATM   27  C1  UNL     1      26.192   5.373  49.193  1.00  0.00     0.005 C 
ENDBRANCH  25  26
ENDBRANCH   1  25
TORSDOF 5
ENDMDL
MODEL 9
REMARK VINA RESULT:      -7.1      1.952      6.457
REMARK  5 active torsions:
REMARK  status: ('A' for Active; 'I' for Inactive)
REMARK    1  A    between atoms: C2_2  and  C3_3 
REMARK    2  A    between atoms: C3_3  and  C4_4 
REMARK    3  A    between atoms: C12_14  and  N3_15 
REMARK       I    between atoms: N3_15  and  C13_16 
REMARK    4  A    between atoms: C13_16  and  C14_18 
REMARK    5  A    between atoms: C15_19  and  N4_21 
ROOT
HETATM    1  C4  UNL     1      23.147   2.237  52.164  1.00  0.00    -0.009 C 
HETATM    2  C5  UNL     1      22.042   2.595  51.537  1.00  0.00     0.018 C 
HETATM    3  C6  UNL     1      21.586   4.069  51.919  1.00  0.00     0.097 C 
HETATM    4  C7  UNL     1      22.641   4.328  50.786  1.00  0.00    -0.032 C 
HETATM    5  C8  UNL     1      22.072   4.213  49.597  1.00  0.00     0.046 C 
HETATM    6  C9  UNL     1      22.842   5.072  48.697  1.00  0.00     0.097 C 
HETATM    7  N1  UNL     1      23.433   5.734  47.978  1.00  0.00    -0.192 NA
HETATM    8  C10 UNL     1      20.896   3.234  49.504  1.00  0.00     0.170 C 
HETATM    9  N2  UNL     1      21.260   2.108  50.462  1.00  0.00    -0.387 N 
HETATM   10  C11 UNL     1      24.017   4.383  51.264  1.00  0.00     0.039 C 
HETATM   11  C12 UNL     1      24.275   3.242  52.029  1.00  0.00     0.043 C 
HETATM   12  H12 UNL     1      21.242   1.063  50.757  1.00  0.00     0.159 HD
ENDROOT
BRANCH  11  13
HETATM   13  N3  UNL     1      25.481   2.978  52.643  1.00  0.00    -0.323 N 
HETATM   14  C13 UNL     1      26.611   2.550  51.903  1.00  0.00     0.247 C 
HETATM   15  O1  UNL     1      26.787   2.333  50.694  1.00  0.00    -0.268 OA
HETATM   16  H14 UNL     1      25.537   3.103  53.673  1.00  0.00     0.169 HD
BRANCH  14  17
HETATM   17  C14 UNL     1      27.839   2.303  52.676  1.00  0.00     0.098 C 
HETATM   18  C15 UNL     1      28.090   1.318  53.524  1.00  0.00     0.010 C 
HETATM   19  C16 UNL     1      29.312   1.033  54.323  1.00  0.00     0.068 C 
BRANCH  18  20
HETATM   20  N4  UNL     1      27.208   0.237  53.898  1.00  0.00    -0.361 N 
HETATM   21  C17 UNL     1      26.376  -0.017  55.062  1.00  0.00     0.151 C 
HETATM   22  C18 UNL     1      25.246  -0.807  54.435  1.00  0.00     0.189 C 
HETATM   23  O2  UNL     1      25.679  -1.311  53.234  1.00  0.00    -0.370 OA
HETATM   24  C19 UNL     1      26.984  -0.938  53.040  1.00  0.00     0.292 C 
ENDBRANCH  18  20
ENDBRANCH  14  17
ENDBRANCH  11  13
BRANCH   1  25
HETATM   25  C3  UNL     1      23.066   0.894  52.693  1.00  0.00     0.042 C 
BRANCH  25  26
HETATM   26  C2  UNL     1      21.841   0.646  53.562  1.00  0.00     0.000 C 
HETATM   27  C1  UNL     1      21.680  -0.846  53.757  1.00  0.00     0.005 C 
ENDBRANCH  25  26
ENDBRANCH   1  25
TORSDOF 5
ENDMDL
