MODEL 1
REMARK VINA RESULT:      -8.8      0.000      0.000
REMARK  4 active torsions:
REMARK  status: ('A' for Active; 'I' for Inactive)
REMARK    1  A    between atoms: C5_5  and  N1_6 
REMARK    2  A    between atoms: N1_6  and  C6_7 
REMARK    3  A    between atoms: C13_17  and  O2_18 
REMARK    4  A    between atoms: O2_18  and  C14_19 
ROOT
HETATM    1  C1  UNL     1      30.151  -0.806  53.762  1.00  0.00     0.049 C 
HETATM    2  C2  UNL     1      29.045   0.177  53.600  1.00  0.00    -0.041 A 
HETATM    3  C3  UNL     1      29.302   1.504  53.888  1.00  0.00     0.010 A 
HETATM    4  C4  UNL     1      28.267   2.408  53.734  1.00  0.00     0.030 A 
HETATM    5  C5  UNL     1      27.042   1.965  53.307  1.00  0.00     0.035 A 
HETATM    6  C19 UNL     1      26.817   0.618  53.025  1.00  0.00     0.052 A 
HETATM    7  C20 UNL     1      27.829  -0.310  53.169  1.00  0.00     0.052 A 
HETATM    8  C21 UNL     1      27.630  -1.716  52.887  1.00  0.00     0.100 C 
HETATM    9  N4  UNL     1      27.460  -2.848  52.678  1.00  0.00    -0.191 NA
ENDROOT
BRANCH   5  10
HETATM   10  N1  UNL     1      25.871   2.722  53.096  1.00  0.00    -0.340 N 
HETATM   11  H6  UNL     1      25.148   3.189  53.648  1.00  0.00     0.167 HD
BRANCH  10  12
HETATM   12  C6  UNL     1      25.836   2.748  51.691  1.00  0.00     0.142 C 
HETATM   13  N2  UNL     1      26.622   2.855  50.599  1.00  0.00    -0.224 NA
HETATM   14  C7  UNL     1      26.478   4.055  49.650  1.00  0.00     0.232 C 
HETATM   15  N3  UNL     1      25.322   4.573  49.145  1.00  0.00    -0.244 NA
HETATM   16  C8  UNL     1      24.009   4.200  48.868  1.00  0.00     0.311 C 
HETATM   17  O1  UNL     1      24.114   2.702  48.990  1.00  0.00    -0.319 OA
HETATM   18  C17 UNL     1      22.840   4.492  49.845  1.00  0.00     0.130 C 
HETATM   19  C9  UNL     1      23.474   2.526  50.303  1.00  0.00     0.087 C 
HETATM   20  C10 UNL     1      24.378   2.716  51.327  1.00  0.00     0.042 C 
HETATM   21  C18 UNL     1      22.104   2.237  49.758  1.00  0.00     0.241 C 
HETATM   22  C11 UNL     1      23.743   3.298  52.627  1.00  0.00     0.021 C 
HETATM   23  C12 UNL     1      23.185   4.635  52.365  1.00  0.00     0.040 C 
HETATM   24  C13 UNL     1      22.669   5.286  51.009  1.00  0.00     0.103 C 
HETATM   25  O3  UNL     1      21.736   3.632  49.258  1.00  0.00    -0.342 OA
BRANCH  24  26
HETATM   26  O2  UNL     1      22.150   6.516  51.230  1.00  0.00    -0.344 OA
BRANCH  26  27
HETATM   27  C14 UNL     1      22.679   7.760  50.859  1.00  0.00     0.121 C 
HETATM   28  C15 UNL     1      24.176   7.716  50.660  1.00  0.00     0.040 C 
HETATM   29  C16 UNL     1      21.989   8.249  49.594  1.00  0.00     0.040 C 
ENDBRANCH  26  27
ENDBRANCH  24  26
ENDBRANCH  10  12
ENDBRANCH   5  10
TORSDOF 4
ENDMDL
MODEL 2
REMARK VINA RESULT:      -8.2      2.787      4.492
REMARK  4 active torsions:
REMARK  status: ('A' for Active; 'I' for Inactive)
REMARK    1  A    between atoms: C5_5  and  N1_6 
REMARK    2  A    between atoms: N1_6  and  C6_7 
REMARK    3  A    between atoms: C13_17  and  O2_18 
REMARK    4  A    between atoms: O2_18  and  C14_19 
ROOT
HETATM    1  C1  UNL     1      29.032   0.462  53.662  1.00  0.00     0.049 C 
HETATM    2  C2  UNL     1      27.560   0.645  53.535  1.00  0.00    -0.041 A 
HETATM    3  C3  UNL     1      27.032   1.896  53.791  1.00  0.00     0.010 A 
HETATM    4  C4  UNL     1      25.664   2.054  53.670  1.00  0.00     0.030 A 
HETATM    5  C5  UNL     1      24.891   0.983  53.303  1.00  0.00     0.035 A 
HETATM    6  C19 UNL     1      25.457  -0.267  53.051  1.00  0.00     0.052 A 
HETATM    7  C20 UNL     1      26.820  -0.457  53.165  1.00  0.00     0.052 A 
HETATM    8  C21 UNL     1      27.441  -1.741  52.913  1.00  0.00     0.100 C 
HETATM    9  N4  UNL     1      27.933  -2.779  52.728  1.00  0.00    -0.191 NA
ENDROOT
BRANCH   5  10
HETATM   10  N1  UNL     1      23.491   0.940  53.133  1.00  0.00    -0.340 N 
HETATM   11  H6  UNL     1      22.700   0.355  53.412  1.00  0.00     0.167 HD
BRANCH  10  12
HETATM   12  C6  UNL     1      23.298   2.087  52.343  1.00  0.00     0.142 C 
HETATM   13  N2  UNL     1      23.413   3.432  52.357  1.00  0.00    -0.224 NA
HETATM   14  C7  UNL     1      22.168   4.321  52.219  1.00  0.00     0.232 C 
HETATM   15  N3  UNL     1      21.158   4.192  51.311  1.00  0.00    -0.244 NA
HETATM   16  C8  UNL     1      20.909   3.653  50.051  1.00  0.00     0.311 C 
HETATM   17  O1  UNL     1      22.314   3.381  49.583  1.00  0.00    -0.319 OA
HETATM   18  C17 UNL     1      20.261   2.257  49.860  1.00  0.00     0.130 C 
HETATM   19  C9  UNL     1      22.348   1.921  49.770  1.00  0.00     0.087 C 
HETATM   20  C10 UNL     1      22.672   1.593  51.070  1.00  0.00     0.042 C 
HETATM   21  C18 UNL     1      21.969   1.586  48.355  1.00  0.00     0.241 C 
HETATM   22  C11 UNL     1      22.023   0.264  51.563  1.00  0.00     0.021 C 
HETATM   23  C12 UNL     1      20.555   0.382  51.559  1.00  0.00     0.040 C 
HETATM   24  C13 UNL     1      19.602   1.323  50.703  1.00  0.00     0.103 C 
HETATM   25  O3  UNL     1      20.503   2.013  48.382  1.00  0.00    -0.342 OA
BRANCH  24  26
HETATM   26  O2  UNL     1      18.301   1.046  50.949  1.00  0.00    -0.344 OA
BRANCH  26  27
HETATM   27  C14 UNL     1      17.661  -0.200  50.933  1.00  0.00     0.121 C 
HETATM   28  C15 UNL     1      16.937  -0.497  52.225  1.00  0.00     0.040 C 
HETATM   29  C16 UNL     1      16.697  -0.262  49.757  1.00  0.00     0.040 C 
ENDBRANCH  26  27
ENDBRANCH  24  26
ENDBRANCH  10  12
ENDBRANCH   5  10
TORSDOF 4
ENDMDL
MODEL 3
REMARK VINA RESULT:      -8.0      2.821      4.669
REMARK  4 active torsions:
REMARK  status: ('A' for Active; 'I' for Inactive)
REMARK    1  A    between atoms: C5_5  and  N1_6 
REMARK    2  A    between atoms: N1_6  and  C6_7 
REMARK    3  A    between atoms: C13_17  and  O2_18 
REMARK    4  A    between atoms: O2_18  and  C14_19 
ROOT
HETATM    1  C1  UNL     1      21.942  -1.402  54.543  1.00  0.00     0.049 C 
HETATM    2  C2  UNL     1      22.633  -0.459  53.621  1.00  0.00    -0.041 A 
HETATM    3  C3  UNL     1      21.904   0.095  52.586  1.00  0.00     0.010 A 
HETATM    4  C4  UNL     1      22.556   0.969  51.736  1.00  0.00     0.030 A 
HETATM    5  C5  UNL     1      23.880   1.254  51.947  1.00  0.00     0.035 A 
HETATM    6  C19 UNL     1      24.586   0.677  53.003  1.00  0.00     0.052 A 
HETATM    7  C20 UNL     1      23.964  -0.201  53.868  1.00  0.00     0.052 A 
HETATM    8  C21 UNL     1      24.666  -0.820  54.973  1.00  0.00     0.100 C 
HETATM    9  N4  UNL     1      25.240  -1.329  55.848  1.00  0.00    -0.191 NA
ENDROOT
BRANCH   5  10
HETATM   10  N1  UNL     1      24.715   2.107  51.196  1.00  0.00    -0.340 N 
HETATM   11  H6  UNL     1      25.437   2.036  50.475  1.00  0.00     0.167 HD
BRANCH  10  12
HETATM   12  C6  UNL     1      24.316   3.358  51.696  1.00  0.00     0.142 C 
HETATM   13  N2  UNL     1      23.738   3.953  52.761  1.00  0.00    -0.224 NA
HETATM   14  C7  UNL     1      22.392   4.677  52.613  1.00  0.00     0.232 C 
HETATM   15  N3  UNL     1      22.034   5.563  51.640  1.00  0.00    -0.244 NA
HETATM   16  C8  UNL     1      22.607   6.450  50.731  1.00  0.00     0.311 C 
HETATM   17  O1  UNL     1      24.016   6.517  51.260  1.00  0.00    -0.319 OA
HETATM   18  C17 UNL     1      22.868   6.068  49.251  1.00  0.00     0.130 C 
HETATM   19  C9  UNL     1      24.686   5.671  50.259  1.00  0.00     0.087 C 
HETATM   20  C10 UNL     1      24.580   4.335  50.586  1.00  0.00     0.042 C 
HETATM   21  C18 UNL     1      25.120   6.807  49.377  1.00  0.00     0.241 C 
HETATM   22  C11 UNL     1      24.536   3.387  49.349  1.00  0.00     0.021 C 
HETATM   23  C12 UNL     1      23.342   3.670  48.535  1.00  0.00     0.040 C 
HETATM   24  C13 UNL     1      22.482   5.000  48.399  1.00  0.00     0.103 C 
HETATM   25  O3  UNL     1      23.764   7.207  48.800  1.00  0.00    -0.342 OA
BRANCH  24  26
HETATM   26  O2  UNL     1      21.512   4.856  47.467  1.00  0.00    -0.344 OA
BRANCH  26  27
HETATM   27  C14 UNL     1      21.201   3.720  46.708  1.00  0.00     0.121 C 
HETATM   28  C15 UNL     1      19.723   3.406  46.712  1.00  0.00     0.040 C 
HETATM   29  C16 UNL     1      21.699   3.908  45.282  1.00  0.00     0.040 C 
ENDBRANCH  26  27
ENDBRANCH  24  26
ENDBRANCH  10  12
ENDBRANCH   5  10
TORSDOF 4
ENDMDL
MODEL 4
REMARK VINA RESULT:      -7.8      3.640      6.720
REMARK  4 active torsions:
REMARK  status: ('A' for Active; 'I' for Inactive)
REMARK    1  A    between atoms: C5_5  and  N1_6 
REMARK    2  A    between atoms: N1_6  and  C6_7 
REMARK    3  A    between atoms: C13_17  and  O2_18 
REMARK    4  A    between atoms: O2_18  and  C14_19 
ROOT
HETATM    1  C1  UNL     1      26.160   6.177  49.399  1.00  0.00     0.049 C 
HETATM    2  C2  UNL     1      24.969   5.370  49.016  1.00  0.00    -0.041 A 
HETATM    3  C3  UNL     1      23.979   5.979  48.268  1.00  0.00     0.010 A 
HETATM    4  C4  UNL     1      22.878   5.221  47.918  1.00  0.00     0.030 A 
HETATM    5  C5  UNL     1      22.807   3.911  48.318  1.00  0.00     0.035 A 
HETATM    6  C19 UNL     1      23.824   3.327  49.072  1.00  0.00     0.052 A 
HETATM    7  C20 UNL     1      24.937   4.059  49.438  1.00  0.00     0.052 A 
HETATM    8  C21 UNL     1      26.011   3.486  50.222  1.00  0.00     0.100 C 
HETATM    9  N4  UNL     1      26.862   3.026  50.869  1.00  0.00    -0.191 NA
ENDROOT
BRANCH   5  10
HETATM   10  N1  UNL     1      21.774   2.983  48.070  1.00  0.00    -0.340 N 
HETATM   11  H6  UNL     1      21.589   2.183  47.460  1.00  0.00     0.167 HD
BRANCH  10  12
HETATM   12  C6  UNL     1      20.814   3.419  48.999  1.00  0.00     0.142 C 
HETATM   13  N2  UNL     1      20.413   4.499  49.702  1.00  0.00    -0.224 NA
HETATM   14  C7  UNL     1      20.470   4.494  51.237  1.00  0.00     0.232 C 
HETATM   15  N3  UNL     1      20.039   3.508  52.076  1.00  0.00    -0.244 NA
HETATM   16  C8  UNL     1      19.144   2.442  52.109  1.00  0.00     0.311 C 
HETATM   17  O1  UNL     1      18.316   2.737  50.885  1.00  0.00    -0.319 OA
HETATM   18  C17 UNL     1      19.582   0.982  51.822  1.00  0.00     0.130 C 
HETATM   19  C9  UNL     1      18.877   1.728  49.971  1.00  0.00     0.087 C 
HETATM   20  C10 UNL     1      20.023   2.193  49.360  1.00  0.00     0.042 C 
HETATM   21  C18 UNL     1      17.832   0.686  50.247  1.00  0.00     0.241 C 
HETATM   22  C11 UNL     1      21.057   1.074  49.030  1.00  0.00     0.021 C 
HETATM   23  C12 UNL     1      21.526   0.432  50.269  1.00  0.00     0.040 C 
HETATM   24  C13 UNL     1      20.823   0.306  51.690  1.00  0.00     0.103 C 
HETATM   25  O3  UNL     1      18.240   0.291  51.664  1.00  0.00    -0.342 OA
BRANCH  24  26
HETATM   26  O2  UNL     1      21.568  -0.446  52.533  1.00  0.00    -0.344 OA
BRANCH  26  27
HETATM   27  C14 UNL     1      22.278  -0.031  53.668  1.00  0.00     0.121 C 
HETATM   28  C15 UNL     1      21.967  -0.870  54.884  1.00  0.00     0.040 C 
HETATM   29  C16 UNL     1      23.770  -0.057  53.372  1.00  0.00     0.040 C 
ENDBRANCH  26  27
ENDBRANCH  24  26
ENDBRANCH  10  12
ENDBRANCH   5  10
TORSDOF 4
ENDMDL
MODEL 5
REMARK VINA RESULT:      -7.8      2.271      3.518
REMARK  4 active torsions:
REMARK  status: ('A' for Active; 'I' for Inactive)
REMARK    1  A    between atoms: C5_5  and  N1_6 
REMARK    2  A    between atoms: N1_6  and  C6_7 
REMARK    3  A    between atoms: C13_17  and  O2_18 
REMARK    4  A    between atoms: O2_18  and  C14_19 
ROOT
HETATM    1  C1  UNL     1      27.137  -0.977  52.666  1.00  0.00     0.049 C 
HETATM    2  C2  UNL     1      26.327   0.271  52.604  1.00  0.00    -0.041 A 
HETATM    3  C3  UNL     1      26.601   1.179  51.599  1.00  0.00     0.010 A 
HETATM    4  C4  UNL     1      25.842   2.334  51.551  1.00  0.00     0.030 A 
HETATM    5  C5  UNL     1      24.860   2.535  52.487  1.00  0.00     0.035 A 
HETATM    6  C19 UNL     1      24.610   1.597  53.488  1.00  0.00     0.052 A 
HETATM    7  C20 UNL     1      25.351   0.434  53.563  1.00  0.00     0.052 A 
HETATM    8  C21 UNL     1      25.120  -0.560  54.590  1.00  0.00     0.100 C 
HETATM    9  N4  UNL     1      24.944  -1.347  55.429  1.00  0.00    -0.191 NA
ENDROOT
BRANCH   5  10
HETATM   10  N1  UNL     1      23.992   3.640  52.610  1.00  0.00    -0.340 N 
HETATM   11  H6  UNL     1      23.859   4.448  53.222  1.00  0.00     0.167 HD
BRANCH  10  12
HETATM   12  C6  UNL     1      23.142   3.418  51.513  1.00  0.00     0.142 C 
HETATM   13  N2  UNL     1      22.558   2.440  50.788  1.00  0.00    -0.224 NA
HETATM   14  C7  UNL     1      22.911   2.255  49.304  1.00  0.00     0.232 C 
HETATM   15  N3  UNL     1      22.993   3.224  48.348  1.00  0.00    -0.244 NA
HETATM   16  C8  UNL     1      22.515   4.503  48.071  1.00  0.00     0.311 C 
HETATM   17  O1  UNL     1      21.416   4.616  49.095  1.00  0.00    -0.319 OA
HETATM   18  C17 UNL     1      23.337   5.780  48.382  1.00  0.00     0.130 C 
HETATM   19  C9  UNL     1      22.084   5.500  50.064  1.00  0.00     0.087 C 
HETATM   20  C10 UNL     1      22.877   4.778  50.932  1.00  0.00     0.042 C 
HETATM   21  C18 UNL     1      21.507   6.774  49.518  1.00  0.00     0.241 C 
HETATM   22  C11 UNL     1      24.132   5.556  51.431  1.00  0.00     0.021 C 
HETATM   23  C12 UNL     1      25.014   5.880  50.297  1.00  0.00     0.040 C 
HETATM   24  C13 UNL     1      24.680   6.054  48.752  1.00  0.00     0.103 C 
HETATM   25  O3  UNL     1      22.287   6.863  48.209  1.00  0.00    -0.342 OA
BRANCH  24  26
HETATM   26  O2  UNL     1      25.777   6.441  48.061  1.00  0.00    -0.344 OA
BRANCH  26  27
HETATM   27  C14 UNL     1      27.098   6.545  48.518  1.00  0.00     0.121 C 
HETATM   28  C15 UNL     1      27.830   5.225  48.477  1.00  0.00     0.040 C 
HETATM   29  C16 UNL     1      27.839   7.589  47.696  1.00  0.00     0.040 C 
ENDBRANCH  26  27
ENDBRANCH  24  26
ENDBRANCH  10  12
ENDBRANCH   5  10
TORSDOF 4
ENDMDL
MODEL 6
REMARK VINA RESULT:      -7.7      3.386      7.136
REMARK  4 active torsions:
REMARK  status: ('A' for Active; 'I' for Inactive)
REMARK    1  A    between atoms: C5_5  and  N1_6 
REMARK    2  A    between atoms: N1_6  and  C6_7 
REMARK    3  A    between atoms: C13_17  and  O2_18 
REMARK    4  A    between atoms: O2_18  and  C14_19 
ROOT
HETATM    1  C1  UNL     1      28.445   9.413  45.653  1.00  0.00     0.049 C 
HETATM    2  C2  UNL     1      28.045   8.377  46.644  1.00  0.00    -0.041 A 
HETATM    3  C3  UNL     1      26.701   8.234  46.935  1.00  0.00     0.010 A 
HETATM    4  C4  UNL     1      26.341   7.269  47.857  1.00  0.00     0.030 A 
HETATM    5  C5  UNL     1      27.313   6.499  48.442  1.00  0.00     0.035 A 
HETATM    6  C19 UNL     1      28.661   6.670  48.126  1.00  0.00     0.052 A 
HETATM    7  C20 UNL     1      29.053   7.626  47.209  1.00  0.00     0.052 A 
HETATM    8  C21 UNL     1      30.442   7.832  46.859  1.00  0.00     0.100 C 
HETATM    9  N4  UNL     1      31.562   8.007  46.595  1.00  0.00    -0.191 NA
ENDROOT
BRANCH   5  10
HETATM   10  N1  UNL     1      27.151   5.478  49.401  1.00  0.00    -0.340 N 
HETATM   11  H6  UNL     1      27.713   4.755  49.857  1.00  0.00     0.167 HD
BRANCH  10  12
HETATM   12  C6  UNL     1      25.790   5.635  49.711  1.00  0.00     0.142 C 
HETATM   13  N2  UNL     1      24.894   6.523  50.193  1.00  0.00    -0.224 NA
HETATM   14  C7  UNL     1      24.157   6.248  51.512  1.00  0.00     0.232 C 
HETATM   15  N3  UNL     1      23.548   5.088  51.890  1.00  0.00    -0.244 NA
HETATM   16  C8  UNL     1      22.977   3.945  51.336  1.00  0.00     0.311 C 
HETATM   17  O1  UNL     1      22.854   4.366  49.895  1.00  0.00    -0.319 OA
HETATM   18  C17 UNL     1      23.760   2.615  51.187  1.00  0.00     0.130 C 
HETATM   19  C9  UNL     1      23.979   3.604  49.329  1.00  0.00     0.087 C 
HETATM   20  C10 UNL     1      25.167   4.289  49.473  1.00  0.00     0.042 C 
HETATM   21  C18 UNL     1      23.153   2.425  48.901  1.00  0.00     0.241 C 
HETATM   22  C11 UNL     1      26.410   3.362  49.639  1.00  0.00     0.021 C 
HETATM   23  C12 UNL     1      26.287   2.561  50.868  1.00  0.00     0.040 C 
HETATM   24  C13 UNL     1      24.994   2.108  51.674  1.00  0.00     0.103 C 
HETATM   25  O3  UNL     1      22.842   1.826  50.272  1.00  0.00    -0.342 OA
BRANCH  24  26
HETATM   26  O2  UNL     1      25.326   1.299  52.707  1.00  0.00    -0.344 OA
BRANCH  26  27
HETATM   27  C14 UNL     1      25.356  -0.102  52.736  1.00  0.00     0.121 C 
HETATM   28  C15 UNL     1      26.695  -0.661  52.317  1.00  0.00     0.040 C 
HETATM   29  C16 UNL     1      24.990  -0.589  54.130  1.00  0.00     0.040 C 
ENDBRANCH  26  27
ENDBRANCH  24  26
ENDBRANCH  10  12
ENDBRANCH   5  10
TORSDOF 4
ENDMDL
MODEL 7
REMARK VINA RESULT:      -7.6      3.069      4.885
REMARK  4 active torsions:
REMARK  status: ('A' for Active; 'I' for Inactive)
REMARK    1  A    between atoms: C5_5  and  N1_6 
REMARK    2  A    between atoms: N1_6  and  C6_7 
REMARK    3  A    between atoms: C13_17  and  O2_18 
REMARK    4  A    between atoms: O2_18  and  C14_19 
ROOT
HETATM    1  C1  UNL     1      21.572  -1.298  54.488  1.00  0.00     0.049 C 
HETATM    2  C2  UNL     1      22.474  -0.436  53.677  1.00  0.00    -0.041 A 
HETATM    3  C3  UNL     1      23.806  -0.360  54.038  1.00  0.00     0.010 A 
HETATM    4  C4  UNL     1      24.634   0.445  53.278  1.00  0.00     0.030 A 
HETATM    5  C5  UNL     1      24.115   1.128  52.208  1.00  0.00     0.035 A 
HETATM    6  C19 UNL     1      22.765   1.029  51.871  1.00  0.00     0.052 A 
HETATM    7  C20 UNL     1      21.912   0.234  52.612  1.00  0.00     0.052 A 
HETATM    8  C21 UNL     1      20.505   0.109  52.292  1.00  0.00     0.100 C 
HETATM    9  N4  UNL     1      19.372   0.027  52.042  1.00  0.00    -0.191 NA
ENDROOT
BRANCH   5  10
HETATM   10  N1  UNL     1      24.788   1.995  51.323  1.00  0.00    -0.340 N 
HETATM   11  H6  UNL     1      25.421   1.936  50.521  1.00  0.00     0.167 HD
BRANCH  10  12
HETATM   12  C6  UNL     1      24.363   3.240  51.816  1.00  0.00     0.142 C 
HETATM   13  N2  UNL     1      23.717   3.822  52.849  1.00  0.00    -0.224 NA
HETATM   14  C7  UNL     1      22.388   4.558  52.622  1.00  0.00     0.232 C 
HETATM   15  N3  UNL     1      22.103   5.462  51.641  1.00  0.00    -0.244 NA
HETATM   16  C8  UNL     1      22.741   6.359  50.789  1.00  0.00     0.311 C 
HETATM   17  O1  UNL     1      24.111   6.408  51.413  1.00  0.00    -0.319 OA
HETATM   18  C17 UNL     1      23.100   6.000  49.324  1.00  0.00     0.130 C 
HETATM   19  C9  UNL     1      24.842   5.574  50.446  1.00  0.00     0.087 C 
HETATM   20  C10 UNL     1      24.708   4.233  50.743  1.00  0.00     0.042 C 
HETATM   21  C18 UNL     1      25.342   6.721  49.615  1.00  0.00     0.241 C 
HETATM   22  C11 UNL     1      24.742   3.306  49.490  1.00  0.00     0.021 C 
HETATM   23  C12 UNL     1      23.608   3.610  48.601  1.00  0.00     0.040 C 
HETATM   24  C13 UNL     1      22.767   4.948  48.430  1.00  0.00     0.103 C 
HETATM   25  O3  UNL     1      24.031   7.139  48.953  1.00  0.00    -0.342 OA
BRANCH  24  26
HETATM   26  O2  UNL     1      21.861   4.825  47.431  1.00  0.00    -0.344 OA
BRANCH  26  27
HETATM   27  C14 UNL     1      21.980   5.240  46.098  1.00  0.00     0.121 C 
HETATM   28  C15 UNL     1      21.578   4.163  45.119  1.00  0.00     0.040 C 
HETATM   29  C16 UNL     1      21.146   6.494  45.879  1.00  0.00     0.040 C 
ENDBRANCH  26  27
ENDBRANCH  24  26
ENDBRANCH  10  12
ENDBRANCH   5  10
TORSDOF 4
ENDMDL
MODEL 8
REMARK VINA RESULT:      -7.6      8.003     11.378
REMARK  4 active torsions:
REMARK  status: ('A' for Active; 'I' for Inactive)
REMARK    1  A    between atoms: C5_5  and  N1_6 
REMARK    2  A    between atoms: N1_6  and  C6_7 
REMARK    3  A    between atoms: C13_17  and  O2_18 
REMARK    4  A    between atoms: O2_18  and  C14_19 
ROOT
HETATM    1  C1  UNL     1      27.597  13.619  48.427  1.00  0.00     0.049 C 
HETATM    2  C2  UNL     1      28.478  12.450  48.696  1.00  0.00    -0.041 A 
HETATM    3  C3  UNL     1      29.811  12.686  48.975  1.00  0.00     0.010 A 
HETATM    4  C4  UNL     1      30.620  11.593  49.223  1.00  0.00     0.030 A 
HETATM    5  C5  UNL     1      30.081  10.332  49.186  1.00  0.00     0.035 A 
HETATM    6  C19 UNL     1      28.731  10.130  48.902  1.00  0.00     0.052 A 
HETATM    7  C20 UNL     1      27.897  11.201  48.648  1.00  0.00     0.052 A 
HETATM    8  C21 UNL     1      26.491  11.028  48.348  1.00  0.00     0.100 C 
HETATM    9  N4  UNL     1      25.367  10.882  48.088  1.00  0.00    -0.191 NA
ENDROOT
BRANCH   5  10
HETATM   10  N1  UNL     1      30.736   9.102  49.403  1.00  0.00    -0.340 N 
HETATM   11  H6  UNL     1      30.745   8.347  50.093  1.00  0.00     0.167 HD
BRANCH  10  12
HETATM   12  C6  UNL     1      31.564   9.052  48.268  1.00  0.00     0.142 C 
HETATM   13  N2  UNL     1      31.645   9.449  46.980  1.00  0.00    -0.224 NA
HETATM   14  C7  UNL     1      31.684   8.413  45.847  1.00  0.00     0.232 C 
HETATM   15  N3  UNL     1      32.452   7.288  45.784  1.00  0.00    -0.244 NA
HETATM   16  C8  UNL     1      33.638   6.767  46.297  1.00  0.00     0.311 C 
HETATM   17  O1  UNL     1      34.257   8.010  46.882  1.00  0.00    -0.319 OA
HETATM   18  C17 UNL     1      33.666   5.820  47.524  1.00  0.00     0.130 C 
HETATM   19  C9  UNL     1      33.988   7.759  48.307  1.00  0.00     0.087 C 
HETATM   20  C10 UNL     1      32.720   8.175  48.655  1.00  0.00     0.042 C 
HETATM   21  C18 UNL     1      35.323   7.136  48.598  1.00  0.00     0.241 C 
HETATM   22  C11 UNL     1      32.073   7.331  49.796  1.00  0.00     0.021 C 
HETATM   23  C12 UNL     1      31.906   5.934  49.362  1.00  0.00     0.040 C 
HETATM   24  C13 UNL     1      32.695   5.096  48.265  1.00  0.00     0.103 C 
HETATM   25  O3  UNL     1      35.145   5.809  47.862  1.00  0.00    -0.342 OA
BRANCH  24  26
HETATM   26  O2  UNL     1      32.276   3.810  48.245  1.00  0.00    -0.344 OA
BRANCH  26  27
HETATM   27  C14 UNL     1      32.825   2.731  47.539  1.00  0.00     0.121 C 
HETATM   28  C15 UNL     1      33.219   1.587  48.444  1.00  0.00     0.040 C 
HETATM   29  C16 UNL     1      31.836   2.257  46.485  1.00  0.00     0.040 C 
ENDBRANCH  26  27
ENDBRANCH  24  26
ENDBRANCH  10  12
ENDBRANCH   5  10
TORSDOF 4
ENDMDL
MODEL 9
REMARK VINA RESULT:      -7.5      2.429      3.262
REMARK  4 active torsions:
REMARK  status: ('A' for Active; 'I' for Inactive)
REMARK    1  A    between atoms: C5_5  and  N1_6 
REMARK    2  A    between atoms: N1_6  and  C6_7 
REMARK    3  A    between atoms: C13_17  and  O2_18 
REMARK    4  A    between atoms: O2_18  and  C14_19 
ROOT
HETATM    1  C1  UNL     1      27.537  -0.669  52.858  1.00  0.00     0.049 C 
HETATM    2  C2  UNL     1      26.538   0.408  52.617  1.00  0.00    -0.041 A 
HETATM    3  C3  UNL     1      26.762   1.287  51.574  1.00  0.00     0.010 A 
HETATM    4  C4  UNL     1      25.828   2.283  51.360  1.00  0.00     0.030 A 
HETATM    5  C5  UNL     1      24.728   2.363  52.174  1.00  0.00     0.035 A 
HETATM    6  C19 UNL     1      24.532   1.460  53.218  1.00  0.00     0.052 A 
HETATM    7  C20 UNL     1      25.447   0.454  53.459  1.00  0.00     0.052 A 
HETATM    8  C21 UNL     1      25.277  -0.500  54.535  1.00  0.00     0.100 C 
HETATM    9  N4  UNL     1      25.145  -1.253  55.413  1.00  0.00    -0.191 NA
ENDROOT
BRANCH   5  10
HETATM   10  N1  UNL     1      23.676   3.301  52.122  1.00  0.00    -0.340 N 
HETATM   11  H6  UNL     1      23.437   4.212  52.522  1.00  0.00     0.167 HD
BRANCH  10  12
HETATM   12  C6  UNL     1      22.802   2.653  51.233  1.00  0.00     0.142 C 
HETATM   13  N2  UNL     1      22.768   1.761  50.220  1.00  0.00    -0.224 NA
HETATM   14  C7  UNL     1      22.305   2.192  48.820  1.00  0.00     0.232 C 
HETATM   15  N3  UNL     1      21.202   2.930  48.506  1.00  0.00    -0.244 NA
HETATM   16  C8  UNL     1      19.949   3.260  49.018  1.00  0.00     0.311 C 
HETATM   17  O1  UNL     1      19.825   2.244  50.123  1.00  0.00    -0.319 OA
HETATM   18  C17 UNL     1      19.693   4.575  49.799  1.00  0.00     0.130 C 
HETATM   19  C9  UNL     1      20.093   3.117  51.278  1.00  0.00     0.087 C 
HETATM   20  C10 UNL     1      21.449   3.251  51.496  1.00  0.00     0.042 C 
HETATM   21  C18 UNL     1      18.651   3.405  51.580  1.00  0.00     0.241 C 
HETATM   22  C11 UNL     1      21.855   4.629  52.102  1.00  0.00     0.021 C 
HETATM   23  C12 UNL     1      21.515   5.715  51.167  1.00  0.00     0.040 C 
HETATM   24  C13 UNL     1      20.416   5.778  50.020  1.00  0.00     0.103 C 
HETATM   25  O3  UNL     1      18.323   4.310  50.394  1.00  0.00    -0.342 OA
BRANCH  24  26
HETATM   26  O2  UNL     1      20.378   7.006  49.453  1.00  0.00    -0.344 OA
BRANCH  26  27
HETATM   27  C14 UNL     1      20.792   8.227  50.001  1.00  0.00     0.121 C 
HETATM   28  C15 UNL     1      21.962   8.828  49.258  1.00  0.00     0.040 C 
HETATM   29  C16 UNL     1      19.621   9.198  50.023  1.00  0.00     0.040 C 
ENDBRANCH  26  27
ENDBRANCH  24  26
ENDBRANCH  10  12
ENDBRANCH   5  10
TORSDOF 4
ENDMDL
