MODEL 1
REMARK VINA RESULT:      -7.1      0.000      0.000
REMARK  6 active torsions:
REMARK  status: ('A' for Active; 'I' for Inactive)
REMARK    1  A    between atoms: C2_2  and  C3_3 
REMARK    2  A    between atoms: C3_3  and  O1_4 
REMARK    3  A    between atoms: O1_4  and  C4_5 
REMARK    4  A    between atoms: N2_18  and  C14_19 
REMARK    5  A    between atoms: C14_19  and  C18_24 
REMARK    6  A    between atoms: C15_20  and  C16_21 
ROOT
HETATM    1  C4  UNL     1      25.746  -0.067  53.657  1.00  0.00     0.071 C 
HETATM    2  C5  UNL     1      25.726   1.094  52.993  1.00  0.00     0.064 C 
HETATM    3  C6  UNL     1      24.626   2.012  52.608  1.00  0.00     0.062 C 
HETATM    4  N1  UNL     1      24.554   3.288  52.716  1.00  0.00    -0.261 NA
HETATM    5  C7  UNL     1      23.274   3.963  52.552  1.00  0.00     0.145 C 
HETATM    6  C8  UNL     1      22.833   2.780  52.356  1.00  0.00     0.062 C 
HETATM    7  C9  UNL     1      22.430   1.533  53.091  1.00  0.00     0.202 C 
HETATM    8  O2  UNL     1      21.261   0.926  53.042  1.00  0.00    -0.375 OA
HETATM    9  C10 UNL     1      21.168   0.208  54.292  1.00  0.00     0.195 C 
HETATM   10  C11 UNL     1      22.259  -0.871  54.359  1.00  0.00     0.194 C 
HETATM   11  O3  UNL     1      23.473  -0.403  54.203  1.00  0.00    -0.383 OA
HETATM   12  C12 UNL     1      24.652  -0.924  54.302  1.00  0.00     0.232 C 
HETATM   13  C13 UNL     1      23.512   1.115  52.101  1.00  0.00     0.176 C 
HETATM   14  N2  UNL     1      22.625   1.945  51.186  1.00  0.00    -0.336 N 
ENDROOT
BRANCH  14  15
HETATM   15  C14 UNL     1      22.111   1.613  49.871  1.00  0.00     0.026 C 
HETATM   16  C15 UNL     1      22.545   2.408  48.907  1.00  0.00     0.028 C 
BRANCH  16  17
HETATM   17  C16 UNL     1      22.472   2.668  47.480  1.00  0.00     0.031 C 
HETATM   18  C17 UNL     1      21.885   3.436  46.583  1.00  0.00     0.188 C 
HETATM   19  F1  UNL     1      22.233   3.207  45.299  1.00  0.00    -0.219 F 
ENDBRANCH  16  17
BRANCH  15  20
HETATM   20  C18 UNL     1      21.172   0.522  49.579  1.00  0.00     0.171 C 
HETATM   21 CL1  UNL     1      19.512   0.811  50.096  1.00  0.00    -0.124 Cl
ENDBRANCH  15  20
ENDBRANCH  14  15
BRANCH   1  22
HETATM   22  O1  UNL     1      27.029  -0.632  53.809  1.00  0.00    -0.353 OA
BRANCH  22  23
HETATM   23  C3  UNL     1      27.951   0.047  54.604  1.00  0.00     0.175 C 
BRANCH  23  24
HETATM   24  C2  UNL     1      29.334   0.148  53.960  1.00  0.00     0.022 C 
HETATM   25  C1  UNL     1      29.776  -1.225  53.490  1.00  0.00     0.007 C 
ENDBRANCH  23  24
ENDBRANCH  22  23
ENDBRANCH   1  22
TORSDOF 6
ENDMDL
MODEL 2
REMARK VINA RESULT:      -6.8      3.655      7.259
REMARK  6 active torsions:
REMARK  status: ('A' for Active; 'I' for Inactive)
REMARK    1  A    between atoms: C2_2  and  C3_3 
REMARK    2  A    between atoms: C3_3  and  O1_4 
REMARK    3  A    between atoms: O1_4  and  C4_5 
REMARK    4  A    between atoms: N2_18  and  C14_19 
REMARK    5  A    between atoms: C14_19  and  C18_24 
REMARK    6  A    between atoms: C15_20  and  C16_21 
ROOT
HETATM    1  C4  UNL     1      21.908   2.636  49.138  1.00  0.00     0.071 C 
HETATM    2  C5  UNL     1      22.050   1.470  49.779  1.00  0.00     0.064 C 
HETATM    3  C6  UNL     1      22.544   1.124  51.135  1.00  0.00     0.062 C 
HETATM    4  N1  UNL     1      22.039   0.331  52.009  1.00  0.00    -0.261 NA
HETATM    5  C7  UNL     1      22.520   0.359  53.383  1.00  0.00     0.145 C 
HETATM    6  C8  UNL     1      23.299   1.272  52.945  1.00  0.00     0.062 C 
HETATM    7  C9  UNL     1      23.322   2.731  52.583  1.00  0.00     0.202 C 
HETATM    8  O2  UNL     1      24.111   3.660  53.086  1.00  0.00    -0.375 OA
HETATM    9  C10 UNL     1      23.384   4.895  52.900  1.00  0.00     0.195 C 
HETATM   10  C11 UNL     1      23.211   5.181  51.401  1.00  0.00     0.194 C 
HETATM   11  O3  UNL     1      22.619   4.213  50.745  1.00  0.00    -0.383 OA
HETATM   12  C12 UNL     1      22.183   4.089  49.535  1.00  0.00     0.232 C 
HETATM   13  C13 UNL     1      23.783   1.974  51.342  1.00  0.00     0.176 C 
HETATM   14  N2  UNL     1      24.644   1.297  52.397  1.00  0.00    -0.336 N 
ENDROOT
BRANCH  14  15
HETATM   15  C14 UNL     1      26.070   1.032  52.376  1.00  0.00     0.026 C 
HETATM   16  C15 UNL     1      26.387  -0.227  52.631  1.00  0.00     0.028 C 
BRANCH  16  17
HETATM   17  C16 UNL     1      27.500  -1.150  52.769  1.00  0.00     0.031 C 
HETATM   18  C17 UNL     1      28.692  -1.280  53.316  1.00  0.00     0.188 C 
HETATM   19  F1  UNL     1      29.316  -2.455  53.088  1.00  0.00    -0.219 F 
ENDBRANCH  16  17
BRANCH  15  20
HETATM   20  C18 UNL     1      27.114   2.034  52.125  1.00  0.00     0.171 C 
HETATM   21 CL1  UNL     1      28.156   2.382  53.503  1.00  0.00    -0.124 Cl
ENDBRANCH  15  20
ENDBRANCH  14  15
BRANCH   1  22
HETATM   22  O1  UNL     1      21.397   2.524  47.829  1.00  0.00    -0.353 OA
BRANCH  22  23
HETATM   23  C3  UNL     1      22.081   3.173  46.803  1.00  0.00     0.175 C 
BRANCH  23  24
HETATM   24  C2  UNL     1      21.148   3.797  45.764  1.00  0.00     0.022 C 
HETATM   25  C1  UNL     1      20.253   4.820  46.438  1.00  0.00     0.007 C 
ENDBRANCH  23  24
ENDBRANCH  22  23
ENDBRANCH   1  22
TORSDOF 6
ENDMDL
MODEL 3
REMARK VINA RESULT:      -6.8      3.600      6.053
REMARK  6 active torsions:
REMARK  status: ('A' for Active; 'I' for Inactive)
REMARK    1  A    between atoms: C2_2  and  C3_3 
REMARK    2  A    between atoms: C3_3  and  O1_4 
REMARK    3  A    between atoms: O1_4  and  C4_5 
REMARK    4  A    between atoms: N2_18  and  C14_19 
REMARK    5  A    between atoms: C14_19  and  C18_24 
REMARK    6  A    between atoms: C15_20  and  C16_21 
ROOT
HETATM    1  C4  UNL     1      20.904   0.851  51.765  1.00  0.00     0.071 C 
HETATM    2  C5  UNL     1      21.497   1.833  52.452  1.00  0.00     0.064 C 
HETATM    3  C6  UNL     1      22.284   3.019  52.033  1.00  0.00     0.062 C 
HETATM    4  N1  UNL     1      22.193   4.238  52.423  1.00  0.00    -0.261 NA
HETATM    5  C7  UNL     1      22.857   5.295  51.673  1.00  0.00     0.145 C 
HETATM    6  C8  UNL     1      23.238   4.334  50.923  1.00  0.00     0.062 C 
HETATM    7  C9  UNL     1      22.755   3.434  49.821  1.00  0.00     0.202 C 
HETATM    8  O2  UNL     1      23.291   3.286  48.626  1.00  0.00    -0.375 OA
HETATM    9  C10 UNL     1      22.202   2.837  47.790  1.00  0.00     0.195 C 
HETATM   10  C11 UNL     1      21.711   1.460  48.262  1.00  0.00     0.194 C 
HETATM   11  O3  UNL     1      21.346   1.434  49.520  1.00  0.00    -0.383 OA
HETATM   12  C12 UNL     1      20.780   0.546  50.270  1.00  0.00     0.232 C 
HETATM   13  C13 UNL     1      23.220   2.518  50.949  1.00  0.00     0.176 C 
HETATM   14  N2  UNL     1      24.404   3.470  50.877  1.00  0.00    -0.336 N 
ENDROOT
BRANCH  14  15
HETATM   15  C14 UNL     1      25.820   3.158  50.825  1.00  0.00     0.026 C 
HETATM   16  C15 UNL     1      26.279   2.557  51.911  1.00  0.00     0.028 C 
BRANCH  16  17
HETATM   17  C16 UNL     1      27.469   1.996  52.525  1.00  0.00     0.031 C 
HETATM   18  C17 UNL     1      28.416   2.255  53.406  1.00  0.00     0.188 C 
HETATM   19  F1  UNL     1      29.334   1.282  53.581  1.00  0.00    -0.219 F 
ENDBRANCH  16  17
BRANCH  15  20
HETATM   20  C18 UNL     1      26.717   3.479  49.708  1.00  0.00     0.171 C 
HETATM   21 CL1  UNL     1      26.409   5.029  48.928  1.00  0.00    -0.124 Cl
ENDBRANCH  15  20
ENDBRANCH  14  15
BRANCH   1  22
HETATM   22  O1  UNL     1      20.248  -0.108  52.565  1.00  0.00    -0.353 OA
BRANCH  22  23
HETATM   23  C3  UNL     1      20.498  -0.096  53.936  1.00  0.00     0.175 C 
BRANCH  23  24
HETATM   24  C2  UNL     1      21.103  -1.405  54.444  1.00  0.00     0.022 C 
HETATM   25  C1  UNL     1      22.514  -1.152  54.940  1.00  0.00     0.007 C 
ENDBRANCH  23  24
ENDBRANCH  22  23
ENDBRANCH   1  22
TORSDOF 6
ENDMDL
MODEL 4
REMARK VINA RESULT:      -6.6      2.273      2.786
REMARK  6 active torsions:
REMARK  status: ('A' for Active; 'I' for Inactive)
REMARK    1  A    between atoms: C2_2  and  C3_3 
REMARK    2  A    between atoms: C3_3  and  O1_4 
REMARK    3  A    between atoms: O1_4  and  C4_5 
REMARK    4  A    between atoms: N2_18  and  C14_19 
REMARK    5  A    between atoms: C14_19  and  C18_24 
REMARK    6  A    between atoms: C15_20  and  C16_21 
ROOT
HETATM    1  C4  UNL     1      25.651   0.453  52.549  1.00  0.00     0.071 C 
HETATM    2  C5  UNL     1      25.221   1.562  51.938  1.00  0.00     0.064 C 
HETATM    3  C6  UNL     1      23.909   2.256  51.923  1.00  0.00     0.062 C 
HETATM    4  N1  UNL     1      23.645   3.504  52.063  1.00  0.00    -0.261 NA
HETATM    5  C7  UNL     1      22.278   3.937  52.311  1.00  0.00     0.145 C 
HETATM    6  C8  UNL     1      22.018   2.687  52.247  1.00  0.00     0.062 C 
HETATM    7  C9  UNL     1      22.091   1.423  53.057  1.00  0.00     0.202 C 
HETATM    8  O2  UNL     1      21.091   0.620  53.364  1.00  0.00    -0.375 OA
HETATM    9  C10 UNL     1      21.517  -0.046  54.573  1.00  0.00     0.195 C 
HETATM   10  C11 UNL     1      22.751  -0.914  54.286  1.00  0.00     0.194 C 
HETATM   11  O3  UNL     1      23.754  -0.249  53.768  1.00  0.00    -0.383 OA
HETATM   12  C12 UNL     1      24.980  -0.551  53.491  1.00  0.00     0.232 C 
HETATM   13  C13 UNL     1      22.874   1.157  51.775  1.00  0.00     0.176 C 
HETATM   14  N2  UNL     1      21.614   1.778  51.189  1.00  0.00    -0.336 N 
ENDROOT
BRANCH  14  15
HETATM   15  C14 UNL     1      20.791   1.302  50.094  1.00  0.00     0.026 C 
HETATM   16  C15 UNL     1      19.565   0.956  50.454  1.00  0.00     0.028 C 
BRANCH  16  17
HETATM   17  C16 UNL     1      18.300   0.443  49.960  1.00  0.00     0.031 C 
HETATM   18  C17 UNL     1      17.023   0.749  49.830  1.00  0.00     0.188 C 
HETATM   19  F1  UNL     1      16.253  -0.194  49.247  1.00  0.00    -0.219 F 
ENDBRANCH  16  17
BRANCH  15  20
HETATM   20  C18 UNL     1      21.229   1.171  48.699  1.00  0.00     0.171 C 
HETATM   21 CL1  UNL     1      22.583   2.204  48.245  1.00  0.00    -0.124 Cl
ENDBRANCH  15  20
ENDBRANCH  14  15
BRANCH   1  22
HETATM   22  O1  UNL     1      26.999   0.128  52.290  1.00  0.00    -0.353 OA
BRANCH  22  23
HETATM   23  C3  UNL     1      27.843  -0.071  53.380  1.00  0.00     0.175 C 
BRANCH  23  24
HETATM   24  C2  UNL     1      29.049   0.870  53.381  1.00  0.00     0.022 C 
HETATM   25  C1  UNL     1      28.580   2.294  53.615  1.00  0.00     0.007 C 
ENDBRANCH  23  24
ENDBRANCH  22  23
ENDBRANCH   1  22
TORSDOF 6
ENDMDL
MODEL 5
REMARK VINA RESULT:      -6.3      3.760      5.611
REMARK  6 active torsions:
REMARK  status: ('A' for Active; 'I' for Inactive)
REMARK    1  A    between atoms: C2_2  and  C3_3 
REMARK    2  A    between atoms: C3_3  and  O1_4 
REMARK    3  A    between atoms: O1_4  and  C4_5 
REMARK    4  A    between atoms: N2_18  and  C14_19 
REMARK    5  A    between atoms: C14_19  and  C18_24 
REMARK    6  A    between atoms: C15_20  and  C16_21 
ROOT
HETATM    1  C4  UNL     1      23.843   0.962  52.527  1.00  0.00     0.071 C 
HETATM    2  C5  UNL     1      22.778   1.401  51.846  1.00  0.00     0.064 C 
HETATM    3  C6  UNL     1      22.636   2.305  50.678  1.00  0.00     0.062 C 
HETATM    4  N1  UNL     1      21.928   2.161  49.617  1.00  0.00    -0.261 NA
HETATM    5  C7  UNL     1      22.158   3.021  48.465  1.00  0.00     0.145 C 
HETATM    6  C8  UNL     1      23.057   3.542  49.208  1.00  0.00     0.062 C 
HETATM    7  C9  UNL     1      24.457   3.313  49.704  1.00  0.00     0.202 C 
HETATM    8  O2  UNL     1      25.490   4.120  49.561  1.00  0.00    -0.375 OA
HETATM    9  C10 UNL     1      26.643   3.254  49.639  1.00  0.00     0.195 C 
HETATM   10  C11 UNL     1      26.728   2.619  51.035  1.00  0.00     0.194 C 
HETATM   11  O3  UNL     1      25.651   1.958  51.379  1.00  0.00    -0.383 OA
HETATM   12  C12 UNL     1      25.349   1.198  52.380  1.00  0.00     0.232 C 
HETATM   13  C13 UNL     1      23.582   3.460  50.945  1.00  0.00     0.176 C 
HETATM   14  N2  UNL     1      23.098   4.656  50.139  1.00  0.00    -0.336 N 
ENDROOT
BRANCH  14  15
HETATM   15  C14 UNL     1      22.924   6.031  50.567  1.00  0.00     0.026 C 
HETATM   16  C15 UNL     1      21.706   6.506  50.366  1.00  0.00     0.028 C 
BRANCH  16  17
HETATM   17  C16 UNL     1      20.865   7.680  50.524  1.00  0.00     0.031 C 
HETATM   18  C17 UNL     1      20.126   8.539  49.849  1.00  0.00     0.188 C 
HETATM   19  F1  UNL     1      19.531   9.502  50.583  1.00  0.00    -0.219 F 
ENDBRANCH  16  17
BRANCH  15  20
HETATM   20  C18 UNL     1      23.973   6.875  51.152  1.00  0.00     0.171 C 
HETATM   21 CL1  UNL     1      24.440   8.265  50.174  1.00  0.00    -0.124 Cl
ENDBRANCH  15  20
ENDBRANCH  14  15
BRANCH   1  22
HETATM   22  O1  UNL     1      23.536   0.101  53.600  1.00  0.00    -0.353 OA
BRANCH  22  23
HETATM   23  C3  UNL     1      22.618  -0.923  53.373  1.00  0.00     0.175 C 
BRANCH  23  24
HETATM   24  C2  UNL     1      21.629  -1.104  54.525  1.00  0.00     0.022 C 
HETATM   25  C1  UNL     1      20.847   0.180  54.728  1.00  0.00     0.007 C 
ENDBRANCH  23  24
ENDBRANCH  22  23
ENDBRANCH   1  22
TORSDOF 6
ENDMDL
MODEL 6
REMARK VINA RESULT:      -6.2      9.950     11.478
REMARK  6 active torsions:
REMARK  status: ('A' for Active; 'I' for Inactive)
REMARK    1  A    between atoms: C2_2  and  C3_3 
REMARK    2  A    between atoms: C3_3  and  O1_4 
REMARK    3  A    between atoms: O1_4  and  C4_5 
REMARK    4  A    between atoms: N2_18  and  C14_19 
REMARK    5  A    between atoms: C14_19  and  C18_24 
REMARK    6  A    between atoms: C15_20  and  C16_21 
ROOT
HETATM    1  C4  UNL     1      27.839   6.707  48.303  1.00  0.00     0.071 C 
HETATM    2  C5  UNL     1      28.811   5.789  48.284  1.00  0.00     0.064 C 
HETATM    3  C6  UNL     1      30.291   5.893  48.265  1.00  0.00     0.062 C 
HETATM    4  N1  UNL     1      31.162   5.263  48.966  1.00  0.00    -0.261 NA
HETATM    5  C7  UNL     1      32.542   5.726  49.002  1.00  0.00     0.145 C 
HETATM    6  C8  UNL     1      32.114   6.632  48.210  1.00  0.00     0.062 C 
HETATM    7  C9  UNL     1      31.356   7.930  48.201  1.00  0.00     0.202 C 
HETATM    8  O2  UNL     1      31.774   9.089  47.731  1.00  0.00    -0.375 OA
HETATM    9  C10 UNL     1      31.011  10.075  48.460  1.00  0.00     0.195 C 
HETATM   10  C11 UNL     1      29.519   9.938  48.124  1.00  0.00     0.194 C 
HETATM   11  O3  UNL     1      29.035   8.742  48.353  1.00  0.00    -0.383 OA
HETATM   12  C12 UNL     1      27.845   8.238  48.324  1.00  0.00     0.232 C 
HETATM   13  C13 UNL     1      30.605   6.990  47.264  1.00  0.00     0.176 C 
HETATM   14  N2  UNL     1      32.027   6.775  46.767  1.00  0.00    -0.336 N 
ENDROOT
BRANCH  14  15
HETATM   15  C14 UNL     1      32.527   6.792  45.406  1.00  0.00     0.026 C 
HETATM   16  C15 UNL     1      32.773   5.590  44.909  1.00  0.00     0.028 C 
BRANCH  16  17
HETATM   17  C16 UNL     1      33.244   4.883  43.731  1.00  0.00     0.031 C 
HETATM   18  C17 UNL     1      34.161   4.918  42.784  1.00  0.00     0.188 C 
HETATM   19  F1  UNL     1      34.109   3.916  41.882  1.00  0.00    -0.219 F 
ENDBRANCH  16  17
BRANCH  15  20
HETATM   20  C18 UNL     1      32.780   8.000  44.611  1.00  0.00     0.171 C 
HETATM   21 CL1  UNL     1      34.483   8.385  44.367  1.00  0.00    -0.124 Cl
ENDBRANCH  15  20
ENDBRANCH  14  15
BRANCH   1  22
HETATM   22  O1  UNL     1      26.533   6.175  48.310  1.00  0.00    -0.353 OA
BRANCH  22  23
HETATM   23  C3  UNL     1      26.030   5.695  49.518  1.00  0.00     0.175 C 
BRANCH  23  24
HETATM   24  C2  UNL     1      25.400   4.307  49.393  1.00  0.00     0.022 C 
HETATM   25  C1  UNL     1      26.459   3.247  49.631  1.00  0.00     0.007 C 
ENDBRANCH  23  24
ENDBRANCH  22  23
ENDBRANCH   1  22
TORSDOF 6
ENDMDL
MODEL 7
REMARK VINA RESULT:      -6.2      4.255      6.155
REMARK  6 active torsions:
REMARK  status: ('A' for Active; 'I' for Inactive)
REMARK    1  A    between atoms: C2_2  and  C3_3 
REMARK    2  A    between atoms: C3_3  and  O1_4 
REMARK    3  A    between atoms: O1_4  and  C4_5 
REMARK    4  A    between atoms: N2_18  and  C14_19 
REMARK    5  A    between atoms: C14_19  and  C18_24 
REMARK    6  A    between atoms: C15_20  and  C16_21 
ROOT
HETATM    1  C4  UNL     1      22.211   1.704  51.293  1.00  0.00     0.071 C 
HETATM    2  C5  UNL     1      22.298   2.891  51.904  1.00  0.00     0.064 C 
HETATM    3  C6  UNL     1      22.346   4.283  51.392  1.00  0.00     0.062 C 
HETATM    4  N1  UNL     1      21.698   5.319  51.784  1.00  0.00    -0.261 NA
HETATM    5  C7  UNL     1      21.672   6.518  50.958  1.00  0.00     0.145 C 
HETATM    6  C8  UNL     1      22.408   5.827  50.175  1.00  0.00     0.062 C 
HETATM    7  C9  UNL     1      22.335   4.741  49.139  1.00  0.00     0.202 C 
HETATM    8  O2  UNL     1      22.758   4.805  47.892  1.00  0.00    -0.375 OA
HETATM    9  C10 UNL     1      21.963   3.827  47.186  1.00  0.00     0.195 C 
HETATM   10  C11 UNL     1      22.271   2.420  47.718  1.00  0.00     0.194 C 
HETATM   11  O3  UNL     1      22.089   2.293  49.009  1.00  0.00    -0.383 OA
HETATM   12  C12 UNL     1      22.115   1.288  49.822  1.00  0.00     0.232 C 
HETATM   13  C13 UNL     1      23.300   4.245  50.212  1.00  0.00     0.176 C 
HETATM   14  N2  UNL     1      23.840   5.652  50.003  1.00  0.00    -0.336 N 
ENDROOT
BRANCH  14  15
HETATM   15  C14 UNL     1      25.210   6.078  49.793  1.00  0.00     0.026 C 
HETATM   16  C15 UNL     1      25.968   5.175  49.193  1.00  0.00     0.028 C 
BRANCH  16  17
HETATM   17  C16 UNL     1      27.308   4.912  48.697  1.00  0.00     0.031 C 
HETATM   18  C17 UNL     1      28.435   5.506  48.358  1.00  0.00     0.188 C 
HETATM   19  F1  UNL     1      29.422   4.689  47.934  1.00  0.00    -0.219 F 
ENDBRANCH  16  17
BRANCH  15  20
HETATM   20  C18 UNL     1      25.769   7.370  50.211  1.00  0.00     0.171 C 
HETATM   21 CL1  UNL     1      26.198   8.456  48.890  1.00  0.00    -0.124 Cl
ENDBRANCH  15  20
ENDBRANCH  14  15
BRANCH   1  22
HETATM   22  O1  UNL     1      22.200   0.597  52.166  1.00  0.00    -0.353 OA
BRANCH  22  23
HETATM   23  C3  UNL     1      21.040   0.359  52.903  1.00  0.00     0.175 C 
BRANCH  23  24
HETATM   24  C2  UNL     1      21.312   0.152  54.393  1.00  0.00     0.022 C 
HETATM   25  C1  UNL     1      21.697  -1.294  54.642  1.00  0.00     0.007 C 
ENDBRANCH  23  24
ENDBRANCH  22  23
ENDBRANCH   1  22
TORSDOF 6
ENDMDL
MODEL 8
REMARK VINA RESULT:      -6.1      3.817      5.875
REMARK  6 active torsions:
REMARK  status: ('A' for Active; 'I' for Inactive)
REMARK    1  A    between atoms: C2_2  and  C3_3 
REMARK    2  A    between atoms: C3_3  and  O1_4 
REMARK    3  A    between atoms: O1_4  and  C4_5 
REMARK    4  A    between atoms: N2_18  and  C14_19 
REMARK    5  A    between atoms: C14_19  and  C18_24 
REMARK    6  A    between atoms: C15_20  and  C16_21 
ROOT
HETATM    1  C4  UNL     1      21.316   1.945  52.144  1.00  0.00     0.071 C 
HETATM    2  C5  UNL     1      21.956   3.095  52.387  1.00  0.00     0.064 C 
HETATM    3  C6  UNL     1      22.593   4.097  51.497  1.00  0.00     0.062 C 
HETATM    4  N1  UNL     1      22.497   5.377  51.510  1.00  0.00    -0.261 NA
HETATM    5  C7  UNL     1      22.965   6.154  50.371  1.00  0.00     0.145 C 
HETATM    6  C8  UNL     1      23.273   5.010  49.893  1.00  0.00     0.062 C 
HETATM    7  C9  UNL     1      22.668   3.812  49.218  1.00  0.00     0.202 C 
HETATM    8  O2  UNL     1      23.009   3.305  48.048  1.00  0.00    -0.375 OA
HETATM    9  C10 UNL     1      21.825   2.615  47.591  1.00  0.00     0.195 C 
HETATM   10  C11 UNL     1      21.500   1.449  48.536  1.00  0.00     0.194 C 
HETATM   11  O3  UNL     1      21.349   1.810  49.786  1.00  0.00    -0.383 OA
HETATM   12  C12 UNL     1      20.967   1.194  50.856  1.00  0.00     0.232 C 
HETATM   13  C13 UNL     1      23.365   3.290  50.470  1.00  0.00     0.176 C 
HETATM   14  N2  UNL     1      24.464   4.180  49.908  1.00  0.00    -0.336 N 
ENDROOT
BRANCH  14  15
HETATM   15  C14 UNL     1      25.868   3.874  49.707  1.00  0.00     0.026 C 
HETATM   16  C15 UNL     1      26.538   4.820  49.069  1.00  0.00     0.028 C 
BRANCH  16  17
HETATM   17  C16 UNL     1      27.847   5.187  48.558  1.00  0.00     0.031 C 
HETATM   18  C17 UNL     1      28.532   6.198  48.061  1.00  0.00     0.188 C 
HETATM   19  F1  UNL     1      29.815   5.932  47.736  1.00  0.00    -0.219 F 
ENDBRANCH  16  17
BRANCH  15  20
HETATM   20  C18 UNL     1      26.534   2.635  50.127  1.00  0.00     0.171 C 
HETATM   21 CL1  UNL     1      26.759   2.465  51.867  1.00  0.00    -0.124 Cl
ENDBRANCH  15  20
ENDBRANCH  14  15
BRANCH   1  22
HETATM   22  O1  UNL     1      20.858   1.276  53.297  1.00  0.00    -0.353 OA
BRANCH  22  23
HETATM   23  C3  UNL     1      21.648   0.252  53.815  1.00  0.00     0.175 C 
BRANCH  23  24
HETATM   24  C2  UNL     1      20.871  -1.047  54.036  1.00  0.00     0.022 C 
HETATM   25  C1  UNL     1      19.447  -0.876  53.544  1.00  0.00     0.007 C 
ENDBRANCH  23  24
ENDBRANCH  22  23
ENDBRANCH   1  22
TORSDOF 6
ENDMDL
MODEL 9
REMARK VINA RESULT:      -6.0      4.325      6.177
REMARK  6 active torsions:
REMARK  status: ('A' for Active; 'I' for Inactive)
REMARK    1  A    between atoms: C2_2  and  C3_3 
REMARK    2  A    between atoms: C3_3  and  O1_4 
REMARK    3  A    between atoms: O1_4  and  C4_5 
REMARK    4  A    between atoms: N2_18  and  C14_19 
REMARK    5  A    between atoms: C14_19  and  C18_24 
REMARK    6  A    between atoms: C15_20  and  C16_21 
ROOT
HETATM    1  C4  UNL     1      22.585   2.236  51.979  1.00  0.00     0.071 C 
HETATM    2  C5  UNL     1      22.645   3.527  52.325  1.00  0.00     0.064 C 
HETATM    3  C6  UNL     1      22.635   4.781  51.532  1.00  0.00     0.062 C 
HETATM    4  N1  UNL     1      21.961   5.857  51.717  1.00  0.00    -0.261 NA
HETATM    5  C7  UNL     1      21.877   6.855  50.660  1.00  0.00     0.145 C 
HETATM    6  C8  UNL     1      22.619   6.037  50.018  1.00  0.00     0.062 C 
HETATM    7  C9  UNL     1      22.561   4.755  49.235  1.00  0.00     0.202 C 
HETATM    8  O2  UNL     1      22.954   4.569  47.990  1.00  0.00    -0.375 OA
HETATM    9  C10 UNL     1      22.178   3.442  47.527  1.00  0.00     0.195 C 
HETATM   10  C11 UNL     1      22.544   2.187  48.333  1.00  0.00     0.194 C 
HETATM   11  O3  UNL     1      22.394   2.329  49.627  1.00  0.00    -0.383 OA
HETATM   12  C12 UNL     1      22.471   1.518  50.631  1.00  0.00     0.232 C 
HETATM   13  C13 UNL     1      23.564   4.523  50.360  1.00  0.00     0.176 C 
HETATM   14  N2  UNL     1      24.052   5.870  49.847  1.00  0.00    -0.336 N 
ENDROOT
BRANCH  14  15
HETATM   15  C14 UNL     1      25.402   6.281  49.515  1.00  0.00     0.026 C 
HETATM   16  C15 UNL     1      25.748   7.452  50.025  1.00  0.00     0.028 C 
BRANCH  16  17
HETATM   17  C16 UNL     1      26.830   8.417  50.115  1.00  0.00     0.031 C 
HETATM   18  C17 UNL     1      27.718   9.067  49.389  1.00  0.00     0.188 C 
HETATM   19  F1  UNL     1      28.531   9.903  50.069  1.00  0.00    -0.219 F 
ENDBRANCH  16  17
BRANCH  15  20
HETATM   20  C18 UNL     1      26.336   5.523  48.673  1.00  0.00     0.171 C 
HETATM   21 CL1  UNL     1      26.914   4.014  49.376  1.00  0.00    -0.124 Cl
ENDBRANCH  15  20
ENDBRANCH  14  15
BRANCH   1  22
HETATM   22  O1  UNL     1      22.629   1.337  53.064  1.00  0.00    -0.353 OA
BRANCH  22  23
HETATM   23  C3  UNL     1      22.224   0.022  52.839  1.00  0.00     0.175 C 
BRANCH  23  24
HETATM   24  C2  UNL     1      21.473  -0.583  54.026  1.00  0.00     0.022 C 
HETATM   25  C1  UNL     1      22.462  -1.243  54.967  1.00  0.00     0.007 C 
ENDBRANCH  23  24
ENDBRANCH  22  23
ENDBRANCH   1  22
TORSDOF 6
ENDMDL
