MODEL 1
REMARK VINA RESULT:      -8.5      0.000      0.000
REMARK  2 active torsions:
REMARK  status: ('A' for Active; 'I' for Inactive)
REMARK    1  A    between atoms: C11_14  and  N4_15 
REMARK    2  A    between atoms: C13_17  and  C14_18 
ROOT
HETATM    1  C1  UNL     1      19.347   2.380  51.392  1.00  0.00     0.310 C 
HETATM    2  N1  UNL     1      20.538   1.943  52.099  1.00  0.00     0.096 N 
HETATM    3  C2  UNL     1      21.305   3.094  52.415  1.00  0.00     0.300 C 
HETATM    4  C3  UNL     1      22.807   2.998  52.482  1.00  0.00     0.136 C 
HETATM    5  N2  UNL     1      23.422   3.407  51.156  1.00  0.00    -0.366 N 
HETATM    6  C4  UNL     1      22.988   2.829  49.957  1.00  0.00     0.124 A 
HETATM    7  C5  UNL     1      23.100   2.858  48.626  1.00  0.00     0.050 A 
HETATM    8  C6  UNL     1      22.326   1.924  47.978  1.00  0.00     0.006 A 
HETATM    9  C7  UNL     1      21.508   1.032  48.610  1.00  0.00     0.029 A 
HETATM   10  C8  UNL     1      21.438   1.055  49.956  1.00  0.00     0.070 A 
HETATM   11  N3  UNL     1      22.197   1.949  50.296  1.00  0.00    -0.234 NA
HETATM   12  C9  UNL     1      21.191   0.880  51.371  1.00  0.00     0.276 C 
HETATM   13  C10 UNL     1      22.437   0.467  52.162  1.00  0.00     0.072 C 
HETATM   14  C11 UNL     1      23.104   1.601  52.850  1.00  0.00     0.136 C 
HETATM   15  H7  UNL     1      24.187   4.160  51.290  1.00  0.00     0.161 HD
ENDROOT
BRANCH  14  16
HETATM   16  N4  UNL     1      24.550   1.364  53.036  1.00  0.00    -0.273 N 
HETATM   17  C12 UNL     1      25.269   0.205  52.999  1.00  0.00     0.128 A 
HETATM   18  C13 UNL     1      26.587   0.495  53.231  1.00  0.00     0.029 A 
HETATM   19  C18 UNL     1      26.671   1.849  53.412  1.00  0.00     0.154 A 
HETATM   20  N6  UNL     1      25.425   2.320  53.285  1.00  0.00    -0.184 NA
BRANCH  18  21
HETATM   21  C14 UNL     1      27.638  -0.514  53.262  1.00  0.00     0.065 A 
HETATM   22  C15 UNL     1      28.904  -0.244  53.561  1.00  0.00     0.011 A 
HETATM   23  C16 UNL     1      29.717  -1.490  53.503  1.00  0.00     0.076 A 
HETATM   24  C17 UNL     1      28.680  -2.489  53.122  1.00  0.00     0.094 A 
HETATM   25  N5  UNL     1      27.546  -1.903  53.000  1.00  0.00    -0.264 NA
ENDBRANCH  18  21
ENDBRANCH  14  16
TORSDOF 2
ENDMDL
MODEL 2
REMARK VINA RESULT:      -7.9      1.325      2.724
REMARK  2 active torsions:
REMARK  status: ('A' for Active; 'I' for Inactive)
REMARK    1  A    between atoms: C11_14  and  N4_15 
REMARK    2  A    between atoms: C13_17  and  C14_18 
ROOT
HETATM    1  C1  UNL     1      21.896   5.784  50.219  1.00  0.00     0.310 C 
HETATM    2  N1  UNL     1      22.933   4.986  50.851  1.00  0.00     0.096 N 
HETATM    3  C2  UNL     1      23.461   4.105  49.873  1.00  0.00     0.300 C 
HETATM    4  C3  UNL     1      23.980   2.752  50.288  1.00  0.00     0.136 C 
HETATM    5  N2  UNL     1      22.900   1.699  50.118  1.00  0.00    -0.366 N 
HETATM    6  C4  UNL     1      21.629   1.881  50.675  1.00  0.00     0.124 A 
HETATM    7  C5  UNL     1      20.393   1.380  50.769  1.00  0.00     0.050 A 
HETATM    8  C6  UNL     1      19.546   2.122  51.558  1.00  0.00     0.006 A 
HETATM    9  C7  UNL     1      19.904   3.271  52.202  1.00  0.00     0.029 A 
HETATM   10  C8  UNL     1      21.166   3.725  52.067  1.00  0.00     0.070 A 
HETATM   11  N3  UNL     1      21.716   2.916  51.336  1.00  0.00    -0.234 NA
HETATM   12  C9  UNL     1      22.441   4.409  52.080  1.00  0.00     0.276 C 
HETATM   13  C10 UNL     1      23.573   3.579  52.695  1.00  0.00     0.072 C 
HETATM   14  C11 UNL     1      24.426   2.903  51.685  1.00  0.00     0.136 C 
HETATM   15  H7  UNL     1      23.256   0.855  49.541  1.00  0.00     0.161 HD
ENDROOT
BRANCH  14  16
HETATM   16  N4  UNL     1      25.041   1.670  52.214  1.00  0.00    -0.273 N 
HETATM   17  C12 UNL     1      26.352   1.297  52.293  1.00  0.00     0.128 A 
HETATM   18  C13 UNL     1      26.425   0.056  52.866  1.00  0.00     0.029 A 
HETATM   19  C18 UNL     1      25.142  -0.333  53.139  1.00  0.00     0.154 A 
HETATM   20  N6  UNL     1      24.354   0.668  52.730  1.00  0.00    -0.184 NA
BRANCH  18  21
HETATM   21  C14 UNL     1      27.680  -0.647  53.102  1.00  0.00     0.065 A 
HETATM   22  C15 UNL     1      28.822  -0.029  53.386  1.00  0.00     0.011 A 
HETATM   23  C16 UNL     1      29.909  -1.030  53.569  1.00  0.00     0.076 A 
HETATM   24  C17 UNL     1      29.167  -2.302  53.337  1.00  0.00     0.094 A 
HETATM   25  N5  UNL     1      27.938  -2.039  53.082  1.00  0.00    -0.264 NA
ENDBRANCH  18  21
ENDBRANCH  14  16
TORSDOF 2
ENDMDL
MODEL 3
REMARK VINA RESULT:      -7.6      4.117      5.500
REMARK  2 active torsions:
REMARK  status: ('A' for Active; 'I' for Inactive)
REMARK    1  A    between atoms: C11_14  and  N4_15 
REMARK    2  A    between atoms: C13_17  and  C14_18 
ROOT
HETATM    1  C1  UNL     1      22.817   9.010  48.725  1.00  0.00     0.310 C 
HETATM    2  N1  UNL     1      23.022   7.641  49.165  1.00  0.00     0.096 N 
HETATM    3  C2  UNL     1      23.527   7.681  50.491  1.00  0.00     0.300 C 
HETATM    4  C3  UNL     1      24.465   6.602  50.966  1.00  0.00     0.136 C 
HETATM    5  N2  UNL     1      25.907   7.044  50.798  1.00  0.00    -0.366 N 
HETATM    6  C4  UNL     1      26.368   7.529  49.568  1.00  0.00     0.124 A 
HETATM    7  C5  UNL     1      27.405   8.077  48.927  1.00  0.00     0.050 A 
HETATM    8  C6  UNL     1      27.174   8.323  47.595  1.00  0.00     0.006 A 
HETATM    9  C7  UNL     1      26.002   8.042  46.953  1.00  0.00     0.029 A 
HETATM   10  C8  UNL     1      24.993   7.490  47.655  1.00  0.00     0.070 A 
HETATM   11  N3  UNL     1      25.427   7.370  48.791  1.00  0.00    -0.234 NA
HETATM   12  C9  UNL     1      23.778   6.905  48.180  1.00  0.00     0.276 C 
HETATM   13  C10 UNL     1      23.964   5.476  48.702  1.00  0.00     0.072 C 
HETATM   14  C11 UNL     1      24.132   5.403  50.176  1.00  0.00     0.136 C 
HETATM   15  H7  UNL     1      26.467   6.929  51.717  1.00  0.00     0.161 HD
ENDROOT
BRANCH  14  16
HETATM   16  N4  UNL     1      24.920   4.223  50.585  1.00  0.00    -0.273 N 
HETATM   17  C12 UNL     1      24.580   3.162  51.374  1.00  0.00     0.128 A 
HETATM   18  C13 UNL     1      25.655   2.317  51.464  1.00  0.00     0.029 A 
HETATM   19  C18 UNL     1      26.661   2.871  50.720  1.00  0.00     0.154 A 
HETATM   20  N6  UNL     1      26.169   4.009  50.218  1.00  0.00    -0.184 NA
BRANCH  18  21
HETATM   21  C14 UNL     1      25.639   1.078  52.231  1.00  0.00     0.065 A 
HETATM   22  C15 UNL     1      26.481   0.073  52.016  1.00  0.00     0.011 A 
HETATM   23  C16 UNL     1      26.200  -1.038  52.967  1.00  0.00     0.076 A 
HETATM   24  C17 UNL     1      25.059  -0.470  53.739  1.00  0.00     0.094 A 
HETATM   25  N5  UNL     1      24.785   0.702  53.297  1.00  0.00    -0.264 NA
ENDBRANCH  18  21
ENDBRANCH  14  16
TORSDOF 2
ENDMDL
MODEL 4
REMARK VINA RESULT:      -7.6      1.786      2.694
REMARK  2 active torsions:
REMARK  status: ('A' for Active; 'I' for Inactive)
REMARK    1  A    between atoms: C11_14  and  N4_15 
REMARK    2  A    between atoms: C13_17  and  C14_18 
ROOT
HETATM    1  C1  UNL     1      20.130   4.321  49.200  1.00  0.00     0.310 C 
HETATM    2  N1  UNL     1      20.715   3.179  49.881  1.00  0.00     0.096 N 
HETATM    3  C2  UNL     1      20.617   3.409  51.279  1.00  0.00     0.300 C 
HETATM    4  C3  UNL     1      21.670   2.854  52.203  1.00  0.00     0.136 C 
HETATM    5  N2  UNL     1      22.733   3.901  52.481  1.00  0.00    -0.366 N 
HETATM    6  C4  UNL     1      23.368   4.572  51.429  1.00  0.00     0.124 A 
HETATM    7  C5  UNL     1      24.230   5.544  51.113  1.00  0.00     0.050 A 
HETATM    8  C6  UNL     1      24.435   5.693  49.762  1.00  0.00     0.006 A 
HETATM    9  C7  UNL     1      23.830   4.932  48.804  1.00  0.00     0.029 A 
HETATM   10  C8  UNL     1      22.970   3.968  49.187  1.00  0.00     0.070 A 
HETATM   11  N3  UNL     1      22.953   4.027  50.407  1.00  0.00    -0.234 NA
HETATM   12  C9  UNL     1      22.020   2.887  49.339  1.00  0.00     0.276 C 
HETATM   13  C10 UNL     1      22.585   1.681  50.098  1.00  0.00     0.072 C 
HETATM   14  C11 UNL     1      22.202   1.654  51.532  1.00  0.00     0.136 C 
HETATM   15  H7  UNL     1      22.898   4.026  53.543  1.00  0.00     0.161 HD
ENDROOT
BRANCH  14  16
HETATM   16  N4  UNL     1      23.198   0.944  52.359  1.00  0.00    -0.273 N 
HETATM   17  C12 UNL     1      24.559   1.047  52.389  1.00  0.00     0.128 A 
HETATM   18  C13 UNL     1      25.047   0.177  53.328  1.00  0.00     0.029 A 
HETATM   19  C18 UNL     1      23.969  -0.464  53.876  1.00  0.00     0.154 A 
HETATM   20  N6  UNL     1      22.889   0.031  53.261  1.00  0.00    -0.184 NA
BRANCH  18  21
HETATM   21  C14 UNL     1      26.466   0.028  53.622  1.00  0.00     0.065 A 
HETATM   22  C15 UNL     1      27.297  -0.693  52.877  1.00  0.00     0.011 A 
HETATM   23  C16 UNL     1      28.671  -0.639  53.448  1.00  0.00     0.076 A 
HETATM   24  C17 UNL     1      28.451   0.235  54.635  1.00  0.00     0.094 A 
HETATM   25  N5  UNL     1      27.217   0.579  54.690  1.00  0.00    -0.264 NA
ENDBRANCH  18  21
ENDBRANCH  14  16
TORSDOF 2
ENDMDL
MODEL 5
REMARK VINA RESULT:      -7.4      1.808      3.133
REMARK  2 active torsions:
REMARK  status: ('A' for Active; 'I' for Inactive)
REMARK    1  A    between atoms: C11_14  and  N4_15 
REMARK    2  A    between atoms: C13_17  and  C14_18 
ROOT
HETATM    1  C1  UNL     1      18.995   4.151  50.797  1.00  0.00     0.310 C 
HETATM    2  N1  UNL     1      20.431   4.326  50.923  1.00  0.00     0.096 N 
HETATM    3  C2  UNL     1      21.031   3.890  49.713  1.00  0.00     0.300 C 
HETATM    4  C3  UNL     1      22.411   3.283  49.738  1.00  0.00     0.136 C 
HETATM    5  N2  UNL     1      22.320   1.770  49.805  1.00  0.00    -0.366 N 
HETATM    6  C4  UNL     1      21.537   1.142  50.782  1.00  0.00     0.124 A 
HETATM    7  C5  UNL     1      21.068  -0.030  51.221  1.00  0.00     0.050 A 
HETATM    8  C6  UNL     1      20.282   0.067  52.345  1.00  0.00     0.006 A 
HETATM    9  C7  UNL     1      19.988   1.240  52.978  1.00  0.00     0.029 A 
HETATM   10  C8  UNL     1      20.490   2.389  52.484  1.00  0.00     0.070 A 
HETATM   11  N3  UNL     1      21.141   2.054  51.506  1.00  0.00    -0.234 NA
HETATM   12  C9  UNL     1      20.901   3.737  52.155  1.00  0.00     0.276 C 
HETATM   13  C10 UNL     1      22.417   3.949  52.228  1.00  0.00     0.072 C 
HETATM   14  C11 UNL     1      23.088   3.874  50.906  1.00  0.00     0.136 C 
HETATM   15  H7  UNL     1      22.916   1.302  49.033  1.00  0.00     0.161 HD
ENDROOT
BRANCH  14  16
HETATM   16  N4  UNL     1      24.493   3.435  51.022  1.00  0.00    -0.273 N 
HETATM   17  C12 UNL     1      25.094   2.619  51.936  1.00  0.00     0.128 A 
HETATM   18  C13 UNL     1      26.423   2.510  51.625  1.00  0.00     0.029 A 
HETATM   19  C18 UNL     1      26.635   3.269  50.507  1.00  0.00     0.154 A 
HETATM   20  N6  UNL     1      25.449   3.801  50.188  1.00  0.00    -0.184 NA
BRANCH  18  21
HETATM   21  C14 UNL     1      27.365   1.710  52.398  1.00  0.00     0.065 A 
HETATM   22  C15 UNL     1      27.219   0.405  52.606  1.00  0.00     0.011 A 
HETATM   23  C16 UNL     1      28.348  -0.108  53.430  1.00  0.00     0.076 A 
HETATM   24  C17 UNL     1      29.138   1.139  53.638  1.00  0.00     0.094 A 
HETATM   25  N5  UNL     1      28.555   2.117  53.048  1.00  0.00    -0.264 NA
ENDBRANCH  18  21
ENDBRANCH  14  16
TORSDOF 2
ENDMDL
MODEL 6
REMARK VINA RESULT:      -7.2      1.911      2.526
REMARK  2 active torsions:
REMARK  status: ('A' for Active; 'I' for Inactive)
REMARK    1  A    between atoms: C11_14  and  N4_15 
REMARK    2  A    between atoms: C13_17  and  C14_18 
ROOT
HETATM    1  C1  UNL     1      17.892   0.240  51.403  1.00  0.00     0.310 C 
HETATM    2  N1  UNL     1      19.315  -0.002  51.559  1.00  0.00     0.096 N 
HETATM    3  C2  UNL     1      19.687   0.409  52.866  1.00  0.00     0.300 C 
HETATM    4  C3  UNL     1      21.071   0.950  53.115  1.00  0.00     0.136 C 
HETATM    5  N2  UNL     1      21.067   2.466  53.039  1.00  0.00    -0.366 N 
HETATM    6  C4  UNL     1      20.520   3.126  51.932  1.00  0.00     0.124 A 
HETATM    7  C5  UNL     1      20.203   4.317  51.416  1.00  0.00     0.050 A 
HETATM    8  C6  UNL     1      19.648   4.253  50.160  1.00  0.00     0.006 A 
HETATM    9  C7  UNL     1      19.429   3.093  49.474  1.00  0.00     0.029 A 
HETATM   10  C8  UNL     1      19.770   1.923  50.050  1.00  0.00     0.070 A 
HETATM   11  N3  UNL     1      20.232   2.231  51.139  1.00  0.00    -0.234 NA
HETATM   12  C9  UNL     1      20.044   0.559  50.446  1.00  0.00     0.276 C 
HETATM   13  C10 UNL     1      21.534   0.276  50.670  1.00  0.00     0.072 C 
HETATM   14  C11 UNL     1      21.936   0.323  52.099  1.00  0.00     0.136 C 
HETATM   15  H7  UNL     1      21.521   2.907  53.917  1.00  0.00     0.161 HD
ENDROOT
BRANCH  14  16
HETATM   16  N4  UNL     1      23.355   0.694  52.263  1.00  0.00    -0.273 N 
HETATM   17  C12 UNL     1      24.359   0.074  52.949  1.00  0.00     0.128 A 
HETATM   18  C13 UNL     1      25.509   0.804  52.805  1.00  0.00     0.029 A 
HETATM   19  C18 UNL     1      25.201   1.883  52.022  1.00  0.00     0.154 A 
HETATM   20  N6  UNL     1      23.901   1.769  51.725  1.00  0.00    -0.184 NA
BRANCH  18  21
HETATM   21  C14 UNL     1      26.780   0.427  53.411  1.00  0.00     0.065 A 
HETATM   22  C15 UNL     1      27.580  -0.508  52.910  1.00  0.00     0.011 A 
HETATM   23  C16 UNL     1      28.793  -0.650  53.763  1.00  0.00     0.076 A 
HETATM   24  C17 UNL     1      28.520   0.367  54.816  1.00  0.00     0.094 A 
HETATM   25  N5  UNL     1      27.395   0.937  54.580  1.00  0.00    -0.264 NA
ENDBRANCH  18  21
ENDBRANCH  14  16
TORSDOF 2
ENDMDL
MODEL 7
REMARK VINA RESULT:      -7.0      1.885      2.382
REMARK  2 active torsions:
REMARK  status: ('A' for Active; 'I' for Inactive)
REMARK    1  A    between atoms: C11_14  and  N4_15 
REMARK    2  A    between atoms: C13_17  and  C14_18 
ROOT
HETATM    1  C1  UNL     1      19.184   3.498  49.992  1.00  0.00     0.310 C 
HETATM    2  N1  UNL     1      20.397   2.930  50.556  1.00  0.00     0.096 N 
HETATM    3  C2  UNL     1      20.947   3.882  51.453  1.00  0.00     0.300 C 
HETATM    4  C3  UNL     1      22.440   3.953  51.646  1.00  0.00     0.136 C 
HETATM    5  N2  UNL     1      23.040   5.010  50.738  1.00  0.00    -0.366 N 
HETATM    6  C4  UNL     1      22.765   5.015  49.365  1.00  0.00     0.124 A 
HETATM    7  C5  UNL     1      22.933   5.680  48.218  1.00  0.00     0.050 A 
HETATM    8  C6  UNL     1      22.355   5.073  47.129  1.00  0.00     0.006 A 
HETATM    9  C7  UNL     1      21.665   3.896  47.180  1.00  0.00     0.029 A 
HETATM   10  C8  UNL     1      21.530   3.274  48.368  1.00  0.00     0.070 A 
HETATM   11  N3  UNL     1      22.115   3.989  49.167  1.00  0.00    -0.234 NA
HETATM   12  C9  UNL     1      21.249   2.426  49.506  1.00  0.00     0.276 C 
HETATM   13  C10 UNL     1      22.508   1.846  50.161  1.00  0.00     0.072 C 
HETATM   14  C11 UNL     1      22.946   2.596  51.366  1.00  0.00     0.136 C 
HETATM   15  H7  UNL     1      23.664   5.700  51.291  1.00  0.00     0.161 HD
ENDROOT
BRANCH  14  16
HETATM   16  N4  UNL     1      24.400   2.481  51.592  1.00  0.00    -0.273 N 
HETATM   17  C12 UNL     1      25.093   1.950  52.641  1.00  0.00     0.128 A 
HETATM   18  C13 UNL     1      26.434   2.075  52.393  1.00  0.00     0.029 A 
HETATM   19  C18 UNL     1      26.559   2.690  51.178  1.00  0.00     0.154 A 
HETATM   20  N6  UNL     1      25.313   2.911  50.742  1.00  0.00    -0.184 NA
BRANCH  18  21
HETATM   21  C14 UNL     1      27.467   1.610  53.311  1.00  0.00     0.065 A 
HETATM   22  C15 UNL     1      28.585   2.284  53.556  1.00  0.00     0.011 A 
HETATM   23  C16 UNL     1      29.424   1.539  54.535  1.00  0.00     0.076 A 
HETATM   24  C17 UNL     1      28.573   0.341  54.785  1.00  0.00     0.094 A 
HETATM   25  N5  UNL     1      27.501   0.425  54.085  1.00  0.00    -0.264 NA
ENDBRANCH  18  21
ENDBRANCH  14  16
TORSDOF 2
ENDMDL
MODEL 8
REMARK VINA RESULT:      -7.0      3.979      5.487
REMARK  2 active torsions:
REMARK  status: ('A' for Active; 'I' for Inactive)
REMARK    1  A    between atoms: C11_14  and  N4_15 
REMARK    2  A    between atoms: C13_17  and  C14_18 
ROOT
HETATM    1  C1  UNL     1      19.402   4.759  50.526  1.00  0.00     0.310 C 
HETATM    2  N1  UNL     1      20.820   5.073  50.496  1.00  0.00     0.096 N 
HETATM    3  C2  UNL     1      21.176   5.349  49.150  1.00  0.00     0.300 C 
HETATM    4  C3  UNL     1      22.564   5.021  48.661  1.00  0.00     0.136 C 
HETATM    5  N2  UNL     1      22.580   3.657  47.996  1.00  0.00    -0.366 N 
HETATM    6  C4  UNL     1      22.059   2.535  48.652  1.00  0.00     0.124 A 
HETATM    7  C5  UNL     1      21.764   1.237  48.532  1.00  0.00     0.050 A 
HETATM    8  C6  UNL     1      21.228   0.677  49.667  1.00  0.00     0.006 A 
HETATM    9  C7  UNL     1      21.004   1.359  50.829  1.00  0.00     0.029 A 
HETATM   10  C8  UNL     1      21.322   2.667  50.886  1.00  0.00     0.070 A 
HETATM   11  N3  UNL     1      21.771   2.931  49.781  1.00  0.00    -0.234 NA
HETATM   12  C9  UNL     1      21.573   4.058  51.195  1.00  0.00     0.276 C 
HETATM   13  C10 UNL     1      23.055   4.442  51.125  1.00  0.00     0.072 C 
HETATM   14  C11 UNL     1      23.436   5.097  49.847  1.00  0.00     0.136 C 
HETATM   15  H7  UNL     1      23.026   3.702  47.012  1.00  0.00     0.161 HD
ENDROOT
BRANCH  14  16
HETATM   16  N4  UNL     1      24.857   4.877  49.514  1.00  0.00    -0.273 N 
HETATM   17  C12 UNL     1      25.791   5.734  49.008  1.00  0.00     0.128 A 
HETATM   18  C13 UNL     1      26.977   5.063  48.869  1.00  0.00     0.029 A 
HETATM   19  C18 UNL     1      26.763   3.782  49.296  1.00  0.00     0.154 A 
HETATM   20  N6  UNL     1      25.479   3.723  49.671  1.00  0.00    -0.184 NA
BRANCH  18  21
HETATM   21  C14 UNL     1      28.192   5.681  48.353  1.00  0.00     0.065 A 
HETATM   22  C15 UNL     1      28.229   6.906  47.839  1.00  0.00     0.011 A 
HETATM   23  C16 UNL     1      29.616   7.234  47.406  1.00  0.00     0.076 A 
HETATM   24  C17 UNL     1      30.332   5.978  47.770  1.00  0.00     0.094 A 
HETATM   25  N5  UNL     1      29.503   5.149  48.290  1.00  0.00    -0.264 NA
ENDBRANCH  18  21
ENDBRANCH  14  16
TORSDOF 2
ENDMDL
MODEL 9
REMARK VINA RESULT:      -7.0      2.985      6.369
REMARK  2 active torsions:
REMARK  status: ('A' for Active; 'I' for Inactive)
REMARK    1  A    between atoms: C11_14  and  N4_15 
REMARK    2  A    between atoms: C13_17  and  C14_18 
ROOT
HETATM    1  C1  UNL     1      24.511   6.935  50.960  1.00  0.00     0.310 C 
HETATM    2  N1  UNL     1      23.421   5.974  50.947  1.00  0.00     0.096 N 
HETATM    3  C2  UNL     1      23.313   5.421  52.249  1.00  0.00     0.300 C 
HETATM    4  C3  UNL     1      22.838   4.001  52.421  1.00  0.00     0.136 C 
HETATM    5  N2  UNL     1      24.022   3.057  52.520  1.00  0.00    -0.366 N 
HETATM    6  C4  UNL     1      25.035   3.076  51.554  1.00  0.00     0.124 A 
HETATM    7  C5  UNL     1      26.229   2.582  51.211  1.00  0.00     0.050 A 
HETATM    8  C6  UNL     1      26.711   3.061  50.016  1.00  0.00     0.006 A 
HETATM    9  C7  UNL     1      26.054   3.961  49.228  1.00  0.00     0.029 A 
HETATM   10  C8  UNL     1      24.854   4.424  49.630  1.00  0.00     0.070 A 
HETATM   11  N3  UNL     1      24.642   3.865  50.696  1.00  0.00    -0.234 NA
HETATM   12  C9  UNL     1      23.572   5.061  49.839  1.00  0.00     0.276 C 
HETATM   13  C10 UNL     1      22.399   4.074  49.882  1.00  0.00     0.072 C 
HETATM   14  C11 UNL     1      21.973   3.723  51.260  1.00  0.00     0.136 C 
HETATM   15  H7  UNL     1      23.950   2.421  53.393  1.00  0.00     0.161 HD
ENDROOT
BRANCH  14  16
HETATM   16  N4  UNL     1      21.358   2.382  51.325  1.00  0.00    -0.273 N 
HETATM   17  C12 UNL     1      20.162   1.981  51.847  1.00  0.00     0.128 A 
HETATM   18  C13 UNL     1      20.034   0.629  51.669  1.00  0.00     0.029 A 
HETATM   19  C18 UNL     1      21.167   0.202  51.032  1.00  0.00     0.154 A 
HETATM   20  N6  UNL     1      21.925   1.290  50.850  1.00  0.00    -0.184 NA
BRANCH  18  21
HETATM   21  C14 UNL     1      18.872  -0.132  52.109  1.00  0.00     0.065 A 
HETATM   22  C15 UNL     1      18.871  -0.908  53.188  1.00  0.00     0.011 A 
HETATM   23  C16 UNL     1      17.533  -1.540  53.358  1.00  0.00     0.076 A 
HETATM   24  C17 UNL     1      16.802  -0.978  52.187  1.00  0.00     0.094 A 
HETATM   25  N5  UNL     1      17.583  -0.205  51.526  1.00  0.00    -0.264 NA
ENDBRANCH  18  21
ENDBRANCH  14  16
TORSDOF 2
ENDMDL
