MODEL 1
REMARK VINA RESULT:      -8.8      0.000      0.000
REMARK  3 active torsions:
REMARK  status: ('A' for Active; 'I' for Inactive)
REMARK    1  A    between atoms: N2_7  and  C6_8 
REMARK    2  A    between atoms: N3_11  and  C9_12 
REMARK    3  A    between atoms: C9_12  and  C10_13 
ROOT
HETATM    1  C6  UNL     1      22.288   0.443  53.451  1.00  0.00     0.107 C 
HETATM    2  C7  UNL     1      23.064  -0.755  53.934  1.00  0.00     0.046 C 
HETATM    3  C8  UNL     1      24.549  -0.547  54.000  1.00  0.00     0.119 C 
HETATM    4  N3  UNL     1      25.105   0.483  53.238  1.00  0.00    -0.408 N 
HETATM    5  C16 UNL     1      24.320   1.657  53.007  1.00  0.00     0.119 C 
HETATM    6  C17 UNL     1      23.016   1.218  52.362  1.00  0.00     0.046 C 
ENDROOT
BRANCH   1   7
HETATM    7  N2  UNL     1      21.007   0.170  53.054  1.00  0.00    -0.305 N 
HETATM    8  C5  UNL     1      20.170  -0.749  53.769  1.00  0.00     0.267 C 
HETATM    9  N1  UNL     1      18.927  -0.774  53.002  1.00  0.00    -0.361 N 
HETATM   10  C4  UNL     1      17.833  -1.291  53.273  1.00  0.00     0.091 A 
HETATM   11  C3  UNL     1      17.650  -0.667  51.962  1.00  0.00     0.152 A 
HETATM   12  C2  UNL     1      17.578  -0.088  50.813  1.00  0.00    -0.055 C 
HETATM   13  C1  UNL     1      16.461   0.041  49.818  1.00  0.00     0.046 C 
HETATM   14  C19 UNL     1      18.720   0.608  50.295  1.00  0.00     0.023 C 
HETATM   15  C18 UNL     1      19.971   0.922  50.586  1.00  0.00     0.107 C 
HETATM   16  N4  UNL     1      20.529   0.490  51.813  1.00  0.00    -0.312 N 
HETATM   17  H24 UNL     1      20.095   1.246  52.424  1.00  0.00     0.185 HD
ENDBRANCH   1   7
BRANCH   4  18
HETATM   18  C9  UNL     1      26.060   0.185  52.242  1.00  0.00     0.155 C 
BRANCH  18  19
HETATM   19  C10 UNL     1      27.362  -0.316  52.734  1.00  0.00    -0.041 A 
HETATM   20  C11 UNL     1      27.806  -1.627  52.761  1.00  0.00     0.009 A 
HETATM   21  C12 UNL     1      29.052  -1.891  53.271  1.00  0.00     0.001 A 
HETATM   22  C13 UNL     1      29.904  -0.934  53.763  1.00  0.00     0.000 A 
HETATM   23  C14 UNL     1      29.504   0.405  53.757  1.00  0.00     0.001 A 
HETATM   24  C15 UNL     1      28.235   0.650  53.236  1.00  0.00     0.009 A 
ENDBRANCH  18  19
ENDBRANCH   4  18
TORSDOF 3
ENDMDL
MODEL 2
REMARK VINA RESULT:      -8.5      0.764      2.033
REMARK  3 active torsions:
REMARK  status: ('A' for Active; 'I' for Inactive)
REMARK    1  A    between atoms: N2_7  and  C6_8 
REMARK    2  A    between atoms: N3_11  and  C9_12 
REMARK    3  A    between atoms: C9_12  and  C10_13 
ROOT
HETATM    1  C6  UNL     1      22.143   0.544  53.079  1.00  0.00     0.107 C 
HETATM    2  C7  UNL     1      22.870  -0.704  53.510  1.00  0.00     0.046 C 
HETATM    3  C8  UNL     1      24.343  -0.517  53.734  1.00  0.00     0.119 C 
HETATM    4  N3  UNL     1      24.967   0.579  53.134  1.00  0.00    -0.408 N 
HETATM    5  C16 UNL     1      24.208   1.777  52.950  1.00  0.00     0.119 C 
HETATM    6  C17 UNL     1      22.969   1.416  52.146  1.00  0.00     0.046 C 
ENDROOT
BRANCH   1   7
HETATM    7  N2  UNL     1      20.905   0.324  52.539  1.00  0.00    -0.305 N 
HETATM    8  C5  UNL     1      20.404   1.106  51.446  1.00  0.00     0.267 C 
HETATM    9  N1  UNL     1      19.063   0.576  51.211  1.00  0.00    -0.361 N 
HETATM   10  C4  UNL     1      18.268   0.802  50.287  1.00  0.00     0.091 A 
HETATM   11  C3  UNL     1      17.584  -0.152  51.159  1.00  0.00     0.152 A 
HETATM   12  C2  UNL     1      17.057  -0.992  51.983  1.00  0.00    -0.055 C 
HETATM   13  C1  UNL     1      15.725  -1.684  52.003  1.00  0.00     0.046 C 
HETATM   14  C19 UNL     1      17.805  -1.430  53.127  1.00  0.00     0.023 C 
HETATM   15  C18 UNL     1      18.973  -1.283  53.728  1.00  0.00     0.107 C 
HETATM   16  N4  UNL     1      19.942  -0.417  53.164  1.00  0.00    -0.312 N 
HETATM   17  H24 UNL     1      20.299  -1.092  52.422  1.00  0.00     0.185 HD
ENDBRANCH   1   7
BRANCH   4  18
HETATM   18  C9  UNL     1      26.012   0.372  52.206  1.00  0.00     0.155 C 
BRANCH  18  19
HETATM   19  C10 UNL     1      27.345   0.111  52.792  1.00  0.00    -0.041 A 
HETATM   20  C11 UNL     1      28.237   1.038  53.304  1.00  0.00     0.009 A 
HETATM   21  C12 UNL     1      29.439   0.594  53.797  1.00  0.00     0.001 A 
HETATM   22  C13 UNL     1      29.825  -0.723  53.821  1.00  0.00     0.000 A 
HETATM   23  C14 UNL     1      28.959  -1.698  53.316  1.00  0.00     0.001 A 
HETATM   24  C15 UNL     1      27.746  -1.225  52.821  1.00  0.00     0.009 A 
ENDBRANCH  18  19
ENDBRANCH   4  18
TORSDOF 3
ENDMDL
MODEL 3
REMARK VINA RESULT:      -8.2      3.880      5.080
REMARK  3 active torsions:
REMARK  status: ('A' for Active; 'I' for Inactive)
REMARK    1  A    between atoms: N2_7  and  C6_8 
REMARK    2  A    between atoms: N3_11  and  C9_12 
REMARK    3  A    between atoms: C9_12  and  C10_13 
ROOT
HETATM    1  C6  UNL     1      23.883   1.976  52.639  1.00  0.00     0.107 C 
HETATM    2  C7  UNL     1      25.161   1.352  52.140  1.00  0.00     0.046 C 
HETATM    3  C8  UNL     1      26.053   2.289  51.378  1.00  0.00     0.119 C 
HETATM    4  N3  UNL     1      25.484   3.441  50.829  1.00  0.00    -0.408 N 
HETATM    5  C16 UNL     1      24.381   4.046  51.511  1.00  0.00     0.119 C 
HETATM    6  C17 UNL     1      23.300   2.988  51.663  1.00  0.00     0.046 C 
ENDROOT
BRANCH   1   7
HETATM    7  N2  UNL     1      22.920   1.080  53.014  1.00  0.00    -0.305 N 
HETATM    8  C5  UNL     1      23.241  -0.136  53.702  1.00  0.00     0.267 C 
HETATM    9  N1  UNL     1      21.952  -0.802  53.876  1.00  0.00    -0.361 N 
HETATM   10  C4  UNL     1      21.657  -1.808  54.537  1.00  0.00     0.091 A 
HETATM   11  C3  UNL     1      20.405  -1.374  53.918  1.00  0.00     0.152 A 
HETATM   12  C2  UNL     1      19.349  -0.920  53.334  1.00  0.00    -0.055 C 
HETATM   13  C1  UNL     1      17.923  -1.389  53.322  1.00  0.00     0.046 C 
HETATM   14  C19 UNL     1      19.437   0.264  52.527  1.00  0.00     0.023 C 
HETATM   15  C18 UNL     1      20.293   1.179  52.108  1.00  0.00     0.107 C 
HETATM   16  N4  UNL     1      21.648   1.102  52.513  1.00  0.00    -0.312 N 
HETATM   17  H24 UNL     1      21.516   1.529  53.479  1.00  0.00     0.185 HD
ENDBRANCH   1   7
BRANCH   4  18
HETATM   18  C9  UNL     1      25.523   3.647  49.433  1.00  0.00     0.155 C 
BRANCH  18  19
HETATM   19  C10 UNL     1      26.283   4.834  48.983  1.00  0.00    -0.041 A 
HETATM   20  C11 UNL     1      25.799   6.113  48.766  1.00  0.00     0.009 A 
HETATM   21  C12 UNL     1      26.670   7.083  48.336  1.00  0.00     0.001 A 
HETATM   22  C13 UNL     1      28.006   6.873  48.102  1.00  0.00     0.000 A 
HETATM   23  C14 UNL     1      28.544   5.599  48.307  1.00  0.00     0.001 A 
HETATM   24  C15 UNL     1      27.643   4.630  48.743  1.00  0.00     0.009 A 
ENDBRANCH  18  19
ENDBRANCH   4  18
TORSDOF 3
ENDMDL
MODEL 4
REMARK VINA RESULT:      -8.0      2.560      8.179
REMARK  3 active torsions:
REMARK  status: ('A' for Active; 'I' for Inactive)
REMARK    1  A    between atoms: N2_7  and  C6_8 
REMARK    2  A    between atoms: N3_11  and  C9_12 
REMARK    3  A    between atoms: C9_12  and  C10_13 
ROOT
HETATM    1  C6  UNL     1      24.903   3.019  51.824  1.00  0.00     0.107 C 
HETATM    2  C7  UNL     1      24.095   2.843  50.564  1.00  0.00     0.046 C 
HETATM    3  C8  UNL     1      22.937   3.789  50.431  1.00  0.00     0.119 C 
HETATM    4  N3  UNL     1      22.448   4.398  51.589  1.00  0.00    -0.408 N 
HETATM    5  C16 UNL     1      23.367   4.681  52.648  1.00  0.00     0.119 C 
HETATM    6  C17 UNL     1      24.045   3.375  53.029  1.00  0.00     0.046 C 
ENDROOT
BRANCH   1   7
HETATM    7  N2  UNL     1      25.721   1.966  52.128  1.00  0.00    -0.305 N 
HETATM    8  C5  UNL     1      25.249   0.612  52.127  1.00  0.00     0.267 C 
HETATM    9  N1  UNL     1      26.410  -0.175  52.534  1.00  0.00    -0.361 N 
HETATM   10  C4  UNL     1      26.577  -1.404  52.546  1.00  0.00     0.091 A 
HETATM   11  C3  UNL     1      27.832  -0.840  53.044  1.00  0.00     0.152 A 
HETATM   12  C2  UNL     1      28.899  -0.258  53.472  1.00  0.00    -0.055 C 
HETATM   13  C1  UNL     1      30.215  -0.796  53.955  1.00  0.00     0.046 C 
HETATM   14  C19 UNL     1      28.956   1.175  53.524  1.00  0.00     0.023 C 
HETATM   15  C18 UNL     1      28.242   2.257  53.264  1.00  0.00     0.107 C 
HETATM   16  N4  UNL     1      26.932   2.119  52.745  1.00  0.00    -0.312 N 
HETATM   17  H24 UNL     1      27.215   1.944  51.733  1.00  0.00     0.185 HD
ENDBRANCH   1   7
BRANCH   4  18
HETATM   18  C9  UNL     1      21.110   4.181  51.986  1.00  0.00     0.155 C 
BRANCH  18  19
HETATM   19  C10 UNL     1      20.633   2.783  51.892  1.00  0.00    -0.041 A 
HETATM   20  C11 UNL     1      20.926   1.734  52.746  1.00  0.00     0.009 A 
HETATM   21  C12 UNL     1      20.389   0.499  52.480  1.00  0.00     0.001 A 
HETATM   22  C13 UNL     1      19.571   0.225  51.413  1.00  0.00     0.000 A 
HETATM   23  C14 UNL     1      19.245   1.252  50.522  1.00  0.00     0.001 A 
HETATM   24  C15 UNL     1      19.800   2.497  50.810  1.00  0.00     0.009 A 
ENDBRANCH  18  19
ENDBRANCH   4  18
TORSDOF 3
ENDMDL
MODEL 5
REMARK VINA RESULT:      -7.9      4.308      7.013
REMARK  3 active torsions:
REMARK  status: ('A' for Active; 'I' for Inactive)
REMARK    1  A    between atoms: N2_7  and  C6_8 
REMARK    2  A    between atoms: N3_11  and  C9_12 
REMARK    3  A    between atoms: C9_12  and  C10_13 
ROOT
HETATM    1  C6  UNL     1      23.181   3.463  51.461  1.00  0.00     0.107 C 
HETATM    2  C7  UNL     1      23.913   4.704  51.905  1.00  0.00     0.046 C 
HETATM    3  C8  UNL     1      23.603   5.930  51.096  1.00  0.00     0.119 C 
HETATM    4  N3  UNL     1      23.070   5.758  49.816  1.00  0.00    -0.408 N 
HETATM    5  C16 UNL     1      22.231   4.624  49.576  1.00  0.00     0.119 C 
HETATM    6  C17 UNL     1      23.023   3.381  49.950  1.00  0.00     0.046 C 
ENDROOT
BRANCH   1   7
HETATM    7  N2  UNL     1      23.702   2.293  51.941  1.00  0.00    -0.305 N 
HETATM    8  C5  UNL     1      23.030   1.516  52.942  1.00  0.00     0.267 C 
HETATM    9  N1  UNL     1      23.928   0.391  53.187  1.00  0.00    -0.361 N 
HETATM   10  C4  UNL     1      23.750  -0.642  53.850  1.00  0.00     0.091 A 
HETATM   11  C3  UNL     1      25.109  -0.754  53.321  1.00  0.00     0.152 A 
HETATM   12  C2  UNL     1      26.293  -0.770  52.812  1.00  0.00    -0.055 C 
HETATM   13  C1  UNL     1      27.413  -1.766  52.897  1.00  0.00     0.046 C 
HETATM   14  C19 UNL     1      26.723   0.315  51.977  1.00  0.00     0.023 C 
HETATM   15  C18 UNL     1      26.313   1.464  51.466  1.00  0.00     0.107 C 
HETATM   16  N4  UNL     1      25.006   1.927  51.754  1.00  0.00    -0.312 N 
HETATM   17  H24 UNL     1      24.497   1.318  51.043  1.00  0.00     0.185 HD
ENDBRANCH   1   7
BRANCH   4  18
HETATM   18  C9  UNL     1      23.770   6.245  48.691  1.00  0.00     0.155 C 
BRANCH  18  19
HETATM   19  C10 UNL     1      25.216   5.932  48.652  1.00  0.00    -0.041 A 
HETATM   20  C11 UNL     1      25.831   4.746  49.016  1.00  0.00     0.009 A 
HETATM   21  C12 UNL     1      27.197   4.655  48.916  1.00  0.00     0.001 A 
HETATM   22  C13 UNL     1      28.009   5.670  48.474  1.00  0.00     0.000 A 
HETATM   23  C14 UNL     1      27.436   6.887  48.093  1.00  0.00     0.001 A 
HETATM   24  C15 UNL     1      26.049   6.958  48.203  1.00  0.00     0.009 A 
ENDBRANCH  18  19
ENDBRANCH   4  18
TORSDOF 3
ENDMDL
MODEL 6
REMARK VINA RESULT:      -7.9      3.608      7.811
REMARK  3 active torsions:
REMARK  status: ('A' for Active; 'I' for Inactive)
REMARK    1  A    between atoms: N2_7  and  C6_8 
REMARK    2  A    between atoms: N3_11  and  C9_12 
REMARK    3  A    between atoms: C9_12  and  C10_13 
ROOT
HETATM    1  C6  UNL     1      23.996   2.188  52.702  1.00  0.00     0.107 C 
HETATM    2  C7  UNL     1      24.312   3.583  53.179  1.00  0.00     0.046 C 
HETATM    3  C8  UNL     1      23.314   4.623  52.761  1.00  0.00     0.119 C 
HETATM    4  N3  UNL     1      22.489   4.344  51.669  1.00  0.00    -0.408 N 
HETATM    5  C16 UNL     1      22.108   2.985  51.435  1.00  0.00     0.119 C 
HETATM    6  C17 UNL     1      23.383   2.167  51.309  1.00  0.00     0.046 C 
ENDROOT
BRANCH   1   7
HETATM    7  N2  UNL     1      25.045   1.313  52.765  1.00  0.00    -0.305 N 
HETATM    8  C5  UNL     1      24.854  -0.107  52.699  1.00  0.00     0.267 C 
HETATM    9  N1  UNL     1      26.200  -0.658  52.836  1.00  0.00    -0.361 N 
HETATM   10  C4  UNL     1      26.603  -1.822  52.696  1.00  0.00     0.091 A 
HETATM   11  C3  UNL     1      27.791  -1.042  53.047  1.00  0.00     0.152 A 
HETATM   12  C2  UNL     1      28.781  -0.279  53.359  1.00  0.00    -0.055 C 
HETATM   13  C1  UNL     1      30.241  -0.559  53.573  1.00  0.00     0.046 C 
HETATM   14  C19 UNL     1      28.564   1.127  53.548  1.00  0.00     0.023 C 
HETATM   15  C18 UNL     1      27.618   2.049  53.516  1.00  0.00     0.107 C 
HETATM   16  N4  UNL     1      26.291   1.674  53.197  1.00  0.00    -0.312 N 
HETATM   17  H24 UNL     1      26.421   1.633  52.140  1.00  0.00     0.185 HD
ENDBRANCH   1   7
BRANCH   4  18
HETATM   18  C9  UNL     1      22.535   5.169  50.524  1.00  0.00     0.155 C 
BRANCH  18  19
HETATM   19  C10 UNL     1      23.857   5.757  50.212  1.00  0.00    -0.041 A 
HETATM   20  C11 UNL     1      24.335   7.002  50.585  1.00  0.00     0.009 A 
HETATM   21  C12 UNL     1      25.595   7.371  50.185  1.00  0.00     0.001 A 
HETATM   22  C13 UNL     1      26.428   6.583  49.430  1.00  0.00     0.000 A 
HETATM   23  C14 UNL     1      25.992   5.316  49.029  1.00  0.00     0.001 A 
HETATM   24  C15 UNL     1      24.710   4.962  49.446  1.00  0.00     0.009 A 
ENDBRANCH  18  19
ENDBRANCH   4  18
TORSDOF 3
ENDMDL
MODEL 7
REMARK VINA RESULT:      -7.9      4.797      7.662
REMARK  3 active torsions:
REMARK  status: ('A' for Active; 'I' for Inactive)
REMARK    1  A    between atoms: N2_7  and  C6_8 
REMARK    2  A    between atoms: N3_11  and  C9_12 
REMARK    3  A    between atoms: C9_12  and  C10_13 
ROOT
HETATM    1  C6  UNL     1      23.323   4.049  50.135  1.00  0.00     0.107 C 
HETATM    2  C7  UNL     1      23.462   2.596  49.762  1.00  0.00     0.046 C 
HETATM    3  C8  UNL     1      22.700   1.652  50.647  1.00  0.00     0.119 C 
HETATM    4  N3  UNL     1      22.327   2.097  51.918  1.00  0.00    -0.408 N 
HETATM    5  C16 UNL     1      22.041   3.487  52.095  1.00  0.00     0.119 C 
HETATM    6  C17 UNL     1      23.262   4.269  51.640  1.00  0.00     0.046 C 
ENDROOT
BRANCH   1   7
HETATM    7  N2  UNL     1      24.266   4.872  49.581  1.00  0.00    -0.305 N 
HETATM    8  C5  UNL     1      23.911   6.088  48.909  1.00  0.00     0.267 C 
HETATM    9  N1  UNL     1      25.186   6.629  48.447  1.00  0.00    -0.361 N 
HETATM   10  C4  UNL     1      25.450   7.732  47.944  1.00  0.00     0.091 A 
HETATM   11  C3  UNL     1      26.726   7.018  47.998  1.00  0.00     0.152 A 
HETATM   12  C2  UNL     1      27.804   6.317  48.084  1.00  0.00    -0.055 C 
HETATM   13  C1  UNL     1      29.225   6.601  47.692  1.00  0.00     0.046 C 
HETATM   14  C19 UNL     1      27.754   5.004  48.662  1.00  0.00     0.023 C 
HETATM   15  C18 UNL     1      26.921   4.137  49.210  1.00  0.00     0.107 C 
HETATM   16  N4  UNL     1      25.553   4.477  49.346  1.00  0.00    -0.312 N 
HETATM   17  H24 UNL     1      25.657   5.076  50.220  1.00  0.00     0.185 HD
ENDBRANCH   1   7
BRANCH   4  18
HETATM   18  C9  UNL     1      22.800   1.422  53.065  1.00  0.00     0.155 C 
BRANCH  18  19
HETATM   19  C10 UNL     1      24.237   1.072  53.055  1.00  0.00    -0.041 A 
HETATM   20  C11 UNL     1      25.316   1.940  53.025  1.00  0.00     0.009 A 
HETATM   21  C12 UNL     1      26.584   1.415  53.009  1.00  0.00     0.001 A 
HETATM   22  C13 UNL     1      26.864   0.071  53.023  1.00  0.00     0.000 A 
HETATM   23  C14 UNL     1      25.809  -0.846  53.054  1.00  0.00     0.001 A 
HETATM   24  C15 UNL     1      24.531  -0.292  53.069  1.00  0.00     0.009 A 
ENDBRANCH  18  19
ENDBRANCH   4  18
TORSDOF 3
ENDMDL
MODEL 8
REMARK VINA RESULT:      -7.8      4.567      6.324
REMARK  3 active torsions:
REMARK  status: ('A' for Active; 'I' for Inactive)
REMARK    1  A    between atoms: N2_7  and  C6_8 
REMARK    2  A    between atoms: N3_11  and  C9_12 
REMARK    3  A    between atoms: C9_12  and  C10_13 
ROOT
HETATM    1  C6  UNL     1      22.720   4.449  51.563  1.00  0.00     0.107 C 
HETATM    2  C7  UNL     1      23.839   5.399  51.903  1.00  0.00     0.046 C 
HETATM    3  C8  UNL     1      23.926   6.601  51.008  1.00  0.00     0.119 C 
HETATM    4  N3  UNL     1      23.320   6.533  49.752  1.00  0.00    -0.408 N 
HETATM    5  C16 UNL     1      22.142   5.732  49.608  1.00  0.00     0.119 C 
HETATM    6  C17 UNL     1      22.487   4.324  50.064  1.00  0.00     0.046 C 
ENDROOT
BRANCH   1   7
HETATM    7  N2  UNL     1      22.837   3.206  52.122  1.00  0.00    -0.305 N 
HETATM    8  C5  UNL     1      24.083   2.495  52.139  1.00  0.00     0.267 C 
HETATM    9  N1  UNL     1      23.763   1.224  52.782  1.00  0.00    -0.361 N 
HETATM   10  C4  UNL     1      24.513   0.317  53.173  1.00  0.00     0.091 A 
HETATM   11  C3  UNL     1      23.160  -0.139  53.491  1.00  0.00     0.152 A 
HETATM   12  C2  UNL     1      21.935  -0.460  53.734  1.00  0.00    -0.055 C 
HETATM   13  C1  UNL     1      21.318  -1.676  54.363  1.00  0.00     0.046 C 
HETATM   14  C19 UNL     1      20.880   0.451  53.393  1.00  0.00     0.023 C 
HETATM   15  C18 UNL     1      20.662   1.641  52.862  1.00  0.00     0.107 C 
HETATM   16  N4  UNL     1      21.759   2.420  52.423  1.00  0.00    -0.312 N 
HETATM   17  H24 UNL     1      22.042   2.792  53.380  1.00  0.00     0.185 HD
ENDBRANCH   1   7
BRANCH   4  18
HETATM   18  C9  UNL     1      24.100   6.681  48.584  1.00  0.00     0.155 C 
BRANCH  18  19
HETATM   19  C10 UNL     1      25.443   6.060  48.629  1.00  0.00    -0.041 A 
HETATM   20  C11 UNL     1      25.767   4.784  49.056  1.00  0.00     0.009 A 
HETATM   21  C12 UNL     1      27.083   4.395  49.030  1.00  0.00     0.001 A 
HETATM   22  C13 UNL     1      28.116   5.192  48.605  1.00  0.00     0.000 A 
HETATM   23  C14 UNL     1      27.840   6.489  48.163  1.00  0.00     0.001 A 
HETATM   24  C15 UNL     1      26.499   6.863  48.197  1.00  0.00     0.009 A 
ENDBRANCH  18  19
ENDBRANCH   4  18
TORSDOF 3
ENDMDL
MODEL 9
REMARK VINA RESULT:      -7.8      1.344      8.784
REMARK  3 active torsions:
REMARK  status: ('A' for Active; 'I' for Inactive)
REMARK    1  A    between atoms: N2_7  and  C6_8 
REMARK    2  A    between atoms: N3_11  and  C9_12 
REMARK    3  A    between atoms: C9_12  and  C10_13 
ROOT
HETATM    1  C6  UNL     1      23.887   1.673  52.975  1.00  0.00     0.107 C 
HETATM    2  C7  UNL     1      23.550   2.283  51.639  1.00  0.00     0.046 C 
HETATM    3  C8  UNL     1      22.099   2.192  51.263  1.00  0.00     0.119 C 
HETATM    4  N3  UNL     1      21.314   1.227  51.897  1.00  0.00    -0.408 N 
HETATM    5  C16 UNL     1      21.633   0.869  53.245  1.00  0.00     0.119 C 
HETATM    6  C17 UNL     1      23.083   0.415  53.268  1.00  0.00     0.046 C 
ENDROOT
BRANCH   1   7
HETATM    7  N2  UNL     1      25.219   1.433  53.172  1.00  0.00    -0.305 N 
HETATM    8  C5  UNL     1      26.176   2.496  53.276  1.00  0.00     0.267 C 
HETATM    9  N1  UNL     1      27.456   1.813  53.441  1.00  0.00    -0.361 N 
HETATM   10  C4  UNL     1      28.574   2.271  53.722  1.00  0.00     0.091 A 
HETATM   11  C3  UNL     1      28.774   0.830  53.574  1.00  0.00     0.152 A 
HETATM   12  C2  UNL     1      28.859  -0.448  53.425  1.00  0.00    -0.055 C 
HETATM   13  C1  UNL     1      30.017  -1.399  53.524  1.00  0.00     0.046 C 
HETATM   14  C19 UNL     1      27.681  -1.208  53.120  1.00  0.00     0.023 C 
HETATM   15  C18 UNL     1      26.382  -1.079  52.912  1.00  0.00     0.107 C 
HETATM   16  N4  UNL     1      25.790   0.205  52.979  1.00  0.00    -0.312 N 
HETATM   17  H24 UNL     1      25.723   0.259  54.041  1.00  0.00     0.185 HD
ENDBRANCH   1   7
BRANCH   4  18
HETATM   18  C9  UNL     1      20.685   0.219  51.133  1.00  0.00     0.155 C 
BRANCH  18  19
HETATM   19  C10 UNL     1      19.205   0.224  51.163  1.00  0.00    -0.041 A 
HETATM   20  C11 UNL     1      18.379  -0.369  52.102  1.00  0.00     0.009 A 
HETATM   21  C12 UNL     1      17.020  -0.259  51.947  1.00  0.00     0.001 A 
HETATM   22  C13 UNL     1      16.411   0.406  50.912  1.00  0.00     0.000 A 
HETATM   23  C14 UNL     1      17.202   1.023  49.938  1.00  0.00     0.001 A 
HETATM   24  C15 UNL     1      18.579   0.899  50.115  1.00  0.00     0.009 A 
ENDBRANCH  18  19
ENDBRANCH   4  18
TORSDOF 3
ENDMDL
