MODEL 1
REMARK VINA RESULT:      -9.8      0.000      0.000
REMARK  6 active torsions:
REMARK  status: ('A' for Active; 'I' for Inactive)
REMARK    1  A    between atoms: N1_1  and  C1_2 
REMARK    2  A    between atoms: C2_3  and  C3_4 
REMARK    3  A    between atoms: C6_7  and  O1_8 
REMARK    4  A    between atoms: C11_13  and  N2_14 
REMARK    5  A    between atoms: N2_14  and  C12_15 
REMARK    6  A    between atoms: C12_15  and  C13_16 
ROOT
HETATM    1  C1  UNL     1      25.461  -0.868  54.208  1.00  0.00     0.304 A 
HETATM    2  C2  UNL     1      24.404  -0.036  53.567  1.00  0.00    -0.008 A 
HETATM    3  C9  UNL     1      24.942   0.995  52.927  1.00  0.00     0.028 A 
HETATM    4  C10 UNL     1      26.392   0.969  53.066  1.00  0.00     0.037 A 
HETATM    5  C11 UNL     1      27.366   1.820  52.582  1.00  0.00     0.137 A 
HETATM    6  N3  UNL     1      28.649   1.532  52.881  1.00  0.00    -0.224 NA
HETATM    7  C19 UNL     1      28.937   0.440  53.630  1.00  0.00     0.235 A 
HETATM    8  N4  UNL     1      27.987  -0.400  54.109  1.00  0.00    -0.243 NA
HETATM    9  C20 UNL     1      26.700  -0.139  53.827  1.00  0.00     0.087 A 
ENDROOT
BRANCH   5  10
HETATM   10  N2  UNL     1      27.030   2.960  51.797  1.00  0.00    -0.370 N 
HETATM   11  H10 UNL     1      27.146   3.894  52.199  1.00  0.00     0.161 HD
BRANCH  10  12
HETATM   12  C12 UNL     1      26.536   2.767  50.447  1.00  0.00     0.160 C 
BRANCH  12  13
HETATM   13  C13 UNL     1      26.285   4.035  49.734  1.00  0.00    -0.040 A 
HETATM   14  C14 UNL     1      25.060   4.665  49.646  1.00  0.00     0.012 A 
HETATM   15  C15 UNL     1      25.006   5.855  48.934  1.00  0.00     0.043 A 
HETATM   16  C16 UNL     1      26.127   6.392  48.336  1.00  0.00     0.116 A 
HETATM   17  F1  UNL     1      26.030   7.563  47.645  1.00  0.00    -0.206 F 
HETATM   18  C17 UNL     1      27.356   5.764  48.423  1.00  0.00     0.043 A 
HETATM   19  C18 UNL     1      27.409   4.583  49.130  1.00  0.00     0.012 A 
ENDBRANCH  12  13
ENDBRANCH  10  12
ENDBRANCH   5  10
BRANCH   2  20
HETATM   20  C3  UNL     1      22.957  -0.334  53.643  1.00  0.00    -0.027 A 
HETATM   21  C4  UNL     1      22.491  -1.394  54.418  1.00  0.00     0.015 A 
HETATM   22  C5  UNL     1      21.111  -1.618  54.444  1.00  0.00     0.037 A 
HETATM   23  C6  UNL     1      20.219  -0.817  53.726  1.00  0.00     0.065 A 
HETATM   24  C7  UNL     1      20.699   0.221  52.971  1.00  0.00     0.037 A 
HETATM   25  C8  UNL     1      22.064   0.446  52.942  1.00  0.00     0.015 A 
BRANCH  23  26
HETATM   26  O1  UNL     1      18.875  -1.161  53.850  1.00  0.00    -0.361 OA
HETATM   27  H6  UNL     1      18.122  -0.496  53.970  1.00  0.00     0.217 HD
ENDBRANCH  23  26
ENDBRANCH   2  20
BRANCH   1  28
HETATM   28  N1  UNL     1      25.367  -0.746  55.668  1.00  0.00     0.093 N 
HETATM   29  H1  UNL     1      24.599  -1.410  55.954  1.00  0.00     0.314 HD
HETATM   30  H2  UNL     1      26.271  -0.989  56.118  1.00  0.00     0.314 HD
ENDBRANCH   1  28
TORSDOF 6
ENDMDL
MODEL 2
REMARK VINA RESULT:      -9.2      3.609      5.119
REMARK  6 active torsions:
REMARK  status: ('A' for Active; 'I' for Inactive)
REMARK    1  A    between atoms: N1_1  and  C1_2 
REMARK    2  A    between atoms: C2_3  and  C3_4 
REMARK    3  A    between atoms: C6_7  and  O1_8 
REMARK    4  A    between atoms: C11_13  and  N2_14 
REMARK    5  A    between atoms: N2_14  and  C12_15 
REMARK    6  A    between atoms: C12_15  and  C13_16 
ROOT
HETATM    1  C1  UNL     1      24.994   1.710  53.181  1.00  0.00     0.304 A 
HETATM    2  C2  UNL     1      26.116   1.222  52.329  1.00  0.00    -0.008 A 
HETATM    3  C9  UNL     1      26.314   2.038  51.301  1.00  0.00     0.028 A 
HETATM    4  C10 UNL     1      25.364   3.142  51.349  1.00  0.00     0.037 A 
HETATM    5  C11 UNL     1      25.185   4.223  50.508  1.00  0.00     0.137 A 
HETATM    6  N3  UNL     1      24.205   5.097  50.816  1.00  0.00    -0.224 NA
HETATM    7  C19 UNL     1      23.442   4.891  51.917  1.00  0.00     0.235 A 
HETATM    8  N4  UNL     1      23.610   3.833  52.748  1.00  0.00    -0.243 NA
HETATM    9  C20 UNL     1      24.580   2.946  52.466  1.00  0.00     0.087 A 
ENDROOT
BRANCH   5  10
HETATM   10  N2  UNL     1      26.004   4.411  49.359  1.00  0.00    -0.370 N 
HETATM   11  H10 UNL     1      26.547   3.620  49.000  1.00  0.00     0.161 HD
BRANCH  10  12
HETATM   12  C12 UNL     1      26.046   5.715  48.726  1.00  0.00     0.160 C 
BRANCH  12  13
HETATM   13  C13 UNL     1      27.420   6.197  48.480  1.00  0.00    -0.040 A 
HETATM   14  C14 UNL     1      27.787   7.523  48.376  1.00  0.00     0.012 A 
HETATM   15  C15 UNL     1      29.127   7.796  48.142  1.00  0.00     0.043 A 
HETATM   16  C16 UNL     1      30.061   6.787  48.020  1.00  0.00     0.116 A 
HETATM   17  F1  UNL     1      31.368   7.100  47.791  1.00  0.00    -0.206 F 
HETATM   18  C17 UNL     1      29.696   5.457  48.125  1.00  0.00     0.043 A 
HETATM   19  C18 UNL     1      28.366   5.187  48.357  1.00  0.00     0.012 A 
ENDBRANCH  12  13
ENDBRANCH  10  12
ENDBRANCH   5  10
BRANCH   2  20
HETATM   20  C3  UNL     1      26.892  -0.005  52.608  1.00  0.00    -0.027 A 
HETATM   21  C4  UNL     1      26.410  -1.253  52.221  1.00  0.00     0.015 A 
HETATM   22  C5  UNL     1      27.196  -2.371  52.517  1.00  0.00     0.037 A 
HETATM   23  C6  UNL     1      28.424  -2.257  53.176  1.00  0.00     0.065 A 
HETATM   24  C7  UNL     1      28.880  -1.019  53.547  1.00  0.00     0.037 A 
HETATM   25  C8  UNL     1      28.104   0.090  53.256  1.00  0.00     0.015 A 
BRANCH  23  26
HETATM   26  O1  UNL     1      29.094  -3.457  53.402  1.00  0.00    -0.361 OA
HETATM   27  H6  UNL     1      29.430  -3.765  54.306  1.00  0.00     0.217 HD
ENDBRANCH  23  26
ENDBRANCH   2  20
BRANCH   1  28
HETATM   28  N1  UNL     1      23.854   0.791  53.068  1.00  0.00     0.093 N 
HETATM   29  H1  UNL     1      23.487   0.922  52.088  1.00  0.00     0.314 HD
HETATM   30  H2  UNL     1      24.151  -0.189  53.239  1.00  0.00     0.314 HD
ENDBRANCH   1  28
TORSDOF 6
ENDMDL
MODEL 3
REMARK VINA RESULT:      -9.2      4.232      7.961
REMARK  6 active torsions:
REMARK  status: ('A' for Active; 'I' for Inactive)
REMARK    1  A    between atoms: N1_1  and  C1_2 
REMARK    2  A    between atoms: C2_3  and  C3_4 
REMARK    3  A    between atoms: C6_7  and  O1_8 
REMARK    4  A    between atoms: C11_13  and  N2_14 
REMARK    5  A    between atoms: N2_14  and  C12_15 
REMARK    6  A    between atoms: C12_15  and  C13_16 
ROOT
HETATM    1  C1  UNL     1      23.563   3.096  49.146  1.00  0.00     0.304 A 
HETATM    2  C2  UNL     1      24.792   3.494  49.889  1.00  0.00    -0.008 A 
HETATM    3  C9  UNL     1      24.874   2.844  51.043  1.00  0.00     0.028 A 
HETATM    4  C10 UNL     1      23.730   1.954  51.198  1.00  0.00     0.037 A 
HETATM    5  C11 UNL     1      23.385   1.089  52.218  1.00  0.00     0.137 A 
HETATM    6  N3  UNL     1      22.244   0.383  52.077  1.00  0.00    -0.224 NA
HETATM    7  C19 UNL     1      21.489   0.542  50.963  1.00  0.00     0.235 A 
HETATM    8  N4  UNL     1      21.820   1.389  49.957  1.00  0.00    -0.243 NA
HETATM    9  C20 UNL     1      22.952   2.105  50.071  1.00  0.00     0.087 A 
ENDROOT
BRANCH   5  10
HETATM   10  N2  UNL     1      24.201   0.945  53.376  1.00  0.00    -0.370 N 
HETATM   11  H10 UNL     1      24.454   1.779  53.914  1.00  0.00     0.161 HD
BRANCH  10  12
HETATM   12  C12 UNL     1      24.650  -0.377  53.764  1.00  0.00     0.160 C 
BRANCH  12  13
HETATM   13  C13 UNL     1      26.118  -0.528  53.722  1.00  0.00    -0.040 A 
HETATM   14  C14 UNL     1      26.806  -1.329  52.834  1.00  0.00     0.012 A 
HETATM   15  C15 UNL     1      28.190  -1.351  52.936  1.00  0.00     0.043 A 
HETATM   16  C16 UNL     1      28.857  -0.603  53.885  1.00  0.00     0.116 A 
HETATM   17  F1  UNL     1      30.218  -0.654  53.951  1.00  0.00    -0.206 F 
HETATM   18  C17 UNL     1      28.170   0.202  54.776  1.00  0.00     0.043 A 
HETATM   19  C18 UNL     1      26.797   0.222  54.673  1.00  0.00     0.012 A 
ENDBRANCH  12  13
ENDBRANCH  10  12
ENDBRANCH   5  10
BRANCH   2  20
HETATM   20  C3  UNL     1      25.775   4.481  49.392  1.00  0.00    -0.027 A 
HETATM   21  C4  UNL     1      27.058   4.082  49.025  1.00  0.00     0.015 A 
HETATM   22  C5  UNL     1      27.935   5.068  48.563  1.00  0.00     0.037 A 
HETATM   23  C6  UNL     1      27.554   6.409  48.467  1.00  0.00     0.065 A 
HETATM   24  C7  UNL     1      26.287   6.780  48.833  1.00  0.00     0.037 A 
HETATM   25  C8  UNL     1      25.415   5.807  49.290  1.00  0.00     0.015 A 
BRANCH  23  26
HETATM   26  O1  UNL     1      28.534   7.276  47.990  1.00  0.00    -0.361 OA
HETATM   27  H6  UNL     1      29.077   7.903  48.571  1.00  0.00     0.217 HD
ENDBRANCH  23  26
ENDBRANCH   2  20
BRANCH   1  28
HETATM   28  N1  UNL     1      22.624   4.224  49.104  1.00  0.00     0.093 N 
HETATM   29  H1  UNL     1      22.262   4.322  50.090  1.00  0.00     0.314 HD
HETATM   30  H2  UNL     1      23.101   5.089  48.784  1.00  0.00     0.314 HD
ENDBRANCH   1  28
TORSDOF 6
ENDMDL
MODEL 4
REMARK VINA RESULT:      -9.2      4.167      7.506
REMARK  6 active torsions:
REMARK  status: ('A' for Active; 'I' for Inactive)
REMARK    1  A    between atoms: N1_1  and  C1_2 
REMARK    2  A    between atoms: C2_3  and  C3_4 
REMARK    3  A    between atoms: C6_7  and  O1_8 
REMARK    4  A    between atoms: C11_13  and  N2_14 
REMARK    5  A    between atoms: N2_14  and  C12_15 
REMARK    6  A    between atoms: C12_15  and  C13_16 
ROOT
HETATM    1  C1  UNL     1      25.725   2.848  50.264  1.00  0.00     0.304 A 
HETATM    2  C2  UNL     1      25.530   2.142  51.562  1.00  0.00    -0.008 A 
HETATM    3  C9  UNL     1      24.285   2.293  51.997  1.00  0.00     0.028 A 
HETATM    4  C10 UNL     1      23.522   3.103  51.055  1.00  0.00     0.037 A 
HETATM    5  C11 UNL     1      22.206   3.522  51.078  1.00  0.00     0.137 A 
HETATM    6  N3  UNL     1      21.775   4.277  50.046  1.00  0.00    -0.224 NA
HETATM    7  C19 UNL     1      22.628   4.593  49.041  1.00  0.00     0.235 A 
HETATM    8  N4  UNL     1      23.921   4.185  49.012  1.00  0.00    -0.243 NA
HETATM    9  C20 UNL     1      24.378   3.432  50.027  1.00  0.00     0.087 A 
ENDROOT
BRANCH   5  10
HETATM   10  N2  UNL     1      21.335   3.173  52.149  1.00  0.00    -0.370 N 
HETATM   11  H10 UNL     1      21.294   3.776  52.975  1.00  0.00     0.161 HD
BRANCH  10  12
HETATM   12  C12 UNL     1      20.528   1.973  52.040  1.00  0.00     0.160 C 
BRANCH  12  13
HETATM   13  C13 UNL     1      21.091   0.826  52.780  1.00  0.00    -0.040 A 
HETATM   14  C14 UNL     1      21.910  -0.142  52.235  1.00  0.00     0.012 A 
HETATM   15  C15 UNL     1      22.349  -1.153  53.078  1.00  0.00     0.043 A 
HETATM   16  C16 UNL     1      21.987  -1.193  54.409  1.00  0.00     0.116 A 
HETATM   17  F1  UNL     1      22.442  -2.204  55.203  1.00  0.00    -0.206 F 
HETATM   18  C17 UNL     1      21.167  -0.224  54.959  1.00  0.00     0.043 A 
HETATM   19  C18 UNL     1      20.732   0.779  54.120  1.00  0.00     0.012 A 
ENDBRANCH  12  13
ENDBRANCH  10  12
ENDBRANCH   5  10
BRANCH   2  20
HETATM   20  C3  UNL     1      26.591   1.380  52.256  1.00  0.00    -0.027 A 
HETATM   21  C4  UNL     1      27.596   2.042  52.958  1.00  0.00     0.015 A 
HETATM   22  C5  UNL     1      28.567   1.259  53.590  1.00  0.00     0.037 A 
HETATM   23  C6  UNL     1      28.544  -0.138  53.530  1.00  0.00     0.065 A 
HETATM   24  C7  UNL     1      27.546  -0.768  52.833  1.00  0.00     0.037 A 
HETATM   25  C8  UNL     1      26.583   0.004  52.206  1.00  0.00     0.015 A 
BRANCH  23  26
HETATM   26  O1  UNL     1      29.575  -0.782  54.208  1.00  0.00    -0.361 OA
HETATM   27  H6  UNL     1      29.957  -1.683  53.949  1.00  0.00     0.217 HD
ENDBRANCH  23  26
ENDBRANCH   2  20
BRANCH   1  28
HETATM   28  N1  UNL     1      26.621   3.995  50.456  1.00  0.00     0.093 N 
HETATM   29  H1  UNL     1      26.658   4.148  51.499  1.00  0.00     0.314 HD
HETATM   30  H2  UNL     1      27.563   3.797  50.065  1.00  0.00     0.314 HD
ENDBRANCH   1  28
TORSDOF 6
ENDMDL
MODEL 5
REMARK VINA RESULT:      -9.2      2.650      4.172
REMARK  6 active torsions:
REMARK  status: ('A' for Active; 'I' for Inactive)
REMARK    1  A    between atoms: N1_1  and  C1_2 
REMARK    2  A    between atoms: C2_3  and  C3_4 
REMARK    3  A    between atoms: C6_7  and  O1_8 
REMARK    4  A    between atoms: C11_13  and  N2_14 
REMARK    5  A    between atoms: N2_14  and  C12_15 
REMARK    6  A    between atoms: C12_15  and  C13_16 
ROOT
HETATM    1  C1  UNL     1      21.204  -0.811  53.999  1.00  0.00     0.304 A 
HETATM    2  C2  UNL     1      21.458  -0.140  52.692  1.00  0.00    -0.008 A 
HETATM    3  C9  UNL     1      22.756   0.066  52.515  1.00  0.00     0.028 A 
HETATM    4  C10 UNL     1      23.504  -0.436  53.661  1.00  0.00     0.037 A 
HETATM    5  C11 UNL     1      24.859  -0.446  53.927  1.00  0.00     0.137 A 
HETATM    6  N3  UNL     1      25.260  -0.989  55.095  1.00  0.00    -0.224 NA
HETATM    7  C19 UNL     1      24.341  -1.496  55.952  1.00  0.00     0.235 A 
HETATM    8  N4  UNL     1      23.009  -1.491  55.698  1.00  0.00    -0.243 NA
HETATM    9  C20 UNL     1      22.580  -0.956  54.543  1.00  0.00     0.087 A 
ENDROOT
BRANCH   5  10
HETATM   10  N2  UNL     1      25.799   0.096  53.005  1.00  0.00    -0.370 N 
HETATM   11  H10 UNL     1      26.183  -0.508  52.273  1.00  0.00     0.161 HD
BRANCH  10  12
HETATM   12  C12 UNL     1      26.187   1.488  53.126  1.00  0.00     0.160 C 
BRANCH  12  13
HETATM   13  C13 UNL     1      25.217   2.417  52.512  1.00  0.00    -0.040 A 
HETATM   14  C14 UNL     1      24.360   3.242  53.210  1.00  0.00     0.012 A 
HETATM   15  C15 UNL     1      23.512   4.053  52.469  1.00  0.00     0.043 A 
HETATM   16  C16 UNL     1      23.521   4.040  51.089  1.00  0.00     0.116 A 
HETATM   17  F1  UNL     1      22.671   4.852  50.400  1.00  0.00    -0.206 F 
HETATM   18  C17 UNL     1      24.379   3.213  50.386  1.00  0.00     0.043 A 
HETATM   19  C18 UNL     1      25.221   2.409  51.123  1.00  0.00     0.012 A 
ENDBRANCH  12  13
ENDBRANCH  10  12
ENDBRANCH   5  10
BRANCH   2  20
HETATM   20  C3  UNL     1      20.393   0.238  51.737  1.00  0.00    -0.027 A 
HETATM   21  C4  UNL     1      19.075  -0.156  51.951  1.00  0.00     0.015 A 
HETATM   22  C5  UNL     1      18.121   0.236  51.008  1.00  0.00     0.037 A 
HETATM   23  C6  UNL     1      18.461   0.997  49.885  1.00  0.00     0.065 A 
HETATM   24  C7  UNL     1      19.765   1.374  49.694  1.00  0.00     0.037 A 
HETATM   25  C8  UNL     1      20.712   0.987  50.626  1.00  0.00     0.015 A 
BRANCH  23  26
HETATM   26  O1  UNL     1      17.405   1.312  49.034  1.00  0.00    -0.361 OA
HETATM   27  H6  UNL     1      16.625   0.698  48.837  1.00  0.00     0.217 HD
ENDBRANCH  23  26
ENDBRANCH   2  20
BRANCH   1  28
HETATM   28  N1  UNL     1      20.520   0.119  54.907  1.00  0.00     0.093 N 
HETATM   29  H1  UNL     1      19.504   0.088  54.623  1.00  0.00     0.314 HD
HETATM   30  H2  UNL     1      20.651  -0.168  55.896  1.00  0.00     0.314 HD
ENDBRANCH   1  28
TORSDOF 6
ENDMDL
MODEL 6
REMARK VINA RESULT:      -9.1      3.263      5.179
REMARK  6 active torsions:
REMARK  status: ('A' for Active; 'I' for Inactive)
REMARK    1  A    between atoms: N1_1  and  C1_2 
REMARK    2  A    between atoms: C2_3  and  C3_4 
REMARK    3  A    between atoms: C6_7  and  O1_8 
REMARK    4  A    between atoms: C11_13  and  N2_14 
REMARK    5  A    between atoms: N2_14  and  C12_15 
REMARK    6  A    between atoms: C12_15  and  C13_16 
ROOT
HETATM    1  C1  UNL     1      23.216   0.523  53.435  1.00  0.00     0.304 A 
HETATM    2  C2  UNL     1      24.492   0.836  52.731  1.00  0.00    -0.008 A 
HETATM    3  C9  UNL     1      24.274   1.650  51.705  1.00  0.00     0.028 A 
HETATM    4  C10 UNL     1      22.855   1.966  51.610  1.00  0.00     0.037 A 
HETATM    5  C11 UNL     1      22.160   2.759  50.718  1.00  0.00     0.137 A 
HETATM    6  N3  UNL     1      20.825   2.862  50.886  1.00  0.00    -0.224 NA
HETATM    7  C19 UNL     1      20.221   2.198  51.900  1.00  0.00     0.235 A 
HETATM    8  N4  UNL     1      20.896   1.417  52.779  1.00  0.00    -0.243 NA
HETATM    9  C20 UNL     1      22.227   1.295  52.638  1.00  0.00     0.087 A 
ENDROOT
BRANCH   5  10
HETATM   10  N2  UNL     1      22.825   3.445  49.662  1.00  0.00    -0.370 N 
HETATM   11  H10 UNL     1      22.931   2.980  48.756  1.00  0.00     0.161 HD
BRANCH  10  12
HETATM   12  C12 UNL     1      23.331   4.784  49.897  1.00  0.00     0.160 C 
BRANCH  12  13
HETATM   13  C13 UNL     1      24.724   4.965  49.443  1.00  0.00    -0.040 A 
HETATM   14  C14 UNL     1      25.233   6.124  48.894  1.00  0.00     0.012 A 
HETATM   15  C15 UNL     1      26.570   6.119  48.521  1.00  0.00     0.043 A 
HETATM   16  C16 UNL     1      27.364   5.003  48.690  1.00  0.00     0.116 A 
HETATM   17  F1  UNL     1      28.673   5.041  48.310  1.00  0.00    -0.206 F 
HETATM   18  C17 UNL     1      26.857   3.840  49.241  1.00  0.00     0.043 A 
HETATM   19  C18 UNL     1      25.530   3.846  49.611  1.00  0.00     0.012 A 
ENDBRANCH  12  13
ENDBRANCH  10  12
ENDBRANCH   5  10
BRANCH   2  20
HETATM   20  C3  UNL     1      25.811   0.304  53.136  1.00  0.00    -0.027 A 
HETATM   21  C4  UNL     1      26.456  -0.659  52.363  1.00  0.00     0.015 A 
HETATM   22  C5  UNL     1      27.700  -1.117  52.806  1.00  0.00     0.037 A 
HETATM   23  C6  UNL     1      28.290  -0.635  53.978  1.00  0.00     0.065 A 
HETATM   24  C7  UNL     1      27.639   0.312  54.723  1.00  0.00     0.037 A 
HETATM   25  C8  UNL     1      26.407   0.768  54.288  1.00  0.00     0.015 A 
BRANCH  23  26
HETATM   26  O1  UNL     1      29.531  -1.185  54.291  1.00  0.00    -0.361 OA
HETATM   27  H6  UNL     1      29.824  -1.444  55.225  1.00  0.00     0.217 HD
ENDBRANCH  23  26
ENDBRANCH   2  20
BRANCH   1  28
HETATM   28  N1  UNL     1      22.871  -0.889  53.225  1.00  0.00     0.093 N 
HETATM   29  H1  UNL     1      22.240  -0.899  52.380  1.00  0.00     0.314 HD
HETATM   30  H2  UNL     1      23.725  -1.459  53.073  1.00  0.00     0.314 HD
ENDBRANCH   1  28
TORSDOF 6
ENDMDL
MODEL 7
REMARK VINA RESULT:      -8.9      4.252      7.969
REMARK  6 active torsions:
REMARK  status: ('A' for Active; 'I' for Inactive)
REMARK    1  A    between atoms: N1_1  and  C1_2 
REMARK    2  A    between atoms: C2_3  and  C3_4 
REMARK    3  A    between atoms: C6_7  and  O1_8 
REMARK    4  A    between atoms: C11_13  and  N2_14 
REMARK    5  A    between atoms: N2_14  and  C12_15 
REMARK    6  A    between atoms: C12_15  and  C13_16 
ROOT
HETATM    1  C1  UNL     1      23.683   5.609  50.551  1.00  0.00     0.304 A 
HETATM    2  C2  UNL     1      24.835   4.758  50.135  1.00  0.00    -0.008 A 
HETATM    3  C9  UNL     1      24.644   3.498  50.504  1.00  0.00     0.028 A 
HETATM    4  C10 UNL     1      23.367   3.366  51.194  1.00  0.00     0.037 A 
HETATM    5  C11 UNL     1      22.746   2.266  51.752  1.00  0.00     0.137 A 
HETATM    6  N3  UNL     1      21.544   2.458  52.334  1.00  0.00    -0.224 NA
HETATM    7  C19 UNL     1      20.996   3.697  52.354  1.00  0.00     0.235 A 
HETATM    8  N4  UNL     1      21.599   4.782  51.809  1.00  0.00    -0.243 NA
HETATM    9  C20 UNL     1      22.797   4.621  51.222  1.00  0.00     0.087 A 
ENDROOT
BRANCH   5  10
HETATM   10  N2  UNL     1      23.349   0.976  51.715  1.00  0.00    -0.370 N 
HETATM   11  H10 UNL     1      23.401   0.477  50.822  1.00  0.00     0.161 HD
BRANCH  10  12
HETATM   12  C12 UNL     1      23.873   0.405  52.940  1.00  0.00     0.160 C 
BRANCH  12  13
HETATM   13  C13 UNL     1      25.347   0.442  53.014  1.00  0.00    -0.040 A 
HETATM   14  C14 UNL     1      26.182  -0.607  52.692  1.00  0.00     0.012 A 
HETATM   15  C15 UNL     1      27.548  -0.397  52.820  1.00  0.00     0.043 A 
HETATM   16  C16 UNL     1      28.057   0.811  53.250  1.00  0.00     0.116 A 
HETATM   17  F1  UNL     1      29.406   0.975  53.362  1.00  0.00    -0.206 F 
HETATM   18  C17 UNL     1      27.222   1.866  53.574  1.00  0.00     0.043 A 
HETATM   19  C18 UNL     1      25.867   1.656  53.446  1.00  0.00     0.012 A 
ENDBRANCH  12  13
ENDBRANCH  10  12
ENDBRANCH   5  10
BRANCH   2  20
HETATM   20  C3  UNL     1      26.020   5.267  49.411  1.00  0.00    -0.027 A 
HETATM   21  C4  UNL     1      27.106   4.435  49.154  1.00  0.00     0.015 A 
HETATM   22  C5  UNL     1      28.192   4.983  48.465  1.00  0.00     0.037 A 
HETATM   23  C6  UNL     1      28.202   6.315  48.042  1.00  0.00     0.065 A 
HETATM   24  C7  UNL     1      27.122   7.117  48.305  1.00  0.00     0.037 A 
HETATM   25  C8  UNL     1      26.045   6.578  48.987  1.00  0.00     0.015 A 
BRANCH  23  26
HETATM   26  O1  UNL     1      29.352   6.719  47.367  1.00  0.00    -0.361 OA
HETATM   27  H6  UNL     1      29.642   6.363  46.465  1.00  0.00     0.217 HD
ENDBRANCH  23  26
ENDBRANCH   2  20
BRANCH   1  28
HETATM   28  N1  UNL     1      24.110   6.535  51.607  1.00  0.00     0.093 N 
HETATM   29  H1  UNL     1      23.251   7.099  51.847  1.00  0.00     0.314 HD
HETATM   30  H2  UNL     1      24.469   6.014  52.431  1.00  0.00     0.314 HD
ENDBRANCH   1  28
TORSDOF 6
ENDMDL
MODEL 8
REMARK VINA RESULT:      -8.9      4.873      8.883
REMARK  6 active torsions:
REMARK  status: ('A' for Active; 'I' for Inactive)
REMARK    1  A    between atoms: N1_1  and  C1_2 
REMARK    2  A    between atoms: C2_3  and  C3_4 
REMARK    3  A    between atoms: C6_7  and  O1_8 
REMARK    4  A    between atoms: C11_13  and  N2_14 
REMARK    5  A    between atoms: N2_14  and  C12_15 
REMARK    6  A    between atoms: C12_15  and  C13_16 
ROOT
HETATM    1  C1  UNL     1      25.489   6.587  49.787  1.00  0.00     0.304 A 
HETATM    2  C2  UNL     1      26.566   5.710  49.246  1.00  0.00    -0.008 A 
HETATM    3  C9  UNL     1      26.377   4.450  49.617  1.00  0.00     0.028 A 
HETATM    4  C10 UNL     1      25.174   4.344  50.433  1.00  0.00     0.037 A 
HETATM    5  C11 UNL     1      24.581   3.254  51.038  1.00  0.00     0.137 A 
HETATM    6  N3  UNL     1      23.451   3.470  51.742  1.00  0.00    -0.224 NA
HETATM    7  C19 UNL     1      22.945   4.724  51.833  1.00  0.00     0.235 A 
HETATM    8  N4  UNL     1      23.521   5.800  51.242  1.00  0.00    -0.243 NA
HETATM    9  C20 UNL     1      24.647   5.614  50.533  1.00  0.00     0.087 A 
ENDROOT
BRANCH   5  10
HETATM   10  N2  UNL     1      25.138   1.948  50.923  1.00  0.00    -0.370 N 
HETATM   11  H10 UNL     1      25.538   1.654  50.028  1.00  0.00     0.161 HD
BRANCH  10  12
HETATM   12  C12 UNL     1      25.126   1.071  52.078  1.00  0.00     0.160 C 
BRANCH  12  13
HETATM   13  C13 UNL     1      26.479   0.739  52.569  1.00  0.00    -0.040 A 
HETATM   14  C14 UNL     1      27.439   1.662  52.927  1.00  0.00     0.012 A 
HETATM   15  C15 UNL     1      28.660   1.172  53.369  1.00  0.00     0.043 A 
HETATM   16  C16 UNL     1      28.909  -0.183  53.449  1.00  0.00     0.116 A 
HETATM   17  F1  UNL     1      30.123  -0.622  53.889  1.00  0.00    -0.206 F 
HETATM   18  C17 UNL     1      27.948  -1.111  53.091  1.00  0.00     0.043 A 
HETATM   19  C18 UNL     1      26.737  -0.623  52.653  1.00  0.00     0.012 A 
ENDBRANCH  12  13
ENDBRANCH  10  12
ENDBRANCH   5  10
BRANCH   2  20
HETATM   20  C3  UNL     1      27.686   6.197  48.411  1.00  0.00    -0.027 A 
HETATM   21  C4  UNL     1      28.907   5.527  48.401  1.00  0.00     0.015 A 
HETATM   22  C5  UNL     1      29.921   6.043  47.587  1.00  0.00     0.037 A 
HETATM   23  C6  UNL     1      29.731   7.187  46.807  1.00  0.00     0.065 A 
HETATM   24  C7  UNL     1      28.522   7.830  46.831  1.00  0.00     0.037 A 
HETATM   25  C8  UNL     1      27.515   7.322  47.635  1.00  0.00     0.015 A 
BRANCH  23  26
HETATM   26  O1  UNL     1      30.831   7.581  46.048  1.00  0.00    -0.361 OA
HETATM   27  H6  UNL     1      30.831   7.667  45.040  1.00  0.00     0.217 HD
ENDBRANCH  23  26
ENDBRANCH   2  20
BRANCH   1  28
HETATM   28  N1  UNL     1      26.048   7.484  50.806  1.00  0.00     0.093 N 
HETATM   29  H1  UNL     1      26.842   7.988  50.328  1.00  0.00     0.314 HD
HETATM   30  H2  UNL     1      25.327   8.146  51.150  1.00  0.00     0.314 HD
ENDBRANCH   1  28
TORSDOF 6
ENDMDL
MODEL 9
REMARK VINA RESULT:      -8.7      3.233      5.761
REMARK  6 active torsions:
REMARK  status: ('A' for Active; 'I' for Inactive)
REMARK    1  A    between atoms: N1_1  and  C1_2 
REMARK    2  A    between atoms: C2_3  and  C3_4 
REMARK    3  A    between atoms: C6_7  and  O1_8 
REMARK    4  A    between atoms: C11_13  and  N2_14 
REMARK    5  A    between atoms: N2_14  and  C12_15 
REMARK    6  A    between atoms: C12_15  and  C13_16 
ROOT
HETATM    1  C1  UNL     1      21.839   2.886  51.177  1.00  0.00     0.304 A 
HETATM    2  C2  UNL     1      22.261   1.603  51.805  1.00  0.00    -0.008 A 
HETATM    3  C9  UNL     1      23.579   1.461  51.743  1.00  0.00     0.028 A 
HETATM    4  C10 UNL     1      24.175   2.612  51.077  1.00  0.00     0.037 A 
HETATM    5  C11 UNL     1      25.491   2.911  50.784  1.00  0.00     0.137 A 
HETATM    6  N3  UNL     1      25.740   4.074  50.149  1.00  0.00    -0.224 NA
HETATM    7  C19 UNL     1      24.713   4.896  49.824  1.00  0.00     0.235 A 
HETATM    8  N4  UNL     1      23.418   4.611  50.108  1.00  0.00    -0.243 NA
HETATM    9  C20 UNL     1      23.140   3.459  50.741  1.00  0.00     0.087 A 
ENDROOT
BRANCH   5  10
HETATM   10  N2  UNL     1      26.549   2.025  51.139  1.00  0.00    -0.370 N 
HETATM   11  H10 UNL     1      26.963   1.430  50.416  1.00  0.00     0.161 HD
BRANCH  10  12
HETATM   12  C12 UNL     1      27.011   1.990  52.513  1.00  0.00     0.160 C 
BRANCH  12  13
HETATM   13  C13 UNL     1      27.752   0.758  52.845  1.00  0.00    -0.040 A 
HETATM   14  C14 UNL     1      29.003   0.719  53.427  1.00  0.00     0.012 A 
HETATM   15  C15 UNL     1      29.554  -0.531  53.671  1.00  0.00     0.043 A 
HETATM   16  C16 UNL     1      28.882  -1.693  53.347  1.00  0.00     0.116 A 
HETATM   17  F1  UNL     1      29.460  -2.901  53.604  1.00  0.00    -0.206 F 
HETATM   18  C17 UNL     1      27.628  -1.657  52.764  1.00  0.00     0.043 A 
HETATM   19  C18 UNL     1      27.083  -0.415  52.523  1.00  0.00     0.012 A 
ENDBRANCH  12  13
ENDBRANCH  10  12
ENDBRANCH   5  10
BRANCH   2  20
HETATM   20  C3  UNL     1      21.324   0.632  52.412  1.00  0.00    -0.027 A 
HETATM   21  C4  UNL     1      19.993   0.583  52.007  1.00  0.00     0.015 A 
HETATM   22  C5  UNL     1      19.164  -0.360  52.623  1.00  0.00     0.037 A 
HETATM   23  C6  UNL     1      19.639  -1.229  53.610  1.00  0.00     0.065 A 
HETATM   24  C7  UNL     1      20.953  -1.163  53.993  1.00  0.00     0.037 A 
HETATM   25  C8  UNL     1      21.777  -0.232  53.385  1.00  0.00     0.015 A 
BRANCH  23  26
HETATM   26  O1  UNL     1      18.697  -2.112  54.131  1.00  0.00    -0.361 OA
HETATM   27  H6  UNL     1      17.971  -2.562  53.589  1.00  0.00     0.217 HD
ENDBRANCH  23  26
ENDBRANCH   2  20
BRANCH   1  28
HETATM   28  N1  UNL     1      21.098   2.609  49.939  1.00  0.00     0.093 N 
HETATM   29  H1  UNL     1      20.354   3.355  49.887  1.00  0.00     0.314 HD
HETATM   30  H2  UNL     1      21.730   2.641  49.116  1.00  0.00     0.314 HD
ENDBRANCH   1  28
TORSDOF 6
ENDMDL
