MODEL 1
REMARK VINA RESULT:      -7.7      0.000      0.000
REMARK  12 active torsions:
REMARK  status: ('A' for Active; 'I' for Inactive)
REMARK    1  A    between atoms: C2_2  and  C3_3 
REMARK    2  A    between atoms: C4_4  and  C5_5 
REMARK       I    between atoms: C5_5  and  N1_7 
REMARK    3  A    between atoms: N1_7  and  C6_8 
REMARK    4  A    between atoms: N1_7  and  C15_18 
REMARK    5  A    between atoms: C6_8  and  C7_9 
REMARK    6  A    between atoms: C7_9  and  C9_11 
REMARK    7  A    between atoms: C9_11  and  C10_12 
REMARK    8  A    between atoms: C10_12  and  C11_13 
REMARK    9  A    between atoms: C11_13  and  C12_14 
REMARK   10  A    between atoms: C12_14  and  C13_15 
REMARK   11  A    between atoms: C13_15  and  O2_16 
REMARK   12  A    between atoms: C17_20  and  N2_21 
ROOT
HETATM    1  C5  UNL     1      25.223  -0.539  53.936  1.00  0.00     0.255 C 
HETATM    2  O1  UNL     1      26.191  -0.957  54.622  1.00  0.00    -0.267 OA
HETATM    3  N1  UNL     1      25.645   0.180  52.730  1.00  0.00    -0.297 N 
ENDROOT
BRANCH   3   4
HETATM    4  C6  UNL     1      26.050   0.871  51.572  1.00  0.00     0.158 C 
BRANCH   4   5
HETATM    5  C7  UNL     1      25.587   2.288  51.485  1.00  0.00     0.056 C 
HETATM    6  C8  UNL     1      24.653   2.644  52.585  1.00  0.00     0.033 C 
BRANCH   5   7
HETATM    7  C9  UNL     1      26.009   3.054  50.519  1.00  0.00    -0.093 C 
BRANCH   7   8
HETATM    8  C10 UNL     1      26.667   3.658  49.572  1.00  0.00    -0.100 C 
BRANCH   8   9
HETATM    9  C11 UNL     1      27.236   4.602  48.842  1.00  0.00     0.083 C 
BRANCH   9  10
HETATM   10  C12 UNL     1      26.656   5.981  48.870  1.00  0.00     0.044 C 
BRANCH  10  11
HETATM   11  C13 UNL     1      27.475   6.947  48.074  1.00  0.00     0.168 C 
BRANCH  11  12
HETATM   12  O2  UNL     1      28.806   6.942  48.403  1.00  0.00    -0.396 OA
HETATM   13  C14 UNL     1      29.687   7.057  47.353  1.00  0.00     0.201 C 
ENDBRANCH  11  12
ENDBRANCH  10  11
ENDBRANCH   9  10
ENDBRANCH   8   9
ENDBRANCH   7   8
ENDBRANCH   5   7
ENDBRANCH   4   5
ENDBRANCH   3   4
BRANCH   3  14
HETATM   14  C15 UNL     1      27.004  -0.097  53.177  1.00  0.00     0.137 A 
HETATM   15  C16 UNL     1      27.729   0.950  53.761  1.00  0.00     0.100 A 
HETATM   16  C17 UNL     1      29.056   0.913  54.225  1.00  0.00     0.126 A 
HETATM   17  N3  UNL     1      29.608  -0.295  54.047  1.00  0.00    -0.225 NA
HETATM   18  C18 UNL     1      28.944  -1.324  53.492  1.00  0.00     0.237 A 
HETATM   19  N4  UNL     1      27.658  -1.243  53.056  1.00  0.00    -0.224 NA
BRANCH  16  20
HETATM   20  N2  UNL     1      29.613   2.087  54.787  1.00  0.00    -0.384 N 
HETATM   21  H20 UNL     1      29.732   2.825  54.036  1.00  0.00     0.157 HD
HETATM   22  H21 UNL     1      29.820   2.051  55.828  1.00  0.00     0.157 HD
ENDBRANCH  16  20
ENDBRANCH   3  14
BRANCH   1  23
HETATM   23  C4  UNL     1      23.800  -0.721  54.253  1.00  0.00     0.013 A 
HETATM   24  C3  UNL     1      22.686  -0.499  53.661  1.00  0.00    -0.068 A 
HETATM   25  C20 UNL     1      21.883  -1.001  54.768  1.00  0.00     0.040 A 
HETATM   26  C19 UNL     1      23.182  -1.261  55.451  1.00  0.00     0.049 A 
BRANCH  24  27
HETATM   27  C2  UNL     1      22.153   0.038  52.382  1.00  0.00     0.030 C 
HETATM   28  C1  UNL     1      21.171   1.132  52.745  1.00  0.00     0.010 C 
ENDBRANCH  24  27
ENDBRANCH   1  23
TORSDOF 12
ENDMDL
MODEL 2
REMARK VINA RESULT:      -7.6      2.983      3.836
REMARK  12 active torsions:
REMARK  status: ('A' for Active; 'I' for Inactive)
REMARK    1  A    between atoms: C2_2  and  C3_3 
REMARK    2  A    between atoms: C4_4  and  C5_5 
REMARK       I    between atoms: C5_5  and  N1_7 
REMARK    3  A    between atoms: N1_7  and  C6_8 
REMARK    4  A    between atoms: N1_7  and  C15_18 
REMARK    5  A    between atoms: C6_8  and  C7_9 
REMARK    6  A    between atoms: C7_9  and  C9_11 
REMARK    7  A    between atoms: C9_11  and  C10_12 
REMARK    8  A    between atoms: C10_12  and  C11_13 
REMARK    9  A    between atoms: C11_13  and  C12_14 
REMARK   10  A    between atoms: C12_14  and  C13_15 
REMARK   11  A    between atoms: C13_15  and  O2_16 
REMARK   12  A    between atoms: C17_20  and  N2_21 
ROOT
HETATM    1  C5  UNL     1      24.959  -0.471  53.840  1.00  0.00     0.255 C 
HETATM    2  O1  UNL     1      25.953  -1.024  54.377  1.00  0.00    -0.267 OA
HETATM    3  N1  UNL     1      25.333   0.503  52.811  1.00  0.00    -0.297 N 
ENDROOT
BRANCH   3   4
HETATM    4  C6  UNL     1      25.692   1.439  51.821  1.00  0.00     0.158 C 
BRANCH   4   5
HETATM    5  C7  UNL     1      24.719   2.553  51.621  1.00  0.00     0.056 C 
HETATM    6  C8  UNL     1      24.295   3.168  52.905  1.00  0.00     0.033 C 
BRANCH   5   7
HETATM    7  C9  UNL     1      24.342   2.881  50.417  1.00  0.00    -0.093 C 
BRANCH   7   8
HETATM    8  C10 UNL     1      23.711   3.107  49.301  1.00  0.00    -0.100 C 
BRANCH   8   9
HETATM    9  C11 UNL     1      22.791   3.092  48.352  1.00  0.00     0.083 C 
BRANCH   9  10
HETATM   10  C12 UNL     1      22.173   1.784  47.969  1.00  0.00     0.044 C 
BRANCH  10  11
HETATM   11  C13 UNL     1      21.011   1.438  48.844  1.00  0.00     0.168 C 
BRANCH  11  12
HETATM   12  O2  UNL     1      19.897   2.203  48.609  1.00  0.00    -0.396 OA
HETATM   13  C14 UNL     1      19.309   2.766  49.716  1.00  0.00     0.201 C 
ENDBRANCH  11  12
ENDBRANCH  10  11
ENDBRANCH   9  10
ENDBRANCH   8   9
ENDBRANCH   7   8
ENDBRANCH   5   7
ENDBRANCH   4   5
ENDBRANCH   3   4
BRANCH   3  14
HETATM   14  C15 UNL     1      26.708   0.143  53.129  1.00  0.00     0.137 A 
HETATM   15  C16 UNL     1      27.507   1.103  53.767  1.00  0.00     0.100 A 
HETATM   16  C17 UNL     1      28.859   0.981  54.130  1.00  0.00     0.126 A 
HETATM   17  N3  UNL     1      29.356  -0.216  53.790  1.00  0.00    -0.225 NA
HETATM   18  C18 UNL     1      28.622  -1.162  53.179  1.00  0.00     0.237 A 
HETATM   19  N4  UNL     1      27.313  -1.001  52.845  1.00  0.00    -0.224 NA
BRANCH  16  20
HETATM   20  N2  UNL     1      29.493   2.073  54.770  1.00  0.00    -0.384 N 
HETATM   21  H20 UNL     1      30.225   2.492  54.129  1.00  0.00     0.157 HD
HETATM   22  H21 UNL     1      29.155   2.297  55.752  1.00  0.00     0.157 HD
ENDBRANCH  16  20
ENDBRANCH   3  14
BRANCH   1  23
HETATM   23  C4  UNL     1      23.550  -0.730  54.165  1.00  0.00     0.013 A 
HETATM   24  C3  UNL     1      22.421  -0.563  53.581  1.00  0.00    -0.068 A 
HETATM   25  C20 UNL     1      21.653  -1.115  54.689  1.00  0.00     0.040 A 
HETATM   26  C19 UNL     1      22.969  -1.311  55.362  1.00  0.00     0.049 A 
BRANCH  24  27
HETATM   27  C2  UNL     1      21.852  -0.045  52.310  1.00  0.00     0.030 C 
HETATM   28  C1  UNL     1      21.148   1.252  52.646  1.00  0.00     0.010 C 
ENDBRANCH  24  27
ENDBRANCH   1  23
TORSDOF 12
ENDMDL
MODEL 3
REMARK VINA RESULT:      -7.6      0.995      1.734
REMARK  12 active torsions:
REMARK  status: ('A' for Active; 'I' for Inactive)
REMARK    1  A    between atoms: C2_2  and  C3_3 
REMARK    2  A    between atoms: C4_4  and  C5_5 
REMARK       I    between atoms: C5_5  and  N1_7 
REMARK    3  A    between atoms: N1_7  and  C6_8 
REMARK    4  A    between atoms: N1_7  and  C15_18 
REMARK    5  A    between atoms: C6_8  and  C7_9 
REMARK    6  A    between atoms: C7_9  and  C9_11 
REMARK    7  A    between atoms: C9_11  and  C10_12 
REMARK    8  A    between atoms: C10_12  and  C11_13 
REMARK    9  A    between atoms: C11_13  and  C12_14 
REMARK   10  A    between atoms: C12_14  and  C13_15 
REMARK   11  A    between atoms: C13_15  and  O2_16 
REMARK   12  A    between atoms: C17_20  and  N2_21 
ROOT
HETATM    1  C5  UNL     1      24.796  -0.344  53.911  1.00  0.00     0.255 C 
HETATM    2  O1  UNL     1      25.675  -0.786  54.694  1.00  0.00    -0.267 OA
HETATM    3  N1  UNL     1      25.360   0.271  52.705  1.00  0.00    -0.297 N 
ENDROOT
BRANCH   3   4
HETATM    4  C6  UNL     1      25.901   0.861  51.547  1.00  0.00     0.158 C 
BRANCH   4   5
HETATM    5  C7  UNL     1      25.638   2.323  51.399  1.00  0.00     0.056 C 
HETATM    6  C8  UNL     1      24.896   2.882  52.559  1.00  0.00     0.033 C 
BRANCH   5   7
HETATM    7  C9  UNL     1      26.052   2.956  50.338  1.00  0.00    -0.093 C 
BRANCH   7   8
HETATM    8  C10 UNL     1      26.525   3.798  49.464  1.00  0.00    -0.100 C 
BRANCH   8   9
HETATM    9  C11 UNL     1      27.324   4.648  48.844  1.00  0.00     0.083 C 
BRANCH   9  10
HETATM   10  C12 UNL     1      26.899   6.078  48.722  1.00  0.00     0.044 C 
BRANCH  10  11
HETATM   11  C13 UNL     1      27.944   6.916  48.057  1.00  0.00     0.168 C 
BRANCH  11  12
HETATM   12  O2  UNL     1      28.304   8.024  48.781  1.00  0.00    -0.396 OA
HETATM   13  C14 UNL     1      27.296   8.632  49.492  1.00  0.00     0.201 C 
ENDBRANCH  11  12
ENDBRANCH  10  11
ENDBRANCH   9  10
ENDBRANCH   8   9
ENDBRANCH   7   8
ENDBRANCH   5   7
ENDBRANCH   4   5
ENDBRANCH   3   4
BRANCH   3  14
HETATM   14  C15 UNL     1      26.657  -0.074  53.273  1.00  0.00     0.137 A 
HETATM   15  C16 UNL     1      27.185  -1.339  52.981  1.00  0.00     0.100 A 
HETATM   16  C17 UNL     1      28.392  -1.887  53.449  1.00  0.00     0.126 A 
HETATM   17  N3  UNL     1      29.042  -1.036  54.255  1.00  0.00    -0.225 NA
HETATM   18  C18 UNL     1      28.568   0.185  54.557  1.00  0.00     0.237 A 
HETATM   19  N4  UNL     1      27.391   0.676  54.081  1.00  0.00    -0.224 NA
BRANCH  16  20
HETATM   20  N2  UNL     1      28.752  -3.193  53.037  1.00  0.00    -0.384 N 
HETATM   21  H20 UNL     1      29.518  -3.570  53.663  1.00  0.00     0.157 HD
HETATM   22  H21 UNL     1      28.223  -3.579  52.200  1.00  0.00     0.157 HD
ENDBRANCH  16  20
ENDBRANCH   3  14
BRANCH   1  23
HETATM   23  C4  UNL     1      23.344  -0.407  54.123  1.00  0.00     0.013 A 
HETATM   24  C3  UNL     1      22.314   0.192  53.650  1.00  0.00    -0.068 A 
HETATM   25  C20 UNL     1      21.376  -0.556  54.476  1.00  0.00     0.040 A 
HETATM   26  C19 UNL     1      22.576  -1.253  55.019  1.00  0.00     0.049 A 
BRANCH  24  27
HETATM   27  C2  UNL     1      21.950   1.247  52.668  1.00  0.00     0.030 C 
HETATM   28  C1  UNL     1      21.943   0.588  51.305  1.00  0.00     0.010 C 
ENDBRANCH  24  27
ENDBRANCH   1  23
TORSDOF 12
ENDMDL
MODEL 4
REMARK VINA RESULT:      -7.6      2.338      3.533
REMARK  12 active torsions:
REMARK  status: ('A' for Active; 'I' for Inactive)
REMARK    1  A    between atoms: C2_2  and  C3_3 
REMARK    2  A    between atoms: C4_4  and  C5_5 
REMARK       I    between atoms: C5_5  and  N1_7 
REMARK    3  A    between atoms: N1_7  and  C6_8 
REMARK    4  A    between atoms: N1_7  and  C15_18 
REMARK    5  A    between atoms: C6_8  and  C7_9 
REMARK    6  A    between atoms: C7_9  and  C9_11 
REMARK    7  A    between atoms: C9_11  and  C10_12 
REMARK    8  A    between atoms: C10_12  and  C11_13 
REMARK    9  A    between atoms: C11_13  and  C12_14 
REMARK   10  A    between atoms: C12_14  and  C13_15 
REMARK   11  A    between atoms: C13_15  and  O2_16 
REMARK   12  A    between atoms: C17_20  and  N2_21 
ROOT
HETATM    1  C5  UNL     1      24.786  -0.381  53.750  1.00  0.00     0.255 C 
HETATM    2  O1  UNL     1      25.636  -0.854  54.547  1.00  0.00    -0.267 OA
HETATM    3  N1  UNL     1      25.393   0.327  52.619  1.00  0.00    -0.297 N 
ENDROOT
BRANCH   3   4
HETATM    4  C6  UNL     1      25.977   1.006  51.532  1.00  0.00     0.158 C 
BRANCH   4   5
HETATM    5  C7  UNL     1      25.595   2.444  51.405  1.00  0.00     0.056 C 
HETATM    6  C8  UNL     1      26.483   3.182  50.469  1.00  0.00     0.033 C 
BRANCH   5   7
HETATM    7  C9  UNL     1      24.580   2.911  52.076  1.00  0.00    -0.093 C 
BRANCH   7   8
HETATM    8  C10 UNL     1      23.514   3.523  52.505  1.00  0.00    -0.100 C 
BRANCH   8   9
HETATM    9  C11 UNL     1      22.371   4.187  52.531  1.00  0.00     0.083 C 
BRANCH   9  10
HETATM   10  C12 UNL     1      21.967   4.973  51.324  1.00  0.00     0.044 C 
BRANCH  10  11
HETATM   11  C13 UNL     1      21.548   4.086  50.195  1.00  0.00     0.168 C 
BRANCH  11  12
HETATM   12  O2  UNL     1      22.510   3.931  49.230  1.00  0.00    -0.396 OA
HETATM   13  C14 UNL     1      22.765   2.639  48.835  1.00  0.00     0.201 C 
ENDBRANCH  11  12
ENDBRANCH  10  11
ENDBRANCH   9  10
ENDBRANCH   8   9
ENDBRANCH   7   8
ENDBRANCH   5   7
ENDBRANCH   4   5
ENDBRANCH   3   4
BRANCH   3  14
HETATM   14  C15 UNL     1      26.669  -0.025  53.230  1.00  0.00     0.137 A 
HETATM   15  C16 UNL     1      27.211  -1.285  52.938  1.00  0.00     0.100 A 
HETATM   16  C17 UNL     1      28.400  -1.837  53.442  1.00  0.00     0.126 A 
HETATM   17  N3  UNL     1      29.017  -0.999  54.286  1.00  0.00    -0.225 NA
HETATM   18  C18 UNL     1      28.529   0.217  54.589  1.00  0.00     0.237 A 
HETATM   19  N4  UNL     1      27.371   0.713  54.077  1.00  0.00    -0.224 NA
BRANCH  16  20
HETATM   20  N2  UNL     1      28.778  -3.137  53.023  1.00  0.00    -0.384 N 
HETATM   21  H20 UNL     1      28.924  -3.759  53.867  1.00  0.00     0.157 HD
HETATM   22  H21 UNL     1      28.856  -3.282  51.974  1.00  0.00     0.157 HD
ENDBRANCH  16  20
ENDBRANCH   3  14
BRANCH   1  23
HETATM   23  C4  UNL     1      23.327  -0.491  53.882  1.00  0.00     0.013 A 
HETATM   24  C3  UNL     1      22.310  -0.232  53.146  1.00  0.00    -0.068 A 
HETATM   25  C20 UNL     1      21.348  -0.675  54.146  1.00  0.00     0.040 A 
HETATM   26  C19 UNL     1      22.534  -0.979  54.996  1.00  0.00     0.049 A 
BRANCH  24  27
HETATM   27  C2  UNL     1      21.974   0.303  51.801  1.00  0.00     0.030 C 
HETATM   28  C1  UNL     1      20.593   0.914  51.908  1.00  0.00     0.010 C 
ENDBRANCH  24  27
ENDBRANCH   1  23
TORSDOF 12
ENDMDL
MODEL 5
REMARK VINA RESULT:      -7.5      2.525      5.663
REMARK  12 active torsions:
REMARK  status: ('A' for Active; 'I' for Inactive)
REMARK    1  A    between atoms: C2_2  and  C3_3 
REMARK    2  A    between atoms: C4_4  and  C5_5 
REMARK       I    between atoms: C5_5  and  N1_7 
REMARK    3  A    between atoms: N1_7  and  C6_8 
REMARK    4  A    between atoms: N1_7  and  C15_18 
REMARK    5  A    between atoms: C6_8  and  C7_9 
REMARK    6  A    between atoms: C7_9  and  C9_11 
REMARK    7  A    between atoms: C9_11  and  C10_12 
REMARK    8  A    between atoms: C10_12  and  C11_13 
REMARK    9  A    between atoms: C11_13  and  C12_14 
REMARK   10  A    between atoms: C12_14  and  C13_15 
REMARK   11  A    between atoms: C13_15  and  O2_16 
REMARK   12  A    between atoms: C17_20  and  N2_21 
ROOT
HETATM    1  C5  UNL     1      26.167   1.605  52.326  1.00  0.00     0.255 C 
HETATM    2  O1  UNL     1      27.415   1.491  52.426  1.00  0.00    -0.267 OA
HETATM    3  N1  UNL     1      25.435   0.670  53.187  1.00  0.00    -0.297 N 
ENDROOT
BRANCH   3   4
HETATM    4  C6  UNL     1      24.732  -0.227  54.014  1.00  0.00     0.158 C 
BRANCH   4   5
HETATM    5  C7  UNL     1      23.275  -0.355  53.714  1.00  0.00     0.056 C 
HETATM    6  C8  UNL     1      22.538  -1.056  54.798  1.00  0.00     0.033 C 
BRANCH   5   7
HETATM    7  C9  UNL     1      22.793   0.125  52.603  1.00  0.00    -0.093 C 
BRANCH   7   8
HETATM    8  C10 UNL     1      22.085   0.671  51.657  1.00  0.00    -0.100 C 
BRANCH   8   9
HETATM    9  C11 UNL     1      21.168   0.859  50.723  1.00  0.00     0.083 C 
BRANCH   9  10
HETATM   10  C12 UNL     1      19.846   1.439  51.119  1.00  0.00     0.044 C 
BRANCH  10  11
HETATM   11  C13 UNL     1      19.964   2.339  52.307  1.00  0.00     0.168 C 
BRANCH  11  12
HETATM   12  O2  UNL     1      19.256   3.507  52.186  1.00  0.00    -0.396 OA
HETATM   13  C14 UNL     1      19.202   4.050  50.925  1.00  0.00     0.201 C 
ENDBRANCH  11  12
ENDBRANCH  10  11
ENDBRANCH   9  10
ENDBRANCH   8   9
ENDBRANCH   7   8
ENDBRANCH   5   7
ENDBRANCH   4   5
ENDBRANCH   3   4
BRANCH   3  14
HETATM   14  C15 UNL     1      26.750   0.207  53.609  1.00  0.00     0.137 A 
HETATM   15  C16 UNL     1      27.175  -1.054  53.165  1.00  0.00     0.100 A 
HETATM   16  C17 UNL     1      28.381  -1.705  53.479  1.00  0.00     0.126 A 
HETATM   17  N3  UNL     1      29.144  -0.967  54.297  1.00  0.00    -0.225 NA
HETATM   18  C18 UNL     1      28.771   0.246  54.742  1.00  0.00     0.237 A 
HETATM   19  N4  UNL     1      27.592   0.840  54.413  1.00  0.00    -0.224 NA
BRANCH  16  20
HETATM   20  N2  UNL     1      28.625  -2.986  52.927  1.00  0.00    -0.384 N 
HETATM   21  H20 UNL     1      28.044  -3.713  53.432  1.00  0.00     0.157 HD
HETATM   22  H21 UNL     1      29.324  -3.022  52.127  1.00  0.00     0.157 HD
ENDBRANCH  16  20
ENDBRANCH   3  14
BRANCH   1  23
HETATM   23  C4  UNL     1      25.456   2.554  51.459  1.00  0.00     0.013 A 
HETATM   24  C3  UNL     1      24.469   3.362  51.585  1.00  0.00    -0.068 A 
HETATM   25  C20 UNL     1      24.541   3.825  50.206  1.00  0.00     0.040 A 
HETATM   26  C19 UNL     1      25.691   2.887  50.065  1.00  0.00     0.049 A 
BRANCH  24  27
HETATM   27  C2  UNL     1      23.487   3.823  52.601  1.00  0.00     0.030 C 
HETATM   28  C1  UNL     1      22.711   4.960  51.972  1.00  0.00     0.010 C 
ENDBRANCH  24  27
ENDBRANCH   1  23
TORSDOF 12
ENDMDL
MODEL 6
REMARK VINA RESULT:      -7.5      2.645      5.042
REMARK  12 active torsions:
REMARK  status: ('A' for Active; 'I' for Inactive)
REMARK    1  A    between atoms: C2_2  and  C3_3 
REMARK    2  A    between atoms: C4_4  and  C5_5 
REMARK       I    between atoms: C5_5  and  N1_7 
REMARK    3  A    between atoms: N1_7  and  C6_8 
REMARK    4  A    between atoms: N1_7  and  C15_18 
REMARK    5  A    between atoms: C6_8  and  C7_9 
REMARK    6  A    between atoms: C7_9  and  C9_11 
REMARK    7  A    between atoms: C9_11  and  C10_12 
REMARK    8  A    between atoms: C10_12  and  C11_13 
REMARK    9  A    between atoms: C11_13  and  C12_14 
REMARK   10  A    between atoms: C12_14  and  C13_15 
REMARK   11  A    between atoms: C13_15  and  O2_16 
REMARK   12  A    between atoms: C17_20  and  N2_21 
ROOT
HETATM    1  C5  UNL     1      26.131   1.654  52.293  1.00  0.00     0.255 C 
HETATM    2  O1  UNL     1      27.376   1.503  52.381  1.00  0.00    -0.267 OA
HETATM    3  N1  UNL     1      25.381   0.746  53.165  1.00  0.00    -0.297 N 
ENDROOT
BRANCH   3   4
HETATM    4  C6  UNL     1      24.660  -0.126  54.004  1.00  0.00     0.158 C 
BRANCH   4   5
HETATM    5  C7  UNL     1      23.218  -0.294  53.654  1.00  0.00     0.056 C 
HETATM    6  C8  UNL     1      22.473  -1.060  54.687  1.00  0.00     0.033 C 
BRANCH   5   7
HETATM    7  C9  UNL     1      22.753   0.211  52.546  1.00  0.00    -0.093 C 
BRANCH   7   8
HETATM    8  C10 UNL     1      22.033   0.671  51.564  1.00  0.00    -0.100 C 
BRANCH   8   9
HETATM    9  C11 UNL     1      21.363   0.750  50.427  1.00  0.00     0.083 C 
BRANCH   9  10
HETATM   10  C12 UNL     1      21.995   1.450  49.265  1.00  0.00     0.044 C 
BRANCH  10  11
HETATM   11  C13 UNL     1      20.995   2.226  48.469  1.00  0.00     0.168 C 
BRANCH  11  12
HETATM   12  O2  UNL     1      21.510   2.776  47.323  1.00  0.00    -0.396 OA
HETATM   13  C14 UNL     1      21.981   4.063  47.433  1.00  0.00     0.201 C 
ENDBRANCH  11  12
ENDBRANCH  10  11
ENDBRANCH   9  10
ENDBRANCH   8   9
ENDBRANCH   7   8
ENDBRANCH   5   7
ENDBRANCH   4   5
ENDBRANCH   3   4
BRANCH   3  14
HETATM   14  C15 UNL     1      26.686   0.244  53.576  1.00  0.00     0.137 A 
HETATM   15  C16 UNL     1      27.071  -1.027  53.127  1.00  0.00     0.100 A 
HETATM   16  C17 UNL     1      28.260  -1.713  53.430  1.00  0.00     0.126 A 
HETATM   17  N3  UNL     1      29.050  -0.998  54.242  1.00  0.00    -0.225 NA
HETATM   18  C18 UNL     1      28.716   0.224  54.692  1.00  0.00     0.237 A 
HETATM   19  N4  UNL     1      27.552   0.852  54.373  1.00  0.00    -0.224 NA
BRANCH  16  20
HETATM   20  N2  UNL     1      28.463  -2.999  52.873  1.00  0.00    -0.384 N 
HETATM   21  H20 UNL     1      29.334  -3.437  53.288  1.00  0.00     0.157 HD
HETATM   22  H21 UNL     1      27.746  -3.315  52.156  1.00  0.00     0.157 HD
ENDBRANCH  16  20
ENDBRANCH   3  14
BRANCH   1  23
HETATM   23  C4  UNL     1      25.440   2.621  51.429  1.00  0.00     0.013 A 
HETATM   24  C3  UNL     1      24.473   3.452  51.560  1.00  0.00    -0.068 A 
HETATM   25  C20 UNL     1      24.551   3.914  50.181  1.00  0.00     0.040 A 
HETATM   26  C19 UNL     1      25.678   2.950  50.035  1.00  0.00     0.049 A 
BRANCH  24  27
HETATM   27  C2  UNL     1      23.506   3.936  52.580  1.00  0.00     0.030 C 
HETATM   28  C1  UNL     1      22.253   4.342  51.834  1.00  0.00     0.010 C 
ENDBRANCH  24  27
ENDBRANCH   1  23
TORSDOF 12
ENDMDL
MODEL 7
REMARK VINA RESULT:      -7.5      2.668      5.285
REMARK  12 active torsions:
REMARK  status: ('A' for Active; 'I' for Inactive)
REMARK    1  A    between atoms: C2_2  and  C3_3 
REMARK    2  A    between atoms: C4_4  and  C5_5 
REMARK       I    between atoms: C5_5  and  N1_7 
REMARK    3  A    between atoms: N1_7  and  C6_8 
REMARK    4  A    between atoms: N1_7  and  C15_18 
REMARK    5  A    between atoms: C6_8  and  C7_9 
REMARK    6  A    between atoms: C7_9  and  C9_11 
REMARK    7  A    between atoms: C9_11  and  C10_12 
REMARK    8  A    between atoms: C10_12  and  C11_13 
REMARK    9  A    between atoms: C11_13  and  C12_14 
REMARK   10  A    between atoms: C12_14  and  C13_15 
REMARK   11  A    between atoms: C13_15  and  O2_16 
REMARK   12  A    between atoms: C17_20  and  N2_21 
ROOT
HETATM    1  C5  UNL     1      24.942   1.787  52.575  1.00  0.00     0.255 C 
HETATM    2  O1  UNL     1      26.197   1.726  52.629  1.00  0.00    -0.267 OA
HETATM    3  N1  UNL     1      24.284   0.731  53.349  1.00  0.00    -0.297 N 
ENDROOT
BRANCH   3   4
HETATM    4  C6  UNL     1      23.651  -0.283  54.094  1.00  0.00     0.158 C 
BRANCH   4   5
HETATM    5  C7  UNL     1      22.341  -0.746  53.548  1.00  0.00     0.056 C 
HETATM    6  C8  UNL     1      21.655  -1.697  54.461  1.00  0.00     0.033 C 
BRANCH   5   7
HETATM    7  C9  UNL     1      21.925  -0.309  52.393  1.00  0.00    -0.093 C 
BRANCH   7   8
HETATM    8  C10 UNL     1      21.318   0.269  51.397  1.00  0.00    -0.100 C 
BRANCH   8   9
HETATM    9  C11 UNL     1      20.987   1.149  50.467  1.00  0.00     0.083 C 
BRANCH   9  10
HETATM   10  C12 UNL     1      21.581   1.010  49.101  1.00  0.00     0.044 C 
BRANCH  10  11
HETATM   11  C13 UNL     1      21.137   2.106  48.185  1.00  0.00     0.168 C 
BRANCH  11  12
HETATM   12  O2  UNL     1      22.112   2.528  47.318  1.00  0.00    -0.396 OA
HETATM   13  C14 UNL     1      21.921   3.767  46.753  1.00  0.00     0.201 C 
ENDBRANCH  11  12
ENDBRANCH  10  11
ENDBRANCH   9  10
ENDBRANCH   8   9
ENDBRANCH   7   8
ENDBRANCH   5   7
ENDBRANCH   4   5
ENDBRANCH   3   4
BRANCH   3  14
HETATM   14  C15 UNL     1      25.632   0.292  53.684  1.00  0.00     0.137 A 
HETATM   15  C16 UNL     1      26.092  -0.905  53.117  1.00  0.00     0.100 A 
HETATM   16  C17 UNL     1      27.335  -1.526  53.331  1.00  0.00     0.126 A 
HETATM   17  N3  UNL     1      28.097  -0.828  54.183  1.00  0.00    -0.225 NA
HETATM   18  C18 UNL     1      27.692   0.324  54.746  1.00  0.00     0.237 A 
HETATM   19  N4  UNL     1      26.477   0.891  54.511  1.00  0.00    -0.224 NA
BRANCH  16  20
HETATM   20  N2  UNL     1      27.612  -2.743  52.660  1.00  0.00    -0.384 N 
HETATM   21  H20 UNL     1      26.756  -3.367  52.679  1.00  0.00     0.157 HD
HETATM   22  H21 UNL     1      28.590  -2.840  52.258  1.00  0.00     0.157 HD
ENDBRANCH  16  20
ENDBRANCH   3  14
BRANCH   1  23
HETATM   23  C4  UNL     1      24.160   2.786  51.834  1.00  0.00     0.013 A 
HETATM   24  C3  UNL     1      24.176   3.281  50.652  1.00  0.00    -0.068 A 
HETATM   25  C20 UNL     1      23.041   4.161  50.897  1.00  0.00     0.040 A 
HETATM   26  C19 UNL     1      23.023   3.578  52.269  1.00  0.00     0.049 A 
BRANCH  24  27
HETATM   27  C2  UNL     1      24.930   3.180  49.376  1.00  0.00     0.030 C 
HETATM   28  C1  UNL     1      26.317   3.725  49.645  1.00  0.00     0.010 C 
ENDBRANCH  24  27
ENDBRANCH   1  23
TORSDOF 12
ENDMDL
MODEL 8
REMARK VINA RESULT:      -7.3      1.449      2.260
REMARK  12 active torsions:
REMARK  status: ('A' for Active; 'I' for Inactive)
REMARK    1  A    between atoms: C2_2  and  C3_3 
REMARK    2  A    between atoms: C4_4  and  C5_5 
REMARK       I    between atoms: C5_5  and  N1_7 
REMARK    3  A    between atoms: N1_7  and  C6_8 
REMARK    4  A    between atoms: N1_7  and  C15_18 
REMARK    5  A    between atoms: C6_8  and  C7_9 
REMARK    6  A    between atoms: C7_9  and  C9_11 
REMARK    7  A    between atoms: C9_11  and  C10_12 
REMARK    8  A    between atoms: C10_12  and  C11_13 
REMARK    9  A    between atoms: C11_13  and  C12_14 
REMARK   10  A    between atoms: C12_14  and  C13_15 
REMARK   11  A    between atoms: C13_15  and  O2_16 
REMARK   12  A    between atoms: C17_20  and  N2_21 
ROOT
HETATM    1  C5  UNL     1      24.864   1.061  52.775  1.00  0.00     0.255 C 
HETATM    2  O1  UNL     1      25.494   0.336  53.587  1.00  0.00    -0.267 OA
HETATM    3  N1  UNL     1      25.733   1.693  51.778  1.00  0.00    -0.297 N 
ENDROOT
BRANCH   3   4
HETATM    4  C6  UNL     1      26.567   2.298  50.818  1.00  0.00     0.158 C 
BRANCH   4   5
HETATM    5  C7  UNL     1      25.885   3.262  49.904  1.00  0.00     0.056 C 
HETATM    6  C8  UNL     1      24.462   2.904  49.669  1.00  0.00     0.033 C 
BRANCH   5   7
HETATM    7  C9  UNL     1      26.543   4.276  49.417  1.00  0.00    -0.093 C 
BRANCH   7   8
HETATM    8  C10 UNL     1      27.209   5.128  48.693  1.00  0.00    -0.100 C 
BRANCH   8   9
HETATM    9  C11 UNL     1      28.133   5.985  48.293  1.00  0.00     0.083 C 
BRANCH   9  10
HETATM   10  C12 UNL     1      29.560   5.537  48.250  1.00  0.00     0.044 C 
BRANCH  10  11
HETATM   11  C13 UNL     1      30.480   6.641  47.834  1.00  0.00     0.168 C 
BRANCH  11  12
HETATM   12  O2  UNL     1      31.741   6.535  48.361  1.00  0.00    -0.396 OA
HETATM   13  C14 UNL     1      31.827   5.959  49.606  1.00  0.00     0.201 C 
ENDBRANCH  11  12
ENDBRANCH  10  11
ENDBRANCH   9  10
ENDBRANCH   8   9
ENDBRANCH   7   8
ENDBRANCH   5   7
ENDBRANCH   4   5
ENDBRANCH   3   4
BRANCH   3  14
HETATM   14  C15 UNL     1      26.822   0.999  52.452  1.00  0.00     0.137 A 
HETATM   15  C16 UNL     1      27.716   1.764  53.214  1.00  0.00     0.100 A 
HETATM   16  C17 UNL     1      28.847   1.309  53.912  1.00  0.00     0.126 A 
HETATM   17  N3  UNL     1      29.012  -0.014  53.777  1.00  0.00    -0.225 NA
HETATM   18  C18 UNL     1      28.176  -0.782  53.056  1.00  0.00     0.237 A 
HETATM   19  N4  UNL     1      27.090  -0.297  52.395  1.00  0.00    -0.224 NA
BRANCH  16  20
HETATM   20  N2  UNL     1      29.629   2.248  54.628  1.00  0.00    -0.384 N 
HETATM   21  H20 UNL     1      30.041   2.959  53.958  1.00  0.00     0.157 HD
HETATM   22  H21 UNL     1      29.683   2.104  55.678  1.00  0.00     0.157 HD
ENDBRANCH  16  20
ENDBRANCH   3  14
BRANCH   1  23
HETATM   23  C4  UNL     1      23.413   1.292  52.774  1.00  0.00     0.013 A 
HETATM   24  C3  UNL     1      22.365   0.586  52.983  1.00  0.00    -0.068 A 
HETATM   25  C20 UNL     1      21.449   1.694  52.749  1.00  0.00     0.040 A 
HETATM   26  C19 UNL     1      22.672   2.513  52.511  1.00  0.00     0.049 A 
BRANCH  24  27
HETATM   27  C2  UNL     1      21.968  -0.804  53.331  1.00  0.00     0.030 C 
HETATM   28  C1  UNL     1      22.122  -0.938  54.831  1.00  0.00     0.010 C 
ENDBRANCH  24  27
ENDBRANCH   1  23
TORSDOF 12
ENDMDL
MODEL 9
REMARK VINA RESULT:      -7.2      2.903      5.463
REMARK  12 active torsions:
REMARK  status: ('A' for Active; 'I' for Inactive)
REMARK    1  A    between atoms: C2_2  and  C3_3 
REMARK    2  A    between atoms: C4_4  and  C5_5 
REMARK       I    between atoms: C5_5  and  N1_7 
REMARK    3  A    between atoms: N1_7  and  C6_8 
REMARK    4  A    between atoms: N1_7  and  C15_18 
REMARK    5  A    between atoms: C6_8  and  C7_9 
REMARK    6  A    between atoms: C7_9  and  C9_11 
REMARK    7  A    between atoms: C9_11  and  C10_12 
REMARK    8  A    between atoms: C10_12  and  C11_13 
REMARK    9  A    between atoms: C11_13  and  C12_14 
REMARK   10  A    between atoms: C12_14  and  C13_15 
REMARK   11  A    between atoms: C13_15  and  O2_16 
REMARK   12  A    between atoms: C17_20  and  N2_21 
ROOT
HETATM    1  C5  UNL     1      24.836   1.685  51.513  1.00  0.00     0.255 C 
HETATM    2  O1  UNL     1      26.045   1.638  51.856  1.00  0.00    -0.267 OA
HETATM    3  N1  UNL     1      23.980   0.798  52.306  1.00  0.00    -0.297 N 
ENDROOT
BRANCH   3   4
HETATM    4  C6  UNL     1      23.157  -0.052  53.069  1.00  0.00     0.158 C 
BRANCH   4   5
HETATM    5  C7  UNL     1      21.859   0.544  53.503  1.00  0.00     0.056 C 
HETATM    6  C8  UNL     1      21.275  -0.168  54.670  1.00  0.00     0.033 C 
BRANCH   5   7
HETATM    7  C9  UNL     1      21.371   1.574  52.872  1.00  0.00    -0.093 C 
BRANCH   7   8
HETATM    8  C10 UNL     1      20.962   2.745  52.478  1.00  0.00    -0.100 C 
BRANCH   8   9
HETATM    9  C11 UNL     1      20.890   3.904  51.844  1.00  0.00     0.083 C 
BRANCH   9  10
HETATM   10  C12 UNL     1      21.921   4.948  52.135  1.00  0.00     0.044 C 
BRANCH  10  11
HETATM   11  C13 UNL     1      21.866   6.076  51.154  1.00  0.00     0.168 C 
BRANCH  11  12
HETATM   12  O2  UNL     1      20.747   6.061  50.361  1.00  0.00    -0.396 OA
HETATM   13  C14 UNL     1      20.436   7.245  49.735  1.00  0.00     0.201 C 
ENDBRANCH  11  12
ENDBRANCH  10  11
ENDBRANCH   9  10
ENDBRANCH   8   9
ENDBRANCH   7   8
ENDBRANCH   5   7
ENDBRANCH   4   5
ENDBRANCH   3   4
BRANCH   3  14
HETATM   14  C15 UNL     1      25.202   0.436  53.011  1.00  0.00     0.137 A 
HETATM   15  C16 UNL     1      25.815  -0.781  52.679  1.00  0.00     0.100 A 
HETATM   16  C17 UNL     1      26.970  -1.338  53.255  1.00  0.00     0.126 A 
HETATM   17  N3  UNL     1      27.471  -0.552  54.218  1.00  0.00    -0.225 NA
HETATM   18  C18 UNL     1      26.912   0.621  54.563  1.00  0.00     0.237 A 
HETATM   19  N4  UNL     1      25.791   1.123  53.978  1.00  0.00    -0.224 NA
BRANCH  16  20
HETATM   20  N2  UNL     1      27.433  -2.588  52.776  1.00  0.00    -0.384 N 
HETATM   21  H20 UNL     1      28.423  -2.758  53.113  1.00  0.00     0.157 HD
HETATM   22  H21 UNL     1      26.750  -3.139  52.179  1.00  0.00     0.157 HD
ENDBRANCH  16  20
ENDBRANCH   3  14
BRANCH   1  23
HETATM   23  C4  UNL     1      24.278   2.518  50.439  1.00  0.00     0.013 A 
HETATM   24  C3  UNL     1      24.579   3.634  49.884  1.00  0.00    -0.068 A 
HETATM   25  C20 UNL     1      23.450   3.594  48.963  1.00  0.00     0.040 A 
HETATM   26  C19 UNL     1      23.108   2.295  49.609  1.00  0.00     0.049 A 
BRANCH  24  27
HETATM   27  C2  UNL     1      25.595   4.716  49.959  1.00  0.00     0.030 C 
HETATM   28  C1  UNL     1      26.820   4.214  49.225  1.00  0.00     0.010 C 
ENDBRANCH  24  27
ENDBRANCH   1  23
TORSDOF 12
ENDMDL
