MODEL 1
REMARK VINA RESULT:      -7.6      0.000      0.000
REMARK  4 active torsions:
REMARK  status: ('A' for Active; 'I' for Inactive)
REMARK    1  A    between atoms: C2_2  and  N1_3 
REMARK    2  A    between atoms: N1_3  and  C3_4 
REMARK    3  A    between atoms: N2_8  and  C7_9 
REMARK    4  A    between atoms: C14_16  and  N3_17 
ROOT
HETATM    1  C3  UNL     1      21.712   1.173  52.286  1.00  0.00     0.114 C 
HETATM    2  C4  UNL     1      20.961   0.713  53.489  1.00  0.00     0.036 C 
HETATM    3  C5  UNL     1      21.909  -0.317  54.107  1.00  0.00     0.062 C 
HETATM    4  C6  UNL     1      23.241   0.185  53.686  1.00  0.00     0.045 C 
HETATM    5  N2  UNL     1      24.133  -0.612  54.140  1.00  0.00    -0.252 NA
HETATM    6  C13 UNL     1      23.071   1.406  52.908  1.00  0.00     0.004 C 
HETATM    7  C14 UNL     1      24.056   2.282  52.962  1.00  0.00     0.091 C 
ENDROOT
BRANCH   1   8
HETATM    8  N1  UNL     1      21.249   2.332  51.632  1.00  0.00    -0.401 N 
HETATM    9  H4  UNL     1      20.577   2.926  52.157  1.00  0.00     0.155 HD
BRANCH   8  10
HETATM   10  C2  UNL     1      21.131   2.344  50.231  1.00  0.00     0.040 C 
HETATM   11  C1  UNL     1      19.902   2.911  49.627  1.00  0.00     0.042 C 
HETATM   12  C15 UNL     1      22.307   3.135  49.699  1.00  0.00    -0.001 C 
HETATM   13  C16 UNL     1      22.698   2.587  48.559  1.00  0.00    -0.028 C 
HETATM   14  C17 UNL     1      21.859   1.404  48.205  1.00  0.00     0.029 C 
HETATM   15  C18 UNL     1      21.378   0.980  49.590  1.00  0.00     0.038 C 
ENDBRANCH   8  10
ENDBRANCH   1   8
BRANCH   7  16
HETATM   16  N3  UNL     1      25.325   2.541  53.520  1.00  0.00    -0.407 N 
HETATM   17  H14 UNL     1      25.551   3.533  53.751  1.00  0.00     0.155 HD
HETATM   18  H15 UNL     1      25.594   1.522  53.490  1.00  0.00     0.155 HD
ENDBRANCH   7  16
BRANCH   5  19
HETATM   19  C7  UNL     1      25.513  -0.462  53.944  1.00  0.00     0.069 C 
HETATM   20  C8  UNL     1      26.057  -0.734  52.772  1.00  0.00     0.017 C 
HETATM   21  C9  UNL     1      27.179  -0.232  52.431  1.00  0.00    -0.011 C 
HETATM   22  C10 UNL     1      28.072   0.094  53.301  1.00  0.00     0.013 C 
HETATM   23  C11 UNL     1      27.650   0.272  54.706  1.00  0.00     0.003 C 
HETATM   24  C12 UNL     1      26.396   0.003  55.035  1.00  0.00     0.032 C 
ENDBRANCH   5  19
TORSDOF 4
ENDMDL
MODEL 2
REMARK VINA RESULT:      -7.1      0.913      2.023
REMARK  4 active torsions:
REMARK  status: ('A' for Active; 'I' for Inactive)
REMARK    1  A    between atoms: C2_2  and  N1_3 
REMARK    2  A    between atoms: N1_3  and  C3_4 
REMARK    3  A    between atoms: N2_8  and  C7_9 
REMARK    4  A    between atoms: C14_16  and  N3_17 
ROOT
HETATM    1  C3  UNL     1      21.664   0.743  52.594  1.00  0.00     0.114 C 
HETATM    2  C4  UNL     1      21.069   0.265  53.875  1.00  0.00     0.036 C 
HETATM    3  C5  UNL     1      22.179  -0.613  54.457  1.00  0.00     0.062 C 
HETATM    4  C6  UNL     1      23.404   0.017  53.906  1.00  0.00     0.045 C 
HETATM    5  N2  UNL     1      24.417  -0.647  54.319  1.00  0.00    -0.252 NA
HETATM    6  C13 UNL     1      23.030   1.165  53.091  1.00  0.00     0.004 C 
HETATM    7  C14 UNL     1      23.904   2.151  53.024  1.00  0.00     0.091 C 
ENDROOT
BRANCH   1   8
HETATM    8  N1  UNL     1      21.018   1.804  51.930  1.00  0.00    -0.401 N 
HETATM    9  H4  UNL     1      20.505   2.483  52.526  1.00  0.00     0.155 HD
BRANCH   8  10
HETATM   10  C2  UNL     1      20.518   1.614  50.629  1.00  0.00     0.040 C 
HETATM   11  C1  UNL     1      21.363   0.904  49.641  1.00  0.00     0.042 C 
HETATM   12  C15 UNL     1      19.225   0.837  50.767  1.00  0.00    -0.001 C 
HETATM   13  C16 UNL     1      18.380   1.264  49.842  1.00  0.00    -0.028 C 
HETATM   14  C17 UNL     1      18.985   2.341  49.004  1.00  0.00     0.029 C 
HETATM   15  C18 UNL     1      20.019   2.902  49.977  1.00  0.00     0.038 C 
ENDBRANCH   8  10
ENDBRANCH   1   8
BRANCH   7  16
HETATM   16  N3  UNL     1      25.173   2.586  53.464  1.00  0.00    -0.407 N 
HETATM   17  H14 UNL     1      25.319   3.615  53.552  1.00  0.00     0.155 HD
HETATM   18  H15 UNL     1      25.530   1.597  53.546  1.00  0.00     0.155 HD
ENDBRANCH   7  16
BRANCH   5  19
HETATM   19  C7  UNL     1      25.750  -0.348  54.004  1.00  0.00     0.069 C 
HETATM   20  C8  UNL     1      26.541   0.217  54.899  1.00  0.00     0.017 C 
HETATM   21  C9  UNL     1      27.810   0.122  54.814  1.00  0.00    -0.011 C 
HETATM   22  C10 UNL     1      28.408  -0.023  53.682  1.00  0.00     0.013 C 
HETATM   23  C11 UNL     1      27.617  -0.490  52.526  1.00  0.00     0.003 C 
HETATM   24  C12 UNL     1      26.310  -0.655  52.670  1.00  0.00     0.032 C 
ENDBRANCH   5  19
TORSDOF 4
ENDMDL
MODEL 3
REMARK VINA RESULT:      -7.0      2.624      5.778
REMARK  4 active torsions:
REMARK  status: ('A' for Active; 'I' for Inactive)
REMARK    1  A    between atoms: C2_2  and  N1_3 
REMARK    2  A    between atoms: N1_3  and  C3_4 
REMARK    3  A    between atoms: N2_8  and  C7_9 
REMARK    4  A    between atoms: C14_16  and  N3_17 
ROOT
HETATM    1  C3  UNL     1      24.286   1.144  52.304  1.00  0.00     0.114 C 
HETATM    2  C4  UNL     1      25.726   0.832  52.537  1.00  0.00     0.036 C 
HETATM    3  C5  UNL     1      26.417   1.527  51.363  1.00  0.00     0.062 C 
HETATM    4  C6  UNL     1      25.502   2.661  51.081  1.00  0.00     0.045 C 
HETATM    5  N2  UNL     1      25.975   3.323  50.093  1.00  0.00    -0.252 NA
HETATM    6  C13 UNL     1      24.391   2.627  52.023  1.00  0.00     0.004 C 
HETATM    7  C14 UNL     1      23.844   3.788  52.332  1.00  0.00     0.091 C 
ENDROOT
BRANCH   1   8
HETATM    8  N1  UNL     1      23.385   0.892  53.357  1.00  0.00    -0.401 N 
HETATM    9  H4  UNL     1      23.797   0.766  54.303  1.00  0.00     0.155 HD
BRANCH   8  10
HETATM   10  C2  UNL     1      22.187   0.201  53.102  1.00  0.00     0.040 C 
HETATM   11  C1  UNL     1      21.730   0.068  51.698  1.00  0.00     0.042 C 
HETATM   12  C15 UNL     1      22.360  -1.196  53.660  1.00  0.00    -0.001 C 
HETATM   13  C16 UNL     1      21.197  -1.597  54.151  1.00  0.00    -0.028 C 
HETATM   14  C17 UNL     1      20.144  -0.551  53.985  1.00  0.00     0.029 C 
HETATM   15  C18 UNL     1      21.008   0.707  53.930  1.00  0.00     0.038 C 
ENDBRANCH   8  10
ENDBRANCH   1   8
BRANCH   7  16
HETATM   16  N3  UNL     1      23.905   5.178  52.099  1.00  0.00    -0.407 N 
HETATM   17  H14 UNL     1      23.490   5.530  51.209  1.00  0.00     0.155 HD
HETATM   18  H15 UNL     1      24.400   5.353  53.013  1.00  0.00     0.155 HD
ENDBRANCH   7  16
BRANCH   5  19
HETATM   19  C7  UNL     1      25.381   4.466  49.540  1.00  0.00     0.069 C 
HETATM   20  C8  UNL     1      26.016   5.624  49.554  1.00  0.00     0.017 C 
HETATM   21  C9  UNL     1      25.721   6.550  48.727  1.00  0.00    -0.011 C 
HETATM   22  C10 UNL     1      24.539   6.667  48.227  1.00  0.00     0.013 C 
HETATM   23  C11 UNL     1      23.635   5.500  48.286  1.00  0.00     0.003 C 
HETATM   24  C12 UNL     1      24.037   4.412  48.928  1.00  0.00     0.032 C 
ENDBRANCH   5  19
TORSDOF 4
ENDMDL
MODEL 4
REMARK VINA RESULT:      -6.8      1.920      6.556
REMARK  4 active torsions:
REMARK  status: ('A' for Active; 'I' for Inactive)
REMARK    1  A    between atoms: C2_2  and  N1_3 
REMARK    2  A    between atoms: N1_3  and  C3_4 
REMARK    3  A    between atoms: N2_8  and  C7_9 
REMARK    4  A    between atoms: C14_16  and  N3_17 
ROOT
HETATM    1  C3  UNL     1      26.061   2.480  51.237  1.00  0.00     0.114 C 
HETATM    2  C4  UNL     1      26.417   3.643  50.374  1.00  0.00     0.036 C 
HETATM    3  C5  UNL     1      25.334   3.607  49.294  1.00  0.00     0.062 C 
HETATM    4  C6  UNL     1      24.187   2.998  50.013  1.00  0.00     0.045 C 
HETATM    5  N2  UNL     1      23.207   2.902  49.198  1.00  0.00    -0.252 NA
HETATM    6  C13 UNL     1      24.576   2.723  51.391  1.00  0.00     0.004 C 
HETATM    7  C14 UNL     1      23.614   2.761  52.293  1.00  0.00     0.091 C 
ENDROOT
BRANCH   1   8
HETATM    8  N1  UNL     1      26.690   2.383  52.494  1.00  0.00    -0.401 N 
HETATM    9  H4  UNL     1      27.264   3.198  52.791  1.00  0.00     0.155 HD
BRANCH   8  10
HETATM   10  C2  UNL     1      27.092   1.126  52.979  1.00  0.00     0.040 C 
HETATM   11  C1  UNL     1      28.485   0.963  53.458  1.00  0.00     0.042 C 
HETATM   12  C15 UNL     1      26.171   0.788  54.133  1.00  0.00    -0.001 C 
HETATM   13  C16 UNL     1      25.947  -0.517  54.119  1.00  0.00    -0.028 C 
HETATM   14  C17 UNL     1      26.668  -1.184  52.995  1.00  0.00     0.029 C 
HETATM   15  C18 UNL     1      26.792  -0.019  52.015  1.00  0.00     0.038 C 
ENDBRANCH   8  10
ENDBRANCH   1   8
BRANCH   7  16
HETATM   16  N3  UNL     1      22.233   2.980  52.483  1.00  0.00    -0.407 N 
HETATM   17  H14 UNL     1      21.896   3.069  53.466  1.00  0.00     0.155 HD
HETATM   18  H15 UNL     1      22.045   2.971  51.446  1.00  0.00     0.155 HD
ENDBRANCH   7  16
BRANCH   5  19
HETATM   19  C7  UNL     1      21.949   2.373  49.519  1.00  0.00     0.069 C 
HETATM   20  C8  UNL     1      21.792   1.073  49.690  1.00  0.00     0.017 C 
HETATM   21  C9  UNL     1      20.818   0.608  50.369  1.00  0.00    -0.011 C 
HETATM   22  C10 UNL     1      19.696   1.234  50.469  1.00  0.00     0.013 C 
HETATM   23  C11 UNL     1      19.667   2.675  50.145  1.00  0.00     0.003 C 
HETATM   24  C12 UNL     1      20.767   3.247  49.678  1.00  0.00     0.032 C 
ENDBRANCH   5  19
TORSDOF 4
ENDMDL
MODEL 5
REMARK VINA RESULT:      -6.7      2.656      5.825
REMARK  4 active torsions:
REMARK  status: ('A' for Active; 'I' for Inactive)
REMARK    1  A    between atoms: C2_2  and  N1_3 
REMARK    2  A    between atoms: N1_3  and  C3_4 
REMARK    3  A    between atoms: N2_8  and  C7_9 
REMARK    4  A    between atoms: C14_16  and  N3_17 
ROOT
HETATM    1  C3  UNL     1      24.305   1.394  52.266  1.00  0.00     0.114 C 
HETATM    2  C4  UNL     1      25.763   1.146  52.454  1.00  0.00     0.036 C 
HETATM    3  C5  UNL     1      26.393   1.955  51.317  1.00  0.00     0.062 C 
HETATM    4  C6  UNL     1      25.412   3.052  51.127  1.00  0.00     0.045 C 
HETATM    5  N2  UNL     1      25.828   3.803  50.178  1.00  0.00    -0.252 NA
HETATM    6  C13 UNL     1      24.323   2.895  52.082  1.00  0.00     0.004 C 
HETATM    7  C14 UNL     1      23.721   4.001  52.477  1.00  0.00     0.091 C 
ENDROOT
BRANCH   1   8
HETATM    8  N1  UNL     1      23.440   1.023  53.314  1.00  0.00    -0.401 N 
HETATM    9  H4  UNL     1      23.881   0.823  54.234  1.00  0.00     0.155 HD
BRANCH   8  10
HETATM   10  C2  UNL     1      22.252   0.326  53.028  1.00  0.00     0.040 C 
HETATM   11  C1  UNL     1      21.836   0.184  51.613  1.00  0.00     0.042 C 
HETATM   12  C15 UNL     1      22.414  -1.068  53.598  1.00  0.00    -0.001 C 
HETATM   13  C16 UNL     1      21.239  -1.471  54.057  1.00  0.00    -0.028 C 
HETATM   14  C17 UNL     1      20.188  -0.430  53.856  1.00  0.00     0.029 C 
HETATM   15  C18 UNL     1      21.048   0.831  53.820  1.00  0.00     0.038 C 
ENDBRANCH   8  10
ENDBRANCH   1   8
BRANCH   7  16
HETATM   16  N3  UNL     1      23.702   5.405  52.337  1.00  0.00    -0.407 N 
HETATM   17  H14 UNL     1      24.537   5.851  51.899  1.00  0.00     0.155 HD
HETATM   18  H15 UNL     1      22.746   5.478  52.775  1.00  0.00     0.155 HD
ENDBRANCH   7  16
BRANCH   5  19
HETATM   19  C7  UNL     1      25.163   4.945  49.712  1.00  0.00     0.069 C 
HETATM   20  C8  UNL     1      24.054   4.833  49.003  1.00  0.00     0.017 C 
HETATM   21  C9  UNL     1      23.219   5.794  48.925  1.00  0.00    -0.011 C 
HETATM   22  C10 UNL     1      23.584   7.025  49.037  1.00  0.00     0.013 C 
HETATM   23  C11 UNL     1      24.890   7.314  49.663  1.00  0.00     0.003 C 
HETATM   24  C12 UNL     1      25.675   6.302  50.000  1.00  0.00     0.032 C 
ENDBRANCH   5  19
TORSDOF 4
ENDMDL
MODEL 6
REMARK VINA RESULT:      -6.6      4.258      6.909
REMARK  4 active torsions:
REMARK  status: ('A' for Active; 'I' for Inactive)
REMARK    1  A    between atoms: C2_2  and  N1_3 
REMARK    2  A    between atoms: N1_3  and  C3_4 
REMARK    3  A    between atoms: N2_8  and  C7_9 
REMARK    4  A    between atoms: C14_16  and  N3_17 
ROOT
HETATM    1  C3  UNL     1      24.173   3.066  50.300  1.00  0.00     0.114 C 
HETATM    2  C4  UNL     1      23.240   2.916  49.147  1.00  0.00     0.036 C 
HETATM    3  C5  UNL     1      23.116   4.348  48.623  1.00  0.00     0.062 C 
HETATM    4  C6  UNL     1      24.428   4.936  48.991  1.00  0.00     0.045 C 
HETATM    5  N2  UNL     1      24.443   6.156  48.609  1.00  0.00    -0.252 NA
HETATM    6  C13 UNL     1      25.239   3.923  49.654  1.00  0.00     0.004 C 
HETATM    7  C14 UNL     1      26.547   4.031  49.516  1.00  0.00     0.091 C 
ENDROOT
BRANCH   1   8
HETATM    8  N1  UNL     1      24.729   1.893  50.847  1.00  0.00    -0.401 N 
HETATM    9  H4  UNL     1      24.873   1.097  50.193  1.00  0.00     0.155 HD
BRANCH   8  10
HETATM   10  C2  UNL     1      24.477   1.559  52.189  1.00  0.00     0.040 C 
HETATM   11  C1  UNL     1      24.547   2.629  53.212  1.00  0.00     0.042 C 
HETATM   12  C15 UNL     1      23.083   0.970  52.239  1.00  0.00    -0.001 C 
HETATM   13  C16 UNL     1      23.068   0.006  53.147  1.00  0.00    -0.028 C 
HETATM   14  C17 UNL     1      24.405  -0.159  53.790  1.00  0.00     0.029 C 
HETATM   15  C18 UNL     1      25.313   0.382  52.688  1.00  0.00     0.038 C 
ENDBRANCH   8  10
ENDBRANCH   1   8
BRANCH   7  16
HETATM   16  N3  UNL     1      27.575   4.801  48.931  1.00  0.00    -0.407 N 
HETATM   17  H14 UNL     1      27.434   5.834  48.895  1.00  0.00     0.155 HD
HETATM   18  H15 UNL     1      28.160   3.947  48.733  1.00  0.00     0.155 HD
ENDBRANCH   7  16
BRANCH   5  19
HETATM   19  C7  UNL     1      25.521   7.036  48.784  1.00  0.00     0.069 C 
HETATM   20  C8  UNL     1      26.268   7.394  47.755  1.00  0.00     0.017 C 
HETATM   21  C9  UNL     1      26.956   8.468  47.781  1.00  0.00    -0.011 C 
HETATM   22  C10 UNL     1      27.402   8.966  48.883  1.00  0.00     0.013 C 
HETATM   23  C11 UNL     1      26.779   8.533  50.150  1.00  0.00     0.003 C 
HETATM   24  C12 UNL     1      25.853   7.586  50.116  1.00  0.00     0.032 C 
ENDBRANCH   5  19
TORSDOF 4
ENDMDL
MODEL 7
REMARK VINA RESULT:      -6.6      3.201      5.491
REMARK  4 active torsions:
REMARK  status: ('A' for Active; 'I' for Inactive)
REMARK    1  A    between atoms: C2_2  and  N1_3 
REMARK    2  A    between atoms: N1_3  and  C3_4 
REMARK    3  A    between atoms: N2_8  and  C7_9 
REMARK    4  A    between atoms: C14_16  and  N3_17 
ROOT
HETATM    1  C3  UNL     1      23.657   4.524  48.860  1.00  0.00     0.114 C 
HETATM    2  C4  UNL     1      22.737   4.121  47.757  1.00  0.00     0.036 C 
HETATM    3  C5  UNL     1      22.435   2.657  48.086  1.00  0.00     0.062 C 
HETATM    4  C6  UNL     1      22.563   2.631  49.564  1.00  0.00     0.045 C 
HETATM    5  N2  UNL     1      22.341   1.437  49.966  1.00  0.00    -0.252 NA
HETATM    6  C13 UNL     1      22.894   3.968  50.042  1.00  0.00     0.004 C 
HETATM    7  C14 UNL     1      22.476   4.282  51.253  1.00  0.00     0.091 C 
ENDROOT
BRANCH   1   8
HETATM    8  N1  UNL     1      23.914   5.900  49.025  1.00  0.00    -0.401 N 
HETATM    9  H4  UNL     1      23.262   6.556  48.551  1.00  0.00     0.155 HD
BRANCH   8  10
HETATM   10  C2  UNL     1      25.235   6.349  49.196  1.00  0.00     0.040 C 
HETATM   11  C1  UNL     1      25.558   7.168  50.388  1.00  0.00     0.042 C 
HETATM   12  C15 UNL     1      26.114   5.116  49.239  1.00  0.00    -0.001 C 
HETATM   13  C16 UNL     1      27.263   5.400  48.645  1.00  0.00    -0.028 C 
HETATM   14  C17 UNL     1      27.288   6.809  48.151  1.00  0.00     0.029 C 
HETATM   15  C18 UNL     1      25.794   7.067  47.970  1.00  0.00     0.038 C 
ENDBRANCH   8  10
ENDBRANCH   1   8
BRANCH   7  16
HETATM   16  N3  UNL     1      21.772   3.804  52.379  1.00  0.00    -0.407 N 
HETATM   17  H14 UNL     1      21.084   4.452  52.820  1.00  0.00     0.155 HD
HETATM   18  H15 UNL     1      22.260   2.871  52.342  1.00  0.00     0.155 HD
ENDBRANCH   7  16
BRANCH   5  19
HETATM   19  C7  UNL     1      22.372   1.026  51.306  1.00  0.00     0.069 C 
HETATM   20  C8  UNL     1      21.265   0.641  51.915  1.00  0.00     0.017 C 
HETATM   21  C9  UNL     1      21.304  -0.110  52.945  1.00  0.00    -0.011 C 
HETATM   22  C10 UNL     1      22.310  -0.111  53.751  1.00  0.00     0.013 C 
HETATM   23  C11 UNL     1      23.591   0.447  53.272  1.00  0.00     0.003 C 
HETATM   24  C12 UNL     1      23.636   1.008  52.073  1.00  0.00     0.032 C 
ENDBRANCH   5  19
TORSDOF 4
ENDMDL
MODEL 8
REMARK VINA RESULT:      -6.6      9.687     12.506
REMARK  4 active torsions:
REMARK  status: ('A' for Active; 'I' for Inactive)
REMARK    1  A    between atoms: C2_2  and  N1_3 
REMARK    2  A    between atoms: N1_3  and  C3_4 
REMARK    3  A    between atoms: N2_8  and  C7_9 
REMARK    4  A    between atoms: C14_16  and  N3_17 
ROOT
HETATM    1  C3  UNL     1      33.905   6.701  46.929  1.00  0.00     0.114 C 
HETATM    2  C4  UNL     1      34.585   8.027  46.954  1.00  0.00     0.036 C 
HETATM    3  C5  UNL     1      33.413   9.010  46.917  1.00  0.00     0.062 C 
HETATM    4  C6  UNL     1      32.333   8.241  47.585  1.00  0.00     0.045 C 
HETATM    5  N2  UNL     1      31.278   8.965  47.606  1.00  0.00    -0.252 NA
HETATM    6  C13 UNL     1      32.847   6.937  47.984  1.00  0.00     0.004 C 
HETATM    7  C14 UNL     1      32.297   6.387  49.049  1.00  0.00     0.091 C 
ENDROOT
BRANCH   1   8
HETATM    8  N1  UNL     1      34.680   5.564  47.235  1.00  0.00    -0.401 N 
HETATM    9  H4  UNL     1      35.694   5.722  47.397  1.00  0.00     0.155 HD
BRANCH   8  10
HETATM   10  C2  UNL     1      34.320   4.311  46.709  1.00  0.00     0.040 C 
HETATM   11  C1  UNL     1      35.160   3.721  45.640  1.00  0.00     0.042 C 
HETATM   12  C15 UNL     1      34.307   3.337  47.869  1.00  0.00    -0.001 C 
HETATM   13  C16 UNL     1      33.327   2.468  47.675  1.00  0.00    -0.028 C 
HETATM   14  C17 UNL     1      32.593   2.747  46.406  1.00  0.00     0.029 C 
HETATM   15  C18 UNL     1      32.865   4.241  46.250  1.00  0.00     0.038 C 
ENDBRANCH   8  10
ENDBRANCH   1   8
BRANCH   7  16
HETATM   16  N3  UNL     1      31.322   6.565  50.053  1.00  0.00    -0.407 N 
HETATM   17  H14 UNL     1      31.285   5.853  50.814  1.00  0.00     0.155 HD
HETATM   18  H15 UNL     1      30.961   7.449  49.606  1.00  0.00     0.155 HD
ENDBRANCH   7  16
BRANCH   5  19
HETATM   19  C7  UNL     1      30.051   8.573  48.159  1.00  0.00     0.069 C 
HETATM   20  C8  UNL     1      29.589   9.159  49.249  1.00  0.00     0.017 C 
HETATM   21  C9  UNL     1      28.346   9.141  49.533  1.00  0.00    -0.011 C 
HETATM   22  C10 UNL     1      27.573   8.183  49.150  1.00  0.00     0.013 C 
HETATM   23  C11 UNL     1      28.026   7.319  48.041  1.00  0.00     0.003 C 
HETATM   24  C12 UNL     1      29.241   7.500  47.544  1.00  0.00     0.032 C 
ENDBRANCH   5  19
TORSDOF 4
ENDMDL
MODEL 9
REMARK VINA RESULT:      -6.6      8.911     11.888
REMARK  4 active torsions:
REMARK  status: ('A' for Active; 'I' for Inactive)
REMARK    1  A    between atoms: C2_2  and  N1_3 
REMARK    2  A    between atoms: N1_3  and  C3_4 
REMARK    3  A    between atoms: N2_8  and  C7_9 
REMARK    4  A    between atoms: C14_16  and  N3_17 
ROOT
HETATM    1  C3  UNL     1      32.277   5.619  48.066  1.00  0.00     0.114 C 
HETATM    2  C4  UNL     1      32.969   6.489  49.060  1.00  0.00     0.036 C 
HETATM    3  C5  UNL     1      32.330   7.858  48.813  1.00  0.00     0.062 C 
HETATM    4  C6  UNL     1      30.977   7.494  48.326  1.00  0.00     0.045 C 
HETATM    5  N2  UNL     1      30.338   8.573  48.071  1.00  0.00    -0.252 NA
HETATM    6  C13 UNL     1      30.845   6.043  48.310  1.00  0.00     0.004 C 
HETATM    7  C14 UNL     1      29.632   5.558  48.494  1.00  0.00     0.091 C 
ENDROOT
BRANCH   1   8
HETATM    8  N1  UNL     1      32.423   4.224  48.206  1.00  0.00    -0.401 N 
HETATM    9  H4  UNL     1      32.451   3.854  49.177  1.00  0.00     0.155 HD
BRANCH   8  10
HETATM   10  C2  UNL     1      33.138   3.495  47.239  1.00  0.00     0.040 C 
HETATM   11  C1  UNL     1      32.745   2.092  46.974  1.00  0.00     0.042 C 
HETATM   12  C15 UNL     1      33.016   4.258  45.937  1.00  0.00    -0.001 C 
HETATM   13  C16 UNL     1      34.156   4.138  45.273  1.00  0.00    -0.028 C 
HETATM   14  C17 UNL     1      35.142   3.309  46.027  1.00  0.00     0.029 C 
HETATM   15  C18 UNL     1      34.650   3.523  47.457  1.00  0.00     0.038 C 
ENDBRANCH   8  10
ENDBRANCH   1   8
BRANCH   7  16
HETATM   16  N3  UNL     1      28.284   5.907  48.723  1.00  0.00    -0.407 N 
HETATM   17  H14 UNL     1      27.644   5.149  49.045  1.00  0.00     0.155 HD
HETATM   18  H15 UNL     1      28.455   6.912  48.454  1.00  0.00     0.155 HD
ENDBRANCH   7  16
BRANCH   5  19
HETATM   19  C7  UNL     1      29.023   8.628  47.589  1.00  0.00     0.069 C 
HETATM   20  C8  UNL     1      28.042   9.052  48.366  1.00  0.00     0.017 C 
HETATM   21  C9  UNL     1      26.957   9.506  47.872  1.00  0.00    -0.011 C 
HETATM   22  C10 UNL     1      26.515   9.118  46.725  1.00  0.00     0.013 C 
HETATM   23  C11 UNL     1      27.459   8.464  45.796  1.00  0.00     0.003 C 
HETATM   24  C12 UNL     1      28.694   8.217  46.208  1.00  0.00     0.032 C 
ENDBRANCH   5  19
TORSDOF 4
ENDMDL
