MODEL 1
REMARK VINA RESULT:      -9.3      0.000      0.000
REMARK  5 active torsions:
REMARK  status: ('A' for Active; 'I' for Inactive)
REMARK    1  A    between atoms: N1_1  and  C1_2 
REMARK    2  A    between atoms: N3_5  and  C3_6 
REMARK    3  A    between atoms: C11_15  and  C12_16 
REMARK    4  A    between atoms: C12_16  and  C13_17 
REMARK    5  A    between atoms: C13_17  and  C14_18 
ROOT
HETATM    1  C1  UNL     1      22.249   0.990  53.087  1.00  0.00     0.718 C 
HETATM    2  N2  UNL     1      23.025   0.121  53.408  1.00  0.00    -0.086 NA
HETATM    3  C2  UNL     1      24.240  -0.518  53.386  1.00  0.00     0.294 C 
HETATM    4  N3  UNL     1      25.318   0.107  52.616  1.00  0.00    -0.352 N 
HETATM    5  C10 UNL     1      25.805   1.168  51.709  1.00  0.00     0.160 C 
HETATM    6  C11 UNL     1      25.490   2.469  51.472  1.00  0.00     0.013 C 
HETATM    7  N5  UNL     1      24.596   3.593  51.823  1.00  0.00    -0.355 N 
HETATM    8  C20 UNL     1      23.784   2.751  52.666  1.00  0.00     0.227 C 
HETATM    9  N6  UNL     1      23.011   1.784  52.200  1.00  0.00    -0.059 NA
HETATM   10  H21 UNL     1      24.724   4.518  51.467  1.00  0.00     0.166 HD
ENDROOT
BRANCH   4  11
HETATM   11  C3  UNL     1      26.511  -0.681  52.753  1.00  0.00     0.021 A 
HETATM   12  C4  UNL     1      27.168  -1.892  52.583  1.00  0.00     0.005 A 
HETATM   13  C5  UNL     1      28.604  -1.743  53.083  1.00  0.00     0.025 A 
HETATM   14  C6  UNL     1      29.633  -0.845  53.677  1.00  0.00    -0.033 A 
HETATM   15  N4  UNL     1      28.637  -0.194  53.577  1.00  0.00     0.000 N 
HETATM   16  C7  UNL     1      29.329   0.391  54.583  1.00  0.00     0.032 A 
HETATM   17  H10 UNL     1      29.877  -0.096  52.752  1.00  0.00     0.031 HD
HETATM   18  C8  UNL     1      28.232   1.165  53.955  1.00  0.00    -0.034 C 
HETATM   19  C9  UNL     1      27.316   0.444  53.374  1.00  0.00     0.052 A 
ENDBRANCH   4  11
BRANCH   6  20
HETATM   20  C12 UNL     1      26.417   2.889  50.413  1.00  0.00     0.059 C 
BRANCH  20  21
HETATM   21  C13 UNL     1      25.750   3.818  49.415  1.00  0.00     0.044 C 
BRANCH  21  22
HETATM   22  C14 UNL     1      26.597   4.923  48.967  1.00  0.00    -0.058 A 
HETATM   23  C15 UNL     1      27.917   4.732  48.625  1.00  0.00     0.007 A 
HETATM   24  C16 UNL     1      28.715   5.774  48.203  1.00  0.00     0.001 A 
HETATM   25  C17 UNL     1      28.150   7.032  48.130  1.00  0.00     0.000 A 
HETATM   26  C18 UNL     1      26.813   7.275  48.467  1.00  0.00     0.001 A 
HETATM   27  C19 UNL     1      26.047   6.191  48.889  1.00  0.00     0.007 A 
ENDBRANCH  21  22
ENDBRANCH  20  21
ENDBRANCH   6  20
BRANCH   1  28
HETATM   28  N1  UNL     1      20.916   1.448  53.288  1.00  0.00    -0.231 N 
HETATM   29  H1  UNL     1      20.321   1.882  52.547  1.00  0.00     0.174 HD
HETATM   30  H2  UNL     1      20.328   1.434  54.155  1.00  0.00     0.174 HD
ENDBRANCH   1  28
TORSDOF 5
ENDMDL
MODEL 2
REMARK VINA RESULT:      -9.2      3.149      7.540
REMARK  5 active torsions:
REMARK  status: ('A' for Active; 'I' for Inactive)
REMARK    1  A    between atoms: N1_1  and  C1_2 
REMARK    2  A    between atoms: N3_5  and  C3_6 
REMARK    3  A    between atoms: C11_15  and  C12_16 
REMARK    4  A    between atoms: C12_16  and  C13_17 
REMARK    5  A    between atoms: C13_17  and  C14_18 
ROOT
HETATM    1  C1  UNL     1      27.401  -0.522  53.321  1.00  0.00     0.718 C 
HETATM    2  N2  UNL     1      26.998   0.330  52.564  1.00  0.00    -0.086 NA
HETATM    3  C2  UNL     1      26.019   1.040  51.915  1.00  0.00     0.294 C 
HETATM    4  N3  UNL     1      24.627   0.743  52.260  1.00  0.00    -0.352 N 
HETATM    5  C10 UNL     1      23.626  -0.056  52.998  1.00  0.00     0.160 C 
HETATM    6  C11 UNL     1      23.591  -0.725  54.181  1.00  0.00     0.013 C 
HETATM    7  N5  UNL     1      24.356  -1.125  55.381  1.00  0.00    -0.355 N 
HETATM    8  C20 UNL     1      25.580  -0.587  54.843  1.00  0.00     0.227 C 
HETATM    9  N6  UNL     1      26.209  -1.108  53.802  1.00  0.00    -0.059 NA
HETATM   10  H21 UNL     1      23.938  -1.594  56.158  1.00  0.00     0.166 HD
ENDROOT
BRANCH   4  11
HETATM   11  C3  UNL     1      23.762   1.614  51.516  1.00  0.00     0.021 A 
HETATM   12  C4  UNL     1      22.945   1.830  50.414  1.00  0.00     0.005 A 
HETATM   13  C5  UNL     1      22.375   3.245  50.498  1.00  0.00     0.025 A 
HETATM   14  C6  UNL     1      22.301   4.519  51.266  1.00  0.00    -0.033 A 
HETATM   15  N4  UNL     1      23.033   3.800  51.878  1.00  0.00     0.000 N 
HETATM   16  C7  UNL     1      23.413   5.051  52.227  1.00  0.00     0.032 A 
HETATM   17  H10 UNL     1      21.637   4.194  52.230  1.00  0.00     0.031 HD
HETATM   18  C8  UNL     1      23.860   3.927  53.083  1.00  0.00    -0.034 C 
HETATM   19  C9  UNL     1      23.905   2.769  52.487  1.00  0.00     0.052 A 
ENDBRANCH   4  11
BRANCH   6  20
HETATM   20  C12 UNL     1      22.236  -1.288  54.251  1.00  0.00     0.059 C 
BRANCH  20  21
HETATM   21  C13 UNL     1      21.185  -0.209  54.432  1.00  0.00     0.044 C 
BRANCH  21  22
HETATM   22  C14 UNL     1      20.085  -0.278  53.471  1.00  0.00    -0.058 A 
HETATM   23  C15 UNL     1      19.027  -1.141  53.640  1.00  0.00     0.007 A 
HETATM   24  C16 UNL     1      17.990  -1.206  52.735  1.00  0.00     0.001 A 
HETATM   25  C17 UNL     1      18.039  -0.370  51.636  1.00  0.00     0.000 A 
HETATM   26  C18 UNL     1      19.094   0.525  51.421  1.00  0.00     0.001 A 
HETATM   27  C19 UNL     1      20.118   0.553  52.364  1.00  0.00     0.007 A 
ENDBRANCH  21  22
ENDBRANCH  20  21
ENDBRANCH   6  20
BRANCH   1  28
HETATM   28  N1  UNL     1      28.593  -1.092  53.852  1.00  0.00    -0.231 N 
HETATM   29  H1  UNL     1      29.541  -0.663  53.773  1.00  0.00     0.174 HD
HETATM   30  H2  UNL     1      28.726  -1.985  54.385  1.00  0.00     0.174 HD
ENDBRANCH   1  28
TORSDOF 5
ENDMDL
MODEL 3
REMARK VINA RESULT:      -9.1      0.920      1.849
REMARK  5 active torsions:
REMARK  status: ('A' for Active; 'I' for Inactive)
REMARK    1  A    between atoms: N1_1  and  C1_2 
REMARK    2  A    between atoms: N3_5  and  C3_6 
REMARK    3  A    between atoms: C11_15  and  C12_16 
REMARK    4  A    between atoms: C12_16  and  C13_17 
REMARK    5  A    between atoms: C13_17  and  C14_18 
ROOT
HETATM    1  C1  UNL     1      22.661   0.613  52.238  1.00  0.00     0.718 C 
HETATM    2  N2  UNL     1      23.582   0.345  52.973  1.00  0.00    -0.086 NA
HETATM    3  C2  UNL     1      24.895   0.386  53.373  1.00  0.00     0.294 C 
HETATM    4  N3  UNL     1      25.812   1.221  52.593  1.00  0.00    -0.352 N 
HETATM    5  C10 UNL     1      26.085   2.100  51.436  1.00  0.00     0.160 C 
HETATM    6  C11 UNL     1      25.365   2.974  50.683  1.00  0.00     0.013 C 
HETATM    7  N5  UNL     1      24.037   3.578  50.450  1.00  0.00    -0.355 N 
HETATM    8  C20 UNL     1      23.414   2.710  51.418  1.00  0.00     0.227 C 
HETATM    9  N6  UNL     1      23.273   1.406  51.241  1.00  0.00    -0.059 NA
HETATM   10  H21 UNL     1      23.886   4.318  49.795  1.00  0.00     0.166 HD
ENDROOT
BRANCH   4  11
HETATM   11  C3  UNL     1      27.117   1.170  53.190  1.00  0.00     0.021 A 
HETATM   12  C4  UNL     1      28.177   1.828  53.799  1.00  0.00     0.005 A 
HETATM   13  C5  UNL     1      29.261   0.802  54.132  1.00  0.00     0.025 A 
HETATM   14  C6  UNL     1      29.682  -0.626  54.099  1.00  0.00    -0.033 A 
HETATM   15  N4  UNL     1      28.603  -0.582  53.588  1.00  0.00     0.000 N 
HETATM   16  C7  UNL     1      29.187  -1.682  53.058  1.00  0.00     0.032 A 
HETATM   17  H10 UNL     1      28.954  -1.123  54.934  1.00  0.00     0.031 HD
HETATM   18  C8  UNL     1      27.718  -1.547  52.926  1.00  0.00    -0.034 C 
HETATM   19  C9  UNL     1      27.271  -0.325  52.992  1.00  0.00     0.052 A 
ENDBRANCH   4  11
BRANCH   6  20
HETATM   20  C12 UNL     1      26.321   3.487  49.693  1.00  0.00     0.059 C 
BRANCH  20  21
HETATM   21  C13 UNL     1      25.906   4.846  49.160  1.00  0.00     0.044 C 
BRANCH  21  22
HETATM   22  C14 UNL     1      27.003   5.623  48.583  1.00  0.00    -0.058 A 
HETATM   23  C15 UNL     1      26.813   6.896  48.095  1.00  0.00     0.007 A 
HETATM   24  C16 UNL     1      27.846   7.628  47.552  1.00  0.00     0.001 A 
HETATM   25  C17 UNL     1      29.098   7.044  47.509  1.00  0.00     0.000 A 
HETATM   26  C18 UNL     1      29.340   5.753  47.993  1.00  0.00     0.001 A 
HETATM   27  C19 UNL     1      28.264   5.053  48.532  1.00  0.00     0.007 A 
ENDBRANCH  21  22
ENDBRANCH  20  21
ENDBRANCH   6  20
BRANCH   1  28
HETATM   28  N1  UNL     1      21.264   0.412  52.053  1.00  0.00    -0.231 N 
HETATM   29  H1  UNL     1      20.645  -0.098  52.723  1.00  0.00     0.174 HD
HETATM   30  H2  UNL     1      20.644   0.718  51.266  1.00  0.00     0.174 HD
ENDBRANCH   1  28
TORSDOF 5
ENDMDL
MODEL 4
REMARK VINA RESULT:      -9.0      1.983      4.924
REMARK  5 active torsions:
REMARK  status: ('A' for Active; 'I' for Inactive)
REMARK    1  A    between atoms: N1_1  and  C1_2 
REMARK    2  A    between atoms: N3_5  and  C3_6 
REMARK    3  A    between atoms: C11_15  and  C12_16 
REMARK    4  A    between atoms: C12_16  and  C13_17 
REMARK    5  A    between atoms: C13_17  and  C14_18 
ROOT
HETATM    1  C1  UNL     1      24.438  -0.843  54.798  1.00  0.00     0.718 C 
HETATM    2  N2  UNL     1      23.454  -0.609  54.137  1.00  0.00    -0.086 NA
HETATM    3  C2  UNL     1      22.768   0.013  53.123  1.00  0.00     0.294 C 
HETATM    4  N3  UNL     1      23.532   0.881  52.224  1.00  0.00    -0.352 N 
HETATM    5  C10 UNL     1      24.797   1.542  51.839  1.00  0.00     0.160 C 
HETATM    6  C11 UNL     1      26.122   1.262  51.963  1.00  0.00     0.013 C 
HETATM    7  N5  UNL     1      27.124   0.312  52.490  1.00  0.00    -0.355 N 
HETATM    8  C20 UNL     1      26.112  -0.467  53.158  1.00  0.00     0.227 C 
HETATM    9  N6  UNL     1      25.424  -0.027  54.199  1.00  0.00    -0.059 NA
HETATM   10  H21 UNL     1      28.102   0.400  52.304  1.00  0.00     0.166 HD
ENDROOT
BRANCH   4  11
HETATM   11  C3  UNL     1      22.654   1.397  51.211  1.00  0.00     0.021 A 
HETATM   12  C4  UNL     1      21.991   1.223  50.004  1.00  0.00     0.005 A 
HETATM   13  C5  UNL     1      21.182   2.485  49.705  1.00  0.00     0.025 A 
HETATM   14  C6  UNL     1      20.776   3.844  50.155  1.00  0.00    -0.033 A 
HETATM   15  N4  UNL     1      21.517   3.422  50.991  1.00  0.00     0.000 N 
HETATM   16  C7  UNL     1      21.621   4.767  51.092  1.00  0.00     0.032 A 
HETATM   17  H10 UNL     1      20.038   3.592  51.087  1.00  0.00     0.031 HD
HETATM   18  C8  UNL     1      22.117   3.947  52.222  1.00  0.00    -0.034 C 
HETATM   19  C9  UNL     1      22.450   2.727  51.909  1.00  0.00     0.052 A 
ENDBRANCH   4  11
BRANCH   6  20
HETATM   20  C12 UNL     1      26.803   2.398  51.329  1.00  0.00     0.059 C 
BRANCH  20  21
HETATM   21  C13 UNL     1      26.459   2.512  49.856  1.00  0.00     0.044 C 
BRANCH  21  22
HETATM   22  C14 UNL     1      26.227   3.882  49.400  1.00  0.00    -0.058 A 
HETATM   23  C15 UNL     1      27.256   4.687  48.969  1.00  0.00     0.007 A 
HETATM   24  C16 UNL     1      27.038   5.978  48.539  1.00  0.00     0.001 A 
HETATM   25  C17 UNL     1      25.740   6.452  48.551  1.00  0.00     0.000 A 
HETATM   26  C18 UNL     1      24.660   5.671  48.981  1.00  0.00     0.001 A 
HETATM   27  C19 UNL     1      24.932   4.373  49.406  1.00  0.00     0.007 A 
ENDBRANCH  21  22
ENDBRANCH  20  21
ENDBRANCH   6  20
BRANCH   1  28
HETATM   28  N1  UNL     1      24.903  -1.611  55.903  1.00  0.00    -0.231 N 
HETATM   29  H1  UNL     1      24.750  -1.359  56.905  1.00  0.00     0.174 HD
HETATM   30  H2  UNL     1      25.444  -2.508  55.912  1.00  0.00     0.174 HD
ENDBRANCH   1  28
TORSDOF 5
ENDMDL
MODEL 5
REMARK VINA RESULT:      -8.8      2.544      6.451
REMARK  5 active torsions:
REMARK  status: ('A' for Active; 'I' for Inactive)
REMARK    1  A    between atoms: N1_1  and  C1_2 
REMARK    2  A    between atoms: N3_5  and  C3_6 
REMARK    3  A    between atoms: C11_15  and  C12_16 
REMARK    4  A    between atoms: C12_16  and  C13_17 
REMARK    5  A    between atoms: C13_17  and  C14_18 
ROOT
HETATM    1  C1  UNL     1      20.169  -0.045  53.142  1.00  0.00     0.718 C 
HETATM    2  N2  UNL     1      20.265   0.720  52.211  1.00  0.00    -0.086 NA
HETATM    3  C2  UNL     1      20.944   1.587  51.391  1.00  0.00     0.294 C 
HETATM    4  N3  UNL     1      22.381   1.749  51.622  1.00  0.00    -0.352 N 
HETATM    5  C10 UNL     1      23.599   1.460  52.408  1.00  0.00     0.160 C 
HETATM    6  C11 UNL     1      24.053   0.422  53.161  1.00  0.00     0.013 C 
HETATM    7  N5  UNL     1      23.747  -0.920  53.699  1.00  0.00    -0.355 N 
HETATM    8  C20 UNL     1      22.395  -0.868  53.203  1.00  0.00     0.227 C 
HETATM    9  N6  UNL     1      21.474  -0.049  53.684  1.00  0.00    -0.059 NA
HETATM   10  H21 UNL     1      24.418  -1.469  54.196  1.00  0.00     0.166 HD
ENDROOT
BRANCH   4  11
HETATM   11  C3  UNL     1      22.916   2.652  50.643  1.00  0.00     0.021 A 
HETATM   12  C4  UNL     1      23.431   2.867  49.371  1.00  0.00     0.005 A 
HETATM   13  C5  UNL     1      23.754   4.353  49.220  1.00  0.00     0.025 A 
HETATM   14  C6  UNL     1      23.749   5.703  49.848  1.00  0.00    -0.033 A 
HETATM   15  N4  UNL     1      23.318   4.949  50.668  1.00  0.00     0.000 N 
HETATM   16  C7  UNL     1      23.833   5.976  51.384  1.00  0.00     0.032 A 
HETATM   17  H10 UNL     1      22.563   5.963  49.876  1.00  0.00     0.031 HD
HETATM   18  C8  UNL     1      22.894   5.057  52.069  1.00  0.00    -0.034 C 
HETATM   19  C9  UNL     1      22.812   3.867  51.544  1.00  0.00     0.052 A 
ENDBRANCH   4  11
BRANCH   6  20
HETATM   20  C12 UNL     1      25.372   0.856  53.638  1.00  0.00     0.059 C 
BRANCH  20  21
HETATM   21  C13 UNL     1      26.431   0.734  52.557  1.00  0.00     0.044 C 
BRANCH  21  22
HETATM   22  C14 UNL     1      27.460  -0.266  52.839  1.00  0.00    -0.058 A 
HETATM   23  C15 UNL     1      28.698   0.084  53.326  1.00  0.00     0.007 A 
HETATM   24  C16 UNL     1      29.668  -0.859  53.592  1.00  0.00     0.001 A 
HETATM   25  C17 UNL     1      29.361  -2.185  53.354  1.00  0.00     0.000 A 
HETATM   26  C18 UNL     1      28.116  -2.590  52.859  1.00  0.00     0.001 A 
HETATM   27  C19 UNL     1      27.169  -1.600  52.606  1.00  0.00     0.007 A 
ENDBRANCH  21  22
ENDBRANCH  20  21
ENDBRANCH   6  20
BRANCH   1  28
HETATM   28  N1  UNL     1      19.245  -0.885  53.827  1.00  0.00    -0.231 N 
HETATM   29  H1  UNL     1      18.241  -0.650  53.990  1.00  0.00     0.174 HD
HETATM   30  H2  UNL     1      19.394  -1.827  54.261  1.00  0.00     0.174 HD
ENDBRANCH   1  28
TORSDOF 5
ENDMDL
MODEL 6
REMARK VINA RESULT:      -8.5      2.243      6.338
REMARK  5 active torsions:
REMARK  status: ('A' for Active; 'I' for Inactive)
REMARK    1  A    between atoms: N1_1  and  C1_2 
REMARK    2  A    between atoms: N3_5  and  C3_6 
REMARK    3  A    between atoms: C11_15  and  C12_16 
REMARK    4  A    between atoms: C12_16  and  C13_17 
REMARK    5  A    between atoms: C13_17  and  C14_18 
ROOT
HETATM    1  C1  UNL     1      20.917   2.446  48.912  1.00  0.00     0.718 C 
HETATM    2  N2  UNL     1      21.882   2.956  48.393  1.00  0.00    -0.086 NA
HETATM    3  C2  UNL     1      23.173   3.423  48.379  1.00  0.00     0.294 C 
HETATM    4  N3  UNL     1      23.976   3.225  49.588  1.00  0.00    -0.352 N 
HETATM    5  C10 UNL     1      24.102   2.773  50.990  1.00  0.00     0.160 C 
HETATM    6  C11 UNL     1      23.518   1.820  51.765  1.00  0.00     0.013 C 
HETATM    7  N5  UNL     1      22.503   0.747  51.823  1.00  0.00    -0.355 N 
HETATM    8  C20 UNL     1      22.011   1.071  50.507  1.00  0.00     0.227 C 
HETATM    9  N6  UNL     1      21.363   2.190  50.228  1.00  0.00    -0.059 NA
HETATM   10  H21 UNL     1      22.398   0.144  52.613  1.00  0.00     0.166 HD
ENDROOT
BRANCH   4  11
HETATM   11  C3  UNL     1      25.299   3.734  49.362  1.00  0.00     0.021 A 
HETATM   12  C4  UNL     1      26.670   3.518  49.316  1.00  0.00     0.005 A 
HETATM   13  C5  UNL     1      27.357   4.826  48.926  1.00  0.00     0.025 A 
HETATM   14  C6  UNL     1      27.197   6.259  48.556  1.00  0.00    -0.033 A 
HETATM   15  N4  UNL     1      26.097   5.840  48.758  1.00  0.00     0.000 N 
HETATM   16  C7  UNL     1      26.004   7.170  48.993  1.00  0.00     0.032 A 
HETATM   17  H10 UNL     1      26.716   6.181  47.443  1.00  0.00     0.031 HD
HETATM   18  C8  UNL     1      24.747   6.414  48.788  1.00  0.00    -0.034 C 
HETATM   19  C9  UNL     1      24.825   5.140  49.050  1.00  0.00     0.052 A 
ENDBRANCH   4  11
BRANCH   6  20
HETATM   20  C12 UNL     1      24.165   1.959  53.076  1.00  0.00     0.059 C 
BRANCH  20  21
HETATM   21  C13 UNL     1      24.955   0.718  53.450  1.00  0.00     0.044 C 
BRANCH  21  22
HETATM   22  C14 UNL     1      26.373   0.967  53.706  1.00  0.00    -0.058 A 
HETATM   23  C15 UNL     1      27.009   2.092  53.233  1.00  0.00     0.007 A 
HETATM   24  C16 UNL     1      28.346   2.326  53.474  1.00  0.00     0.001 A 
HETATM   25  C17 UNL     1      29.042   1.390  54.214  1.00  0.00     0.000 A 
HETATM   26  C18 UNL     1      28.439   0.231  54.716  1.00  0.00     0.001 A 
HETATM   27  C19 UNL     1      27.087   0.038  54.445  1.00  0.00     0.007 A 
ENDBRANCH  21  22
ENDBRANCH  20  21
ENDBRANCH   6  20
BRANCH   1  28
HETATM   28  N1  UNL     1      19.574   2.046  48.658  1.00  0.00    -0.231 N 
HETATM   29  H1  UNL     1      18.751   2.337  49.232  1.00  0.00     0.174 HD
HETATM   30  H2  UNL     1      19.192   1.431  47.901  1.00  0.00     0.174 HD
ENDBRANCH   1  28
TORSDOF 5
ENDMDL
MODEL 7
REMARK VINA RESULT:      -8.4      1.944      5.175
REMARK  5 active torsions:
REMARK  status: ('A' for Active; 'I' for Inactive)
REMARK    1  A    between atoms: N1_1  and  C1_2 
REMARK    2  A    between atoms: N3_5  and  C3_6 
REMARK    3  A    between atoms: C11_15  and  C12_16 
REMARK    4  A    between atoms: C12_16  and  C13_17 
REMARK    5  A    between atoms: C13_17  and  C14_18 
ROOT
HETATM    1  C1  UNL     1      25.943   0.706  54.096  1.00  0.00     0.718 C 
HETATM    2  N2  UNL     1      24.881   0.284  53.704  1.00  0.00    -0.086 NA
HETATM    3  C2  UNL     1      23.735   0.337  52.950  1.00  0.00     0.294 C 
HETATM    4  N3  UNL     1      23.596   1.451  52.009  1.00  0.00    -0.352 N 
HETATM    5  C10 UNL     1      24.094   2.716  51.429  1.00  0.00     0.160 C 
HETATM    6  C11 UNL     1      25.313   3.280  51.219  1.00  0.00     0.013 C 
HETATM    7  N5  UNL     1      26.774   3.131  51.392  1.00  0.00    -0.355 N 
HETATM    8  C20 UNL     1      26.610   1.932  52.176  1.00  0.00     0.227 C 
HETATM    9  N6  UNL     1      26.082   1.921  53.388  1.00  0.00    -0.059 NA
HETATM   10  H21 UNL     1      27.433   3.773  51.003  1.00  0.00     0.166 HD
ENDROOT
BRANCH   4  11
HETATM   11  C3  UNL     1      22.364   1.305  51.287  1.00  0.00     0.021 A 
HETATM   12  C4  UNL     1      21.638   0.689  50.275  1.00  0.00     0.005 A 
HETATM   13  C5  UNL     1      20.220   1.260  50.275  1.00  0.00     0.025 A 
HETATM   14  C6  UNL     1      19.252   2.200  50.904  1.00  0.00    -0.033 A 
HETATM   15  N4  UNL     1      20.281   2.332  51.496  1.00  0.00     0.000 N 
HETATM   16  C7  UNL     1      19.639   3.512  51.659  1.00  0.00     0.032 A 
HETATM   17  H10 UNL     1      19.035   1.662  51.972  1.00  0.00     0.031 HD
HETATM   18  C8  UNL     1      20.766   3.206  52.570  1.00  0.00    -0.034 C 
HETATM   19  C9  UNL     1      21.632   2.353  52.102  1.00  0.00     0.052 A 
ENDBRANCH   4  11
BRANCH   6  20
HETATM   20  C12 UNL     1      25.022   4.571  50.584  1.00  0.00     0.059 C 
BRANCH  20  21
HETATM   21  C13 UNL     1      25.311   4.546  49.094  1.00  0.00     0.044 C 
BRANCH  21  22
HETATM   22  C14 UNL     1      26.435   5.390  48.689  1.00  0.00    -0.058 A 
HETATM   23  C15 UNL     1      26.264   6.715  48.358  1.00  0.00     0.007 A 
HETATM   24  C16 UNL     1      27.323   7.511  47.976  1.00  0.00     0.001 A 
HETATM   25  C17 UNL     1      28.579   6.938  47.934  1.00  0.00     0.000 A 
HETATM   26  C18 UNL     1      28.802   5.595  48.262  1.00  0.00     0.001 A 
HETATM   27  C19 UNL     1      27.701   4.832  48.641  1.00  0.00     0.007 A 
ENDBRANCH  21  22
ENDBRANCH  20  21
ENDBRANCH   6  20
BRANCH   1  28
HETATM   28  N1  UNL     1      27.026   0.408  54.972  1.00  0.00    -0.231 N 
HETATM   29  H1  UNL     1      27.916   0.953  55.018  1.00  0.00     0.174 HD
HETATM   30  H2  UNL     1      27.120  -0.357  55.681  1.00  0.00     0.174 HD
ENDBRANCH   1  28
TORSDOF 5
ENDMDL
MODEL 8
REMARK VINA RESULT:      -8.4      3.091      7.152
REMARK  5 active torsions:
REMARK  status: ('A' for Active; 'I' for Inactive)
REMARK    1  A    between atoms: N1_1  and  C1_2 
REMARK    2  A    between atoms: N3_5  and  C3_6 
REMARK    3  A    between atoms: C11_15  and  C12_16 
REMARK    4  A    between atoms: C12_16  and  C13_17 
REMARK    5  A    between atoms: C13_17  and  C14_18 
ROOT
HETATM    1  C1  UNL     1      27.295  -0.183  53.367  1.00  0.00     0.718 C 
HETATM    2  N2  UNL     1      27.045   0.948  53.023  1.00  0.00    -0.086 NA
HETATM    3  C2  UNL     1      26.201   1.978  52.688  1.00  0.00     0.294 C 
HETATM    4  N3  UNL     1      24.761   1.736  52.800  1.00  0.00    -0.352 N 
HETATM    5  C10 UNL     1      23.626   0.830  53.075  1.00  0.00     0.160 C 
HETATM    6  C11 UNL     1      23.415  -0.262  53.858  1.00  0.00     0.013 C 
HETATM    7  N5  UNL     1      24.020  -1.215  54.812  1.00  0.00    -0.355 N 
HETATM    8  C20 UNL     1      25.334  -0.655  54.619  1.00  0.00     0.227 C 
HETATM    9  N6  UNL     1      26.014  -0.767  53.490  1.00  0.00    -0.059 NA
HETATM   10  H21 UNL     1      23.487  -1.910  55.293  1.00  0.00     0.166 HD
ENDROOT
BRANCH   4  11
HETATM   11  C3  UNL     1      24.054   2.936  52.453  1.00  0.00     0.021 A 
HETATM   12  C4  UNL     1      23.563   4.181  52.821  1.00  0.00     0.005 A 
HETATM   13  C5  UNL     1      22.863   4.806  51.614  1.00  0.00     0.025 A 
HETATM   14  C6  UNL     1      22.477   4.666  50.183  1.00  0.00    -0.033 A 
HETATM   15  N4  UNL     1      23.052   3.661  50.476  1.00  0.00     0.000 N 
HETATM   16  C7  UNL     1      22.248   3.307  49.446  1.00  0.00     0.032 A 
HETATM   17  H10 UNL     1      23.547   4.779  49.621  1.00  0.00     0.031 HD
HETATM   18  C8  UNL     1      23.363   2.397  49.798  1.00  0.00    -0.034 C 
HETATM   19  C9  UNL     1      23.785   2.497  51.027  1.00  0.00     0.052 A 
ENDBRANCH   4  11
BRANCH   6  20
HETATM   20  C12 UNL     1      22.016  -0.633  53.610  1.00  0.00     0.059 C 
BRANCH  20  21
HETATM   21  C13 UNL     1      21.059   0.479  53.999  1.00  0.00     0.044 C 
BRANCH  21  22
HETATM   22  C14 UNL     1      20.291   1.026  52.881  1.00  0.00    -0.058 A 
HETATM   23  C15 UNL     1      20.205   2.381  52.654  1.00  0.00     0.007 A 
HETATM   24  C16 UNL     1      19.482   2.896  51.599  1.00  0.00     0.001 A 
HETATM   25  C17 UNL     1      18.836   2.005  50.764  1.00  0.00     0.000 A 
HETATM   26  C18 UNL     1      18.894   0.620  50.954  1.00  0.00     0.001 A 
HETATM   27  C19 UNL     1      19.637   0.148  52.034  1.00  0.00     0.007 A 
ENDBRANCH  21  22
ENDBRANCH  20  21
ENDBRANCH   6  20
BRANCH   1  28
HETATM   28  N1  UNL     1      28.373  -1.063  53.667  1.00  0.00    -0.231 N 
HETATM   29  H1  UNL     1      28.275  -2.094  53.805  1.00  0.00     0.174 HD
HETATM   30  H2  UNL     1      29.391  -0.853  53.794  1.00  0.00     0.174 HD
ENDBRANCH   1  28
TORSDOF 5
ENDMDL
MODEL 9
REMARK VINA RESULT:      -8.1      2.837      4.469
REMARK  5 active torsions:
REMARK  status: ('A' for Active; 'I' for Inactive)
REMARK    1  A    between atoms: N1_1  and  C1_2 
REMARK    2  A    between atoms: N3_5  and  C3_6 
REMARK    3  A    between atoms: C11_15  and  C12_16 
REMARK    4  A    between atoms: C12_16  and  C13_17 
REMARK    5  A    between atoms: C13_17  and  C14_18 
ROOT
HETATM    1  C1  UNL     1      18.692   4.051  51.182  1.00  0.00     0.718 C 
HETATM    2  N2  UNL     1      19.303   3.375  51.976  1.00  0.00    -0.086 NA
HETATM    3  C2  UNL     1      20.422   2.737  52.450  1.00  0.00     0.294 C 
HETATM    4  N3  UNL     1      21.671   2.922  51.706  1.00  0.00    -0.352 N 
HETATM    5  C10 UNL     1      22.410   3.465  50.547  1.00  0.00     0.160 C 
HETATM    6  C11 UNL     1      22.291   4.549  49.733  1.00  0.00     0.013 C 
HETATM    7  N5  UNL     1      21.494   5.750  49.410  1.00  0.00    -0.355 N 
HETATM    8  C20 UNL     1      20.471   5.391  50.359  1.00  0.00     0.227 C 
HETATM    9  N6  UNL     1      19.668   4.351  50.205  1.00  0.00    -0.059 NA
HETATM   10  H21 UNL     1      21.782   6.424  48.731  1.00  0.00     0.166 HD
ENDROOT
BRANCH   4  11
HETATM   11  C3  UNL     1      22.728   2.221  52.378  1.00  0.00     0.021 A 
HETATM   12  C4  UNL     1      24.027   2.203  52.866  1.00  0.00     0.005 A 
HETATM   13  C5  UNL     1      24.286   0.846  53.519  1.00  0.00     0.025 A 
HETATM   14  C6  UNL     1      23.739  -0.492  53.878  1.00  0.00    -0.033 A 
HETATM   15  N4  UNL     1      22.864   0.085  53.305  1.00  0.00     0.000 N 
HETATM   16  C7  UNL     1      22.592  -1.226  53.112  1.00  0.00     0.032 A 
HETATM   17  H10 UNL     1      22.956  -0.215  54.764  1.00  0.00     0.031 HD
HETATM   18  C8  UNL     1      21.508  -0.249  52.856  1.00  0.00    -0.034 C 
HETATM   19  C9  UNL     1      21.913   0.958  52.579  1.00  0.00     0.052 A 
ENDBRANCH   4  11
BRANCH   6  20
HETATM   20  C12 UNL     1      23.410   4.430  48.790  1.00  0.00     0.059 C 
BRANCH  20  21
HETATM   21  C13 UNL     1      24.717   4.124  49.499  1.00  0.00     0.044 C 
BRANCH  21  22
HETATM   22  C14 UNL     1      25.852   4.916  49.028  1.00  0.00    -0.058 A 
HETATM   23  C15 UNL     1      27.126   4.397  48.972  1.00  0.00     0.007 A 
HETATM   24  C16 UNL     1      28.196   5.143  48.528  1.00  0.00     0.001 A 
HETATM   25  C17 UNL     1      27.956   6.446  48.134  1.00  0.00     0.000 A 
HETATM   26  C18 UNL     1      26.678   7.018  48.173  1.00  0.00     0.001 A 
HETATM   27  C19 UNL     1      25.629   6.224  48.630  1.00  0.00     0.007 A 
ENDBRANCH  21  22
ENDBRANCH  20  21
ENDBRANCH   6  20
BRANCH   1  28
HETATM   28  N1  UNL     1      17.408   4.608  50.921  1.00  0.00    -0.231 N 
HETATM   29  H1  UNL     1      16.526   4.310  51.395  1.00  0.00     0.174 HD
HETATM   30  H2  UNL     1      17.132   5.367  50.253  1.00  0.00     0.174 HD
ENDBRANCH   1  28
TORSDOF 5
ENDMDL
