MODEL 1
REMARK VINA RESULT:      -7.9      0.000      0.000
REMARK  2 active torsions:
REMARK  status: ('A' for Active; 'I' for Inactive)
REMARK    1  A    between atoms: C8_11  and  C9_12 
REMARK    2  A    between atoms: C9_12  and  C10_13 
ROOT
HETATM    1  C1  UNL     1      19.073  -0.490  52.992  1.00  0.00     0.052 C 
HETATM    2  C2  UNL     1      20.224   0.174  52.382  1.00  0.00    -0.015 A 
HETATM    3  C3  UNL     1      19.946   1.231  51.524  1.00  0.00     0.149 A 
HETATM    4  N1  UNL     1      21.145   1.702  51.069  1.00  0.00    -0.161 NA
HETATM    5  N2  UNL     1      22.100   0.949  51.642  1.00  0.00    -0.135 N 
HETATM    6  C4  UNL     1      21.602   0.018  52.438  1.00  0.00     0.083 A 
HETATM    7  C5  UNL     1      21.990  -1.077  53.322  1.00  0.00     0.183 C 
HETATM    8  N3  UNL     1      23.211  -0.860  54.078  1.00  0.00    -0.387 N 
HETATM    9  C6  UNL     1      23.200  -1.440  55.431  1.00  0.00     0.149 C 
HETATM   10  C7  UNL     1      24.463  -0.224  53.883  1.00  0.00     0.114 C 
HETATM   11  C8  UNL     1      25.001   0.573  53.003  1.00  0.00     0.074 C 
HETATM   12  N4  UNL     1      24.520   1.152  51.826  1.00  0.00    -0.134 NA
HETATM   13  N5  UNL     1      23.398   1.313  51.271  1.00  0.00    -0.043 NA
ENDROOT
BRANCH  11  14
HETATM   14  C9  UNL     1      26.426   0.953  53.304  1.00  0.00     0.067 C 
BRANCH  14  15
HETATM   15  C10 UNL     1      27.155  -0.172  54.005  1.00  0.00    -0.009 C 
HETATM   16  C11 UNL     1      28.240   0.374  54.899  1.00  0.00     0.005 C 
HETATM   17  C12 UNL     1      29.394   0.885  54.096  1.00  0.00     0.000 C 
HETATM   18  C13 UNL     1      30.102  -0.284  53.435  1.00  0.00     0.000 C 
HETATM   19  C14 UNL     1      29.200  -1.489  53.359  1.00  0.00     0.000 C 
HETATM   20  C15 UNL     1      27.779  -1.113  53.022  1.00  0.00     0.005 C 
ENDBRANCH  14  15
ENDBRANCH  11  14
TORSDOF 2
ENDMDL
MODEL 2
REMARK VINA RESULT:      -7.8      1.616      3.031
REMARK  2 active torsions:
REMARK  status: ('A' for Active; 'I' for Inactive)
REMARK    1  A    between atoms: C8_11  and  C9_12 
REMARK    2  A    between atoms: C9_12  and  C10_13 
ROOT
HETATM    1  C1  UNL     1      18.151   0.602  51.467  1.00  0.00     0.052 C 
HETATM    2  C2  UNL     1      18.968  -0.112  52.447  1.00  0.00    -0.015 A 
HETATM    3  C3  UNL     1      18.391  -1.229  53.038  1.00  0.00     0.149 A 
HETATM    4  N1  UNL     1      19.310  -1.740  53.910  1.00  0.00    -0.161 NA
HETATM    5  N2  UNL     1      20.395  -0.951  53.834  1.00  0.00    -0.135 N 
HETATM    6  C4  UNL     1      20.244   0.041  52.972  1.00  0.00     0.083 A 
HETATM    7  C5  UNL     1      20.931   1.196  52.406  1.00  0.00     0.183 C 
HETATM    8  N3  UNL     1      22.359   1.030  52.204  1.00  0.00    -0.387 N 
HETATM    9  C6  UNL     1      22.889   1.711  51.010  1.00  0.00     0.149 C 
HETATM   10  C7  UNL     1      23.438   0.375  52.850  1.00  0.00     0.114 C 
HETATM   11  C8  UNL     1      23.589  -0.489  53.814  1.00  0.00     0.074 C 
HETATM   12  N4  UNL     1      22.683  -1.152  54.646  1.00  0.00    -0.134 NA
HETATM   13  N5  UNL     1      21.436  -1.349  54.679  1.00  0.00    -0.043 NA
ENDROOT
BRANCH  11  14
HETATM   14  C9  UNL     1      25.021  -0.853  54.099  1.00  0.00     0.067 C 
BRANCH  14  15
HETATM   15  C10 UNL     1      25.973   0.127  53.450  1.00  0.00    -0.009 C 
HETATM   16  C11 UNL     1      26.802  -0.558  52.392  1.00  0.00     0.005 C 
HETATM   17  C12 UNL     1      27.831  -1.452  53.008  1.00  0.00     0.000 C 
HETATM   18  C13 UNL     1      28.875  -0.604  53.714  1.00  0.00     0.000 C 
HETATM   19  C14 UNL     1      28.340   0.772  54.013  1.00  0.00     0.000 C 
HETATM   20  C15 UNL     1      26.899   0.736  54.457  1.00  0.00     0.005 C 
ENDBRANCH  14  15
ENDBRANCH  11  14
TORSDOF 2
ENDMDL
MODEL 3
REMARK VINA RESULT:      -7.6      1.913      7.119
REMARK  2 active torsions:
REMARK  status: ('A' for Active; 'I' for Inactive)
REMARK    1  A    between atoms: C8_11  and  C9_12 
REMARK    2  A    between atoms: C9_12  and  C10_13 
ROOT
HETATM    1  C1  UNL     1      29.204   2.545  53.852  1.00  0.00     0.052 C 
HETATM    2  C2  UNL     1      28.423   1.308  53.841  1.00  0.00    -0.015 A 
HETATM    3  C3  UNL     1      29.007   0.202  54.446  1.00  0.00     0.149 A 
HETATM    4  N1  UNL     1      28.123  -0.832  54.325  1.00  0.00    -0.161 NA
HETATM    5  N2  UNL     1      27.052  -0.351  53.671  1.00  0.00    -0.135 N 
HETATM    6  C4  UNL     1      27.180   0.927  53.357  1.00  0.00     0.083 A 
HETATM    7  C5  UNL     1      26.489   2.032  52.700  1.00  0.00     0.183 C 
HETATM    8  N3  UNL     1      25.049   2.060  52.885  1.00  0.00    -0.387 N 
HETATM    9  C6  UNL     1      24.474   3.412  52.983  1.00  0.00     0.149 C 
HETATM   10  C7  UNL     1      23.992   1.124  53.004  1.00  0.00     0.114 C 
HETATM   11  C8  UNL     1      23.872  -0.166  53.155  1.00  0.00     0.074 C 
HETATM   12  N4  UNL     1      24.805  -1.200  53.267  1.00  0.00    -0.134 NA
HETATM   13  N5  UNL     1      26.047  -1.302  53.467  1.00  0.00    -0.043 NA
ENDROOT
BRANCH  11  14
HETATM   14  C9  UNL     1      22.448  -0.651  53.224  1.00  0.00     0.067 C 
BRANCH  14  15
HETATM   15  C10 UNL     1      21.480   0.442  52.827  1.00  0.00    -0.009 C 
HETATM   16  C11 UNL     1      20.299   0.472  53.765  1.00  0.00     0.005 C 
HETATM   17  C12 UNL     1      19.391  -0.692  53.527  1.00  0.00     0.000 C 
HETATM   18  C13 UNL     1      18.714  -0.532  52.177  1.00  0.00     0.000 C 
HETATM   19  C14 UNL     1      19.482   0.420  51.297  1.00  0.00     0.000 C 
HETATM   20  C15 UNL     1      20.973   0.239  51.433  1.00  0.00     0.005 C 
ENDBRANCH  14  15
ENDBRANCH  11  14
TORSDOF 2
ENDMDL
MODEL 4
REMARK VINA RESULT:      -7.5      1.876      3.195
REMARK  2 active torsions:
REMARK  status: ('A' for Active; 'I' for Inactive)
REMARK    1  A    between atoms: C8_11  and  C9_12 
REMARK    2  A    between atoms: C9_12  and  C10_13 
ROOT
HETATM    1  C1  UNL     1      17.629   0.034  50.370  1.00  0.00     0.052 C 
HETATM    2  C2  UNL     1      18.568  -0.015  51.490  1.00  0.00    -0.015 A 
HETATM    3  C3  UNL     1      18.219  -0.837  52.555  1.00  0.00     0.149 A 
HETATM    4  N1  UNL     1      19.218  -0.737  53.481  1.00  0.00    -0.161 NA
HETATM    5  N2  UNL     1      20.127   0.115  52.979  1.00  0.00    -0.135 N 
HETATM    6  C4  UNL     1      19.787   0.578  51.787  1.00  0.00     0.083 A 
HETATM    7  C5  UNL     1      20.235   1.465  50.719  1.00  0.00     0.183 C 
HETATM    8  N3  UNL     1      21.669   1.483  50.489  1.00  0.00    -0.387 N 
HETATM    9  C6  UNL     1      22.057   1.647  49.078  1.00  0.00     0.149 C 
HETATM   10  C7  UNL     1      22.853   1.385  51.262  1.00  0.00     0.114 C 
HETATM   11  C8  UNL     1      23.168   1.079  52.490  1.00  0.00     0.074 C 
HETATM   12  N4  UNL     1      22.407   0.704  53.600  1.00  0.00    -0.134 NA
HETATM   13  N5  UNL     1      21.224   0.324  53.821  1.00  0.00    -0.043 NA
ENDROOT
BRANCH  11  14
HETATM   14  C9  UNL     1      24.643   1.139  52.783  1.00  0.00     0.067 C 
BRANCH  14  15
HETATM   15  C10 UNL     1      25.201  -0.240  53.057  1.00  0.00    -0.009 C 
HETATM   16  C11 UNL     1      25.660  -0.352  54.490  1.00  0.00     0.005 C 
HETATM   17  C12 UNL     1      26.922   0.419  54.715  1.00  0.00     0.000 C 
HETATM   18  C13 UNL     1      28.062  -0.258  53.975  1.00  0.00     0.000 C 
HETATM   19  C14 UNL     1      27.540  -1.155  52.883  1.00  0.00     0.000 C 
HETATM   20  C15 UNL     1      26.362  -0.546  52.163  1.00  0.00     0.005 C 
ENDBRANCH  14  15
ENDBRANCH  11  14
TORSDOF 2
ENDMDL
MODEL 5
REMARK VINA RESULT:      -7.4      4.992      7.407
REMARK  2 active torsions:
REMARK  status: ('A' for Active; 'I' for Inactive)
REMARK    1  A    between atoms: C8_11  and  C9_12 
REMARK    2  A    between atoms: C9_12  and  C10_13 
ROOT
HETATM    1  C1  UNL     1      27.209   7.966  47.671  1.00  0.00     0.052 C 
HETATM    2  C2  UNL     1      27.258   6.609  48.214  1.00  0.00    -0.015 A 
HETATM    3  C3  UNL     1      28.471   5.941  48.103  1.00  0.00     0.149 A 
HETATM    4  N1  UNL     1      28.300   4.707  48.664  1.00  0.00    -0.161 NA
HETATM    5  N2  UNL     1      27.028   4.650  49.094  1.00  0.00    -0.135 N 
HETATM    6  C4  UNL     1      26.358   5.763  48.849  1.00  0.00     0.083 A 
HETATM    7  C5  UNL     1      25.048   6.385  49.010  1.00  0.00     0.183 C 
HETATM    8  N3  UNL     1      24.350   6.050  50.238  1.00  0.00    -0.387 N 
HETATM    9  C6  UNL     1      23.546   7.148  50.800  1.00  0.00     0.149 C 
HETATM   10  C7  UNL     1      24.213   4.925  51.090  1.00  0.00     0.114 C 
HETATM   11  C8  UNL     1      24.776   3.756  51.224  1.00  0.00     0.074 C 
HETATM   12  N4  UNL     1      25.805   3.113  50.533  1.00  0.00    -0.134 NA
HETATM   13  N5  UNL     1      26.697   3.434  49.699  1.00  0.00    -0.043 NA
ENDROOT
BRANCH  11  14
HETATM   14  C9  UNL     1      24.213   2.924  52.346  1.00  0.00     0.067 C 
BRANCH  14  15
HETATM   15  C10 UNL     1      24.145   1.463  51.960  1.00  0.00    -0.009 C 
HETATM   16  C11 UNL     1      22.716   1.040  51.728  1.00  0.00     0.005 C 
HETATM   17  C12 UNL     1      21.967   0.937  53.019  1.00  0.00     0.000 C 
HETATM   18  C13 UNL     1      22.507  -0.234  53.820  1.00  0.00     0.000 C 
HETATM   19  C14 UNL     1      23.888  -0.617  53.354  1.00  0.00     0.000 C 
HETATM   20  C15 UNL     1      24.731   0.591  53.026  1.00  0.00     0.005 C 
ENDBRANCH  14  15
ENDBRANCH  11  14
TORSDOF 2
ENDMDL
MODEL 6
REMARK VINA RESULT:      -7.4      5.354      7.145
REMARK  2 active torsions:
REMARK  status: ('A' for Active; 'I' for Inactive)
REMARK    1  A    between atoms: C8_11  and  C9_12 
REMARK    2  A    between atoms: C9_12  and  C10_13 
ROOT
HETATM    1  C1  UNL     1      26.753   8.724  47.808  1.00  0.00     0.052 C 
HETATM    2  C2  UNL     1      27.177   7.351  48.084  1.00  0.00    -0.015 A 
HETATM    3  C3  UNL     1      28.502   7.044  47.802  1.00  0.00     0.149 A 
HETATM    4  N1  UNL     1      28.684   5.729  48.128  1.00  0.00    -0.161 NA
HETATM    5  N2  UNL     1      27.506   5.277  48.588  1.00  0.00    -0.135 N 
HETATM    6  C4  UNL     1      26.566   6.209  48.583  1.00  0.00     0.083 A 
HETATM    7  C5  UNL     1      25.163   6.439  48.909  1.00  0.00     0.183 C 
HETATM    8  N3  UNL     1      24.675   5.731  50.079  1.00  0.00    -0.387 N 
HETATM    9  C6  UNL     1      23.678   6.474  50.868  1.00  0.00     0.149 C 
HETATM   10  C7  UNL     1      24.887   4.479  50.708  1.00  0.00     0.114 C 
HETATM   11  C8  UNL     1      25.726   3.487  50.598  1.00  0.00     0.074 C 
HETATM   12  N4  UNL     1      26.819   3.255  49.759  1.00  0.00    -0.134 NA
HETATM   13  N5  UNL     1      27.531   3.931  48.966  1.00  0.00    -0.043 NA
ENDROOT
BRANCH  11  14
HETATM   14  C9  UNL     1      25.479   2.358  51.564  1.00  0.00     0.067 C 
BRANCH  14  15
HETATM   15  C10 UNL     1      26.765   1.634  51.897  1.00  0.00    -0.009 C 
HETATM   16  C11 UNL     1      26.538   0.144  51.944  1.00  0.00     0.005 C 
HETATM   17  C12 UNL     1      25.770  -0.247  53.167  1.00  0.00     0.000 C 
HETATM   18  C13 UNL     1      26.637  -0.030  54.395  1.00  0.00     0.000 C 
HETATM   19  C14 UNL     1      27.758   0.933  54.101  1.00  0.00     0.000 C 
HETATM   20  C15 UNL     1      27.310   2.074  53.221  1.00  0.00     0.005 C 
ENDBRANCH  14  15
ENDBRANCH  11  14
TORSDOF 2
ENDMDL
MODEL 7
REMARK VINA RESULT:      -7.2      3.851      5.081
REMARK  2 active torsions:
REMARK  status: ('A' for Active; 'I' for Inactive)
REMARK    1  A    between atoms: C8_11  and  C9_12 
REMARK    2  A    between atoms: C9_12  and  C10_13 
ROOT
HETATM    1  C1  UNL     1      22.337  -0.892  55.008  1.00  0.00     0.052 C 
HETATM    2  C2  UNL     1      22.029  -0.335  53.691  1.00  0.00    -0.015 A 
HETATM    3  C3  UNL     1      20.699  -0.380  53.295  1.00  0.00     0.149 A 
HETATM    4  N1  UNL     1      20.632   0.183  52.053  1.00  0.00    -0.161 NA
HETATM    5  N2  UNL     1      21.883   0.550  51.727  1.00  0.00    -0.135 N 
HETATM    6  C4  UNL     1      22.760   0.263  52.674  1.00  0.00     0.083 A 
HETATM    7  C5  UNL     1      24.179   0.354  53.003  1.00  0.00     0.183 C 
HETATM    8  N3  UNL     1      24.850   1.550  52.527  1.00  0.00    -0.387 N 
HETATM    9  C6  UNL     1      25.896   2.061  53.429  1.00  0.00     0.149 C 
HETATM   10  C7  UNL     1      24.789   2.403  51.397  1.00  0.00     0.114 C 
HETATM   11  C8  UNL     1      23.999   2.576  50.374  1.00  0.00     0.074 C 
HETATM   12  N4  UNL     1      22.824   1.942  49.963  1.00  0.00    -0.134 NA
HETATM   13  N5  UNL     1      21.980   1.149  50.467  1.00  0.00    -0.043 NA
ENDROOT
BRANCH  11  14
HETATM   14  C9  UNL     1      24.429   3.676  49.439  1.00  0.00     0.067 C 
BRANCH  14  15
HETATM   15  C10 UNL     1      25.650   4.395  49.970  1.00  0.00    -0.009 C 
HETATM   16  C11 UNL     1      25.367   5.867  50.139  1.00  0.00     0.005 C 
HETATM   17  C12 UNL     1      25.291   6.558  48.815  1.00  0.00     0.000 C 
HETATM   18  C13 UNL     1      26.671   6.583  48.182  1.00  0.00     0.000 C 
HETATM   19  C14 UNL     1      27.561   5.527  48.785  1.00  0.00     0.000 C 
HETATM   20  C15 UNL     1      26.818   4.240  49.045  1.00  0.00     0.005 C 
ENDBRANCH  14  15
ENDBRANCH  11  14
TORSDOF 2
ENDMDL
MODEL 8
REMARK VINA RESULT:      -7.1      3.179      4.397
REMARK  2 active torsions:
REMARK  status: ('A' for Active; 'I' for Inactive)
REMARK    1  A    between atoms: C8_11  and  C9_12 
REMARK    2  A    between atoms: C9_12  and  C10_13 
ROOT
HETATM    1  C1  UNL     1      22.004   4.142  47.050  1.00  0.00     0.052 C 
HETATM    2  C2  UNL     1      22.307   3.248  48.167  1.00  0.00    -0.015 A 
HETATM    3  C3  UNL     1      21.554   2.083  48.249  1.00  0.00     0.149 A 
HETATM    4  N1  UNL     1      21.992   1.402  49.349  1.00  0.00    -0.161 NA
HETATM    5  N2  UNL     1      22.972   2.140  49.897  1.00  0.00    -0.135 N 
HETATM    6  C4  UNL     1      23.201   3.258  49.229  1.00  0.00     0.083 A 
HETATM    7  C5  UNL     1      24.039   4.452  49.224  1.00  0.00     0.183 C 
HETATM    8  N3  UNL     1      25.407   4.251  49.665  1.00  0.00    -0.387 N 
HETATM    9  C6  UNL     1      26.401   5.080  48.963  1.00  0.00     0.149 C 
HETATM   10  C7  UNL     1      26.093   3.455  50.616  1.00  0.00     0.114 C 
HETATM   11  C8  UNL     1      25.814   2.447  51.395  1.00  0.00     0.074 C 
HETATM   12  N4  UNL     1      24.648   1.708  51.611  1.00  0.00    -0.134 NA
HETATM   13  N5  UNL     1      23.527   1.568  51.046  1.00  0.00    -0.043 NA
ENDROOT
BRANCH  11  14
HETATM   14  C9  UNL     1      26.971   1.975  52.235  1.00  0.00     0.067 C 
BRANCH  14  15
HETATM   15  C10 UNL     1      26.620   0.709  52.984  1.00  0.00    -0.009 C 
HETATM   16  C11 UNL     1      27.387   0.630  54.281  1.00  0.00     0.005 C 
HETATM   17  C12 UNL     1      28.830   0.321  54.037  1.00  0.00     0.000 C 
HETATM   18  C13 UNL     1      28.959  -1.100  53.518  1.00  0.00     0.000 C 
HETATM   19  C14 UNL     1      27.652  -1.587  52.947  1.00  0.00     0.000 C 
HETATM   20  C15 UNL     1      26.935  -0.509  52.172  1.00  0.00     0.005 C 
ENDBRANCH  14  15
ENDBRANCH  11  14
TORSDOF 2
ENDMDL
MODEL 9
REMARK VINA RESULT:      -7.1      1.918      3.039
REMARK  2 active torsions:
REMARK  status: ('A' for Active; 'I' for Inactive)
REMARK    1  A    between atoms: C8_11  and  C9_12 
REMARK    2  A    between atoms: C9_12  and  C10_13 
ROOT
HETATM    1  C1  UNL     1      20.355   2.185  49.255  1.00  0.00     0.052 C 
HETATM    2  C2  UNL     1      21.075   1.584  50.377  1.00  0.00    -0.015 A 
HETATM    3  C3  UNL     1      20.520   0.435  50.926  1.00  0.00     0.149 A 
HETATM    4  N1  UNL     1      21.339   0.043  51.946  1.00  0.00    -0.161 NA
HETATM    5  N2  UNL     1      22.345   0.932  51.998  1.00  0.00    -0.135 N 
HETATM    6  C4  UNL     1      22.237   1.877  51.079  1.00  0.00     0.083 A 
HETATM    7  C5  UNL     1      22.893   3.076  50.570  1.00  0.00     0.183 C 
HETATM    8  N3  UNL     1      24.344   3.045  50.590  1.00  0.00    -0.387 N 
HETATM    9  C6  UNL     1      24.984   3.737  49.459  1.00  0.00     0.149 C 
HETATM   10  C7  UNL     1      25.367   2.519  51.418  1.00  0.00     0.114 C 
HETATM   11  C8  UNL     1      25.448   1.703  52.432  1.00  0.00     0.074 C 
HETATM   12  N4  UNL     1      24.491   0.980  53.148  1.00  0.00    -0.134 NA
HETATM   13  N5  UNL     1      23.278   0.663  53.005  1.00  0.00    -0.043 NA
ENDROOT
BRANCH  11  14
HETATM   14  C9  UNL     1      26.849   1.490  52.943  1.00  0.00     0.067 C 
BRANCH  14  15
HETATM   15  C10 UNL     1      26.983   0.142  53.617  1.00  0.00    -0.009 C 
HETATM   16  C11 UNL     1      28.003   0.203  54.727  1.00  0.00     0.005 C 
HETATM   17  C12 UNL     1      29.392   0.289  54.179  1.00  0.00     0.000 C 
HETATM   18  C13 UNL     1      29.749  -1.025  53.508  1.00  0.00     0.000 C 
HETATM   19  C14 UNL     1      28.509  -1.806  53.154  1.00  0.00     0.000 C 
HETATM   20  C15 UNL     1      27.405  -0.914  52.643  1.00  0.00     0.005 C 
ENDBRANCH  14  15
ENDBRANCH  11  14
TORSDOF 2
ENDMDL
