MODEL 1
REMARK VINA RESULT:      -7.6      0.000      0.000
REMARK  5 active torsions:
REMARK  status: ('A' for Active; 'I' for Inactive)
REMARK    1  A    between atoms: O1_2  and  C2_3 
REMARK    2  A    between atoms: C3_5  and  C4_6 
REMARK    3  A    between atoms: C4_6  and  C5_7 
REMARK    4  A    between atoms: C5_7  and  N2_8 
REMARK    5  A    between atoms: N2_8  and  O2_10 
ROOT
HETATM    1  C2  UNL     1      23.463   4.300  50.084  1.00  0.00     0.267 C 
HETATM    2  N1  UNL     1      22.138   4.067  49.644  1.00  0.00    -0.382 N 
HETATM    3  C3  UNL     1      21.657   2.753  49.385  1.00  0.00     0.130 C 
HETATM    4  C8  UNL     1      21.656   1.873  50.549  1.00  0.00     0.035 A 
HETATM    5  C9  UNL     1      21.426   0.568  50.717  1.00  0.00     0.032 A 
HETATM    6  C10 UNL     1      21.682   0.547  52.010  1.00  0.00    -0.049 A 
HETATM    7  C11 UNL     1      22.046   1.471  52.932  1.00  0.00     0.169 A 
HETATM    8  C12 UNL     1      22.272   2.785  52.694  1.00  0.00     0.042 C 
HETATM    9  N3  UNL     1      21.960   2.322  51.606  1.00  0.00    -0.335 N 
HETATM   10  C13 UNL     1      22.529   4.257  52.446  1.00  0.00     0.057 C 
HETATM   11  C14 UNL     1      23.614   4.090  51.584  1.00  0.00     0.056 C 
HETATM   12  N4  UNL     1      24.937   3.586  51.944  1.00  0.00    -0.385 N 
HETATM   13  C15 UNL     1      25.044   2.926  53.207  1.00  0.00     0.171 C 
HETATM   14  C16 UNL     1      26.111   1.893  53.190  1.00  0.00     0.057 C 
HETATM   15  C17 UNL     1      27.497   2.195  53.112  1.00  0.00     0.098 C 
HETATM   16  N5  UNL     1      28.650   2.448  53.036  1.00  0.00    -0.192 NA
HETATM   17  C18 UNL     1      25.965   0.554  53.243  1.00  0.00     0.026 C 
HETATM   18 BR1  UNL     1      27.304  -0.842  53.236  1.00  0.00    -0.050 Br
HETATM   19  C19 UNL     1      24.971  -0.601  53.189  1.00  0.00     0.021 C 
HETATM   20  C20 UNL     1      23.585  -0.555  53.026  1.00  0.00     0.004 C 
HETATM   21  C21 UNL     1      22.023  -0.641  52.847  1.00  0.00     0.041 C 
HETATM   22  H5  UNL     1      21.425   4.685  50.101  1.00  0.00     0.156 HD
HETATM   23  H20 UNL     1      25.601   3.793  51.204  1.00  0.00     0.159 HD
ENDROOT
BRANCH   1  24
HETATM   24  O1  UNL     1      23.762   5.627  49.819  1.00  0.00    -0.366 OA
HETATM   25  C1  UNL     1      24.905   5.817  49.068  1.00  0.00     0.204 C 
ENDBRANCH   1  24
BRANCH   3  26
HETATM   26  C4  UNL     1      22.141   2.169  48.090  1.00  0.00     0.048 C 
BRANCH  26  27
HETATM   27  C5  UNL     1      21.264   2.837  47.009  1.00  0.00     0.122 C 
BRANCH  27  28
HETATM   28  N2  UNL     1      21.956   3.933  46.391  1.00  0.00    -0.202 NA
HETATM   29  C6  UNL     1      21.619   4.019  44.984  1.00  0.00     0.143 C 
BRANCH  28  30
HETATM   30  O2  UNL     1      21.621   5.131  46.948  1.00  0.00    -0.309 OA
HETATM   31  C7  UNL     1      22.361   6.151  46.399  1.00  0.00     0.229 C 
ENDBRANCH  28  30
ENDBRANCH  27  28
ENDBRANCH  26  27
ENDBRANCH   3  26
TORSDOF 5
ENDMDL
MODEL 2
REMARK VINA RESULT:      -6.7      3.261      7.166
REMARK  5 active torsions:
REMARK  status: ('A' for Active; 'I' for Inactive)
REMARK    1  A    between atoms: O1_2  and  C2_3 
REMARK    2  A    between atoms: C3_5  and  C4_6 
REMARK    3  A    between atoms: C4_6  and  C5_7 
REMARK    4  A    between atoms: C5_7  and  N2_8 
REMARK    5  A    between atoms: N2_8  and  O2_10 
ROOT
HETATM    1  C2  UNL     1      23.168   1.966  52.304  1.00  0.00     0.267 C 
HETATM    2  N1  UNL     1      24.490   2.221  52.743  1.00  0.00    -0.382 N 
HETATM    3  C3  UNL     1      25.536   2.519  51.827  1.00  0.00     0.130 C 
HETATM    4  C8  UNL     1      25.328   3.738  51.052  1.00  0.00     0.035 A 
HETATM    5  C9  UNL     1      25.967   4.295  50.020  1.00  0.00     0.032 A 
HETATM    6  C10 UNL     1      25.137   5.309  49.872  1.00  0.00    -0.049 A 
HETATM    7  C11 UNL     1      24.012   5.729  50.501  1.00  0.00     0.169 A 
HETATM    8  C12 UNL     1      23.407   5.111  51.543  1.00  0.00     0.042 C 
HETATM    9  N3  UNL     1      24.381   4.414  51.294  1.00  0.00    -0.335 N 
HETATM   10  C13 UNL     1      22.717   4.433  52.709  1.00  0.00     0.057 C 
HETATM   11  C14 UNL     1      22.395   3.250  52.041  1.00  0.00     0.056 C 
HETATM   12  N4  UNL     1      21.424   3.102  50.959  1.00  0.00    -0.385 N 
HETATM   13  C15 UNL     1      20.991   4.308  50.325  1.00  0.00     0.171 C 
HETATM   14  C16 UNL     1      20.626   4.071  48.904  1.00  0.00     0.057 C 
HETATM   15  C17 UNL     1      19.488   3.324  48.499  1.00  0.00     0.098 C 
HETATM   16  N5  UNL     1      18.546   2.692  48.164  1.00  0.00    -0.192 NA
HETATM   17  C18 UNL     1      21.274   4.499  47.802  1.00  0.00     0.026 C 
HETATM   18 BR1  UNL     1      20.850   4.239  45.934  1.00  0.00    -0.050 Br
HETATM   19  C19 UNL     1      22.541   5.163  47.272  1.00  0.00     0.021 C 
HETATM   20  C20 UNL     1      23.652   5.618  47.984  1.00  0.00     0.004 C 
HETATM   21  C21 UNL     1      24.962   6.167  48.665  1.00  0.00     0.041 C 
HETATM   22  H5  UNL     1      24.542   2.782  53.627  1.00  0.00     0.156 HD
HETATM   23  H20 UNL     1      21.203   2.121  50.823  1.00  0.00     0.159 HD
ENDROOT
BRANCH   1  24
HETATM   24  O1  UNL     1      22.515   1.289  53.323  1.00  0.00    -0.366 OA
HETATM   25  C1  UNL     1      22.482  -0.082  53.169  1.00  0.00     0.204 C 
ENDBRANCH   1  24
BRANCH   3  26
HETATM   26  C4  UNL     1      26.061   1.324  51.087  1.00  0.00     0.048 C 
BRANCH  26  27
HETATM   27  C5  UNL     1      26.881   0.544  52.137  1.00  0.00     0.122 C 
BRANCH  27  28
HETATM   28  N2  UNL     1      26.106  -0.521  52.708  1.00  0.00    -0.202 NA
HETATM   29  C6  UNL     1      26.813  -1.781  52.595  1.00  0.00     0.143 C 
BRANCH  28  30
HETATM   30  O2  UNL     1      25.865  -0.325  54.035  1.00  0.00    -0.309 OA
HETATM   31  C7  UNL     1      26.927   0.304  54.639  1.00  0.00     0.229 C 
ENDBRANCH  28  30
ENDBRANCH  27  28
ENDBRANCH  26  27
ENDBRANCH   3  26
TORSDOF 5
ENDMDL
MODEL 3
REMARK VINA RESULT:      -6.7      1.988      2.844
REMARK  5 active torsions:
REMARK  status: ('A' for Active; 'I' for Inactive)
REMARK    1  A    between atoms: O1_2  and  C2_3 
REMARK    2  A    between atoms: C3_5  and  C4_6 
REMARK    3  A    between atoms: C4_6  and  C5_7 
REMARK    4  A    between atoms: C5_7  and  N2_8 
REMARK    5  A    between atoms: N2_8  and  O2_10 
ROOT
HETATM    1  C2  UNL     1      24.579   4.706  49.360  1.00  0.00     0.267 C 
HETATM    2  N1  UNL     1      23.590   5.414  48.634  1.00  0.00    -0.382 N 
HETATM    3  C3  UNL     1      22.328   4.834  48.331  1.00  0.00     0.130 C 
HETATM    4  C8  UNL     1      21.529   4.486  49.502  1.00  0.00     0.035 A 
HETATM    5  C9  UNL     1      20.385   3.818  49.672  1.00  0.00     0.032 A 
HETATM    6  C10 UNL     1      20.379   3.884  50.989  1.00  0.00    -0.049 A 
HETATM    7  C11 UNL     1      21.195   4.424  51.927  1.00  0.00     0.169 A 
HETATM    8  C12 UNL     1      22.352   5.087  51.688  1.00  0.00     0.042 C 
HETATM    9  N3  UNL     1      21.934   4.782  50.579  1.00  0.00    -0.335 N 
HETATM   10  C13 UNL     1      23.647   5.830  51.438  1.00  0.00     0.057 C 
HETATM   11  C14 UNL     1      24.339   4.764  50.861  1.00  0.00     0.056 C 
HETATM   12  N4  UNL     1      24.787   3.551  51.542  1.00  0.00    -0.385 N 
HETATM   13  C15 UNL     1      24.210   3.293  52.825  1.00  0.00     0.171 C 
HETATM   14  C16 UNL     1      24.141   1.835  53.104  1.00  0.00     0.057 C 
HETATM   15  C17 UNL     1      25.283   1.024  53.336  1.00  0.00     0.098 C 
HETATM   16  N5  UNL     1      26.237   0.348  53.519  1.00  0.00    -0.192 NA
HETATM   17  C18 UNL     1      23.040   1.061  53.183  1.00  0.00     0.026 C 
HETATM   18 BR1  UNL     1      22.878  -0.830  53.552  1.00  0.00    -0.050 Br
HETATM   19  C19 UNL     1      21.534   0.996  52.952  1.00  0.00     0.021 C 
HETATM   20  C20 UNL     1      20.681   1.991  52.469  1.00  0.00     0.004 C 
HETATM   21  C21 UNL     1      19.615   3.020  51.935  1.00  0.00     0.041 C 
HETATM   22  H5  UNL     1      23.529   6.431  48.884  1.00  0.00     0.156 HD
HETATM   23  H20 UNL     1      25.466   3.061  50.968  1.00  0.00     0.159 HD
ENDROOT
BRANCH   1  24
HETATM   24  O1  UNL     1      25.797   5.319  49.110  1.00  0.00    -0.366 OA
HETATM   25  C1  UNL     1      26.872   4.455  49.056  1.00  0.00     0.204 C 
ENDBRANCH   1  24
BRANCH   3  26
HETATM   26  C4  UNL     1      22.367   3.834  47.213  1.00  0.00     0.048 C 
BRANCH  26  27
HETATM   27  C5  UNL     1      21.952   4.635  45.960  1.00  0.00     0.122 C 
BRANCH  27  28
HETATM   28  N2  UNL     1      20.869   3.990  45.273  1.00  0.00    -0.202 NA
HETATM   29  C6  UNL     1      19.759   4.905  45.100  1.00  0.00     0.143 C 
BRANCH  28  30
HETATM   30  O2  UNL     1      21.228   3.570  44.026  1.00  0.00    -0.309 OA
HETATM   31  C7  UNL     1      20.255   3.880  43.106  1.00  0.00     0.229 C 
ENDBRANCH  28  30
ENDBRANCH  27  28
ENDBRANCH  26  27
ENDBRANCH   3  26
TORSDOF 5
ENDMDL
MODEL 4
REMARK VINA RESULT:      -6.6      8.347     11.004
REMARK  5 active torsions:
REMARK  status: ('A' for Active; 'I' for Inactive)
REMARK    1  A    between atoms: O1_2  and  C2_3 
REMARK    2  A    between atoms: C3_5  and  C4_6 
REMARK    3  A    between atoms: C4_6  and  C5_7 
REMARK    4  A    between atoms: C5_7  and  N2_8 
REMARK    5  A    between atoms: N2_8  and  O2_10 
ROOT
HETATM    1  C2  UNL     1      31.199   9.312  47.646  1.00  0.00     0.267 C 
HETATM    2  N1  UNL     1      30.441   8.733  48.692  1.00  0.00    -0.382 N 
HETATM    3  C3  UNL     1      29.740   7.507  48.516  1.00  0.00     0.130 C 
HETATM    4  C8  UNL     1      30.595   6.364  48.210  1.00  0.00     0.035 A 
HETATM    5  C9  UNL     1      30.352   5.103  47.846  1.00  0.00     0.032 A 
HETATM    6  C10 UNL     1      31.615   4.752  47.703  1.00  0.00    -0.049 A 
HETATM    7  C11 UNL     1      32.808   5.377  47.858  1.00  0.00     0.169 A 
HETATM    8  C12 UNL     1      32.987   6.668  48.225  1.00  0.00     0.042 C 
HETATM    9  N3  UNL     1      31.774   6.514  48.217  1.00  0.00    -0.335 N 
HETATM   10  C13 UNL     1      33.206   8.110  48.634  1.00  0.00     0.057 C 
HETATM   11  C14 UNL     1      32.582   8.689  47.528  1.00  0.00     0.056 C 
HETATM   12  N4  UNL     1      33.065   8.667  46.149  1.00  0.00    -0.385 N 
HETATM   13  C15 UNL     1      34.096   7.721  45.853  1.00  0.00     0.171 C 
HETATM   14  C16 UNL     1      34.027   7.271  44.438  1.00  0.00     0.057 C 
HETATM   15  C17 UNL     1      34.329   8.107  43.331  1.00  0.00     0.098 C 
HETATM   16  N5  UNL     1      34.571   8.809  42.410  1.00  0.00    -0.192 NA
HETATM   17  C18 UNL     1      33.684   6.052  43.976  1.00  0.00     0.026 C 
HETATM   18 BR1  UNL     1      33.585   5.397  42.159  1.00  0.00    -0.050 Br
HETATM   19  C19 UNL     1      33.109   4.688  44.344  1.00  0.00     0.021 C 
HETATM   20  C20 UNL     1      32.675   4.230  45.590  1.00  0.00     0.004 C 
HETATM   21  C21 UNL     1      32.152   3.594  46.932  1.00  0.00     0.041 C 
HETATM   22  H5  UNL     1      30.886   8.823  49.638  1.00  0.00     0.156 HD
HETATM   23  H20 UNL     1      32.567   9.356  45.595  1.00  0.00     0.159 HD
ENDROOT
BRANCH   1  24
HETATM   24  O1  UNL     1      31.372  10.653  47.951  1.00  0.00    -0.366 OA
HETATM   25  C1  UNL     1      30.661  11.086  49.053  1.00  0.00     0.204 C 
ENDBRANCH   1  24
BRANCH   3  26
HETATM   26  C4  UNL     1      28.470   7.637  47.729  1.00  0.00     0.048 C 
BRANCH  26  27
HETATM   27  C5  UNL     1      27.391   7.969  48.782  1.00  0.00     0.122 C 
BRANCH  27  28
HETATM   28  N2  UNL     1      27.439   9.356  49.148  1.00  0.00    -0.202 NA
HETATM   29  C6  UNL     1      27.151  10.194  48.002  1.00  0.00     0.143 C 
BRANCH  28  30
HETATM   30  O2  UNL     1      26.517   9.668  50.103  1.00  0.00    -0.309 OA
HETATM   31  C7  UNL     1      25.430   8.831  50.025  1.00  0.00     0.229 C 
ENDBRANCH  28  30
ENDBRANCH  27  28
ENDBRANCH  26  27
ENDBRANCH   3  26
TORSDOF 5
ENDMDL
MODEL 5
REMARK VINA RESULT:      -6.6      8.641     11.365
REMARK  5 active torsions:
REMARK  status: ('A' for Active; 'I' for Inactive)
REMARK    1  A    between atoms: O1_2  and  C2_3 
REMARK    2  A    between atoms: C3_5  and  C4_6 
REMARK    3  A    between atoms: C4_6  and  C5_7 
REMARK    4  A    between atoms: C5_7  and  N2_8 
REMARK    5  A    between atoms: N2_8  and  O2_10 
ROOT
HETATM    1  C2  UNL     1      31.148   8.199  47.641  1.00  0.00     0.267 C 
HETATM    2  N1  UNL     1      30.838   7.374  48.749  1.00  0.00    -0.382 N 
HETATM    3  C3  UNL     1      30.733   5.961  48.620  1.00  0.00     0.130 C 
HETATM    4  C8  UNL     1      31.965   5.302  48.198  1.00  0.00     0.035 A 
HETATM    5  C9  UNL     1      32.262   4.053  47.832  1.00  0.00     0.032 A 
HETATM    6  C10 UNL     1      33.528   4.288  47.546  1.00  0.00    -0.049 A 
HETATM    7  C11 UNL     1      34.334   5.377  47.587  1.00  0.00     0.169 A 
HETATM    8  C12 UNL     1      33.967   6.625  47.962  1.00  0.00     0.042 C 
HETATM    9  N3  UNL     1      32.951   5.954  48.082  1.00  0.00    -0.335 N 
HETATM   10  C13 UNL     1      33.573   8.027  48.379  1.00  0.00     0.057 C 
HETATM   11  C14 UNL     1      32.643   8.244  47.361  1.00  0.00     0.056 C 
HETATM   12  N4  UNL     1      32.937   8.400  45.938  1.00  0.00    -0.385 N 
HETATM   13  C15 UNL     1      34.240   7.996  45.511  1.00  0.00     0.171 C 
HETATM   14  C16 UNL     1      34.226   7.524  44.102  1.00  0.00     0.057 C 
HETATM   15  C17 UNL     1      34.009   8.379  42.988  1.00  0.00     0.098 C 
HETATM   16  N5  UNL     1      33.819   9.091  42.063  1.00  0.00    -0.192 NA
HETATM   17  C18 UNL     1      34.405   6.266  43.650  1.00  0.00     0.026 C 
HETATM   18 BR1  UNL     1      34.410   5.588  41.840  1.00  0.00    -0.050 Br
HETATM   19  C19 UNL     1      34.531   4.799  44.045  1.00  0.00     0.021 C 
HETATM   20  C20 UNL     1      34.478   4.230  45.319  1.00  0.00     0.004 C 
HETATM   21  C21 UNL     1      34.433   3.464  46.695  1.00  0.00     0.041 C 
HETATM   22  H5  UNL     1      31.297   7.675  49.643  1.00  0.00     0.156 HD
HETATM   23  H20 UNL     1      32.131   8.786  45.457  1.00  0.00     0.159 HD
ENDROOT
BRANCH   1  24
HETATM   24  O1  UNL     1      30.746   9.488  47.958  1.00  0.00    -0.366 OA
HETATM   25  C1  UNL     1      30.403   9.671  49.282  1.00  0.00     0.204 C 
ENDBRANCH   1  24
BRANCH   3  26
HETATM   26  C4  UNL     1      29.459   5.499  47.978  1.00  0.00     0.048 C 
BRANCH  26  27
HETATM   27  C5  UNL     1      28.415   6.569  48.366  1.00  0.00     0.122 C 
BRANCH  27  28
HETATM   28  N2  UNL     1      27.254   5.964  48.956  1.00  0.00    -0.202 NA
HETATM   29  C6  UNL     1      26.048   6.619  48.492  1.00  0.00     0.143 C 
BRANCH  28  30
HETATM   30  O2  UNL     1      27.137   4.647  48.625  1.00  0.00    -0.309 OA
HETATM   31  C7  UNL     1      26.402   3.968  49.567  1.00  0.00     0.229 C 
ENDBRANCH  28  30
ENDBRANCH  27  28
ENDBRANCH  26  27
ENDBRANCH   3  26
TORSDOF 5
ENDMDL
MODEL 6
REMARK VINA RESULT:      -6.6      3.223      6.521
REMARK  5 active torsions:
REMARK  status: ('A' for Active; 'I' for Inactive)
REMARK    1  A    between atoms: O1_2  and  C2_3 
REMARK    2  A    between atoms: C3_5  and  C4_6 
REMARK    3  A    between atoms: C4_6  and  C5_7 
REMARK    4  A    between atoms: C5_7  and  N2_8 
REMARK    5  A    between atoms: N2_8  and  O2_10 
ROOT
HETATM    1  C2  UNL     1      23.952   3.930  49.914  1.00  0.00     0.267 C 
HETATM    2  N1  UNL     1      24.742   2.894  50.469  1.00  0.00    -0.382 N 
HETATM    3  C3  UNL     1      24.329   2.180  51.628  1.00  0.00     0.130 C 
HETATM    4  C8  UNL     1      23.084   1.437  51.465  1.00  0.00     0.035 A 
HETATM    5  C9  UNL     1      22.292   0.769  52.307  1.00  0.00     0.032 A 
HETATM    6  C10 UNL     1      21.369   0.460  51.417  1.00  0.00    -0.049 A 
HETATM    7  C11 UNL     1      21.200   0.687  50.092  1.00  0.00     0.169 A 
HETATM    8  C12 UNL     1      22.042   1.383  49.290  1.00  0.00     0.042 C 
HETATM    9  N3  UNL     1      22.570   1.410  50.393  1.00  0.00    -0.335 N 
HETATM   10  C13 UNL     1      22.971   2.158  48.381  1.00  0.00     0.057 C 
HETATM   11  C14 UNL     1      22.841   3.389  49.025  1.00  0.00     0.056 C 
HETATM   12  N4  UNL     1      21.646   4.229  49.058  1.00  0.00    -0.385 N 
HETATM   13  C15 UNL     1      20.422   3.606  48.660  1.00  0.00     0.171 C 
HETATM   14  C16 UNL     1      19.256   4.214  49.352  1.00  0.00     0.057 C 
HETATM   15  C17 UNL     1      18.791   5.532  49.100  1.00  0.00     0.098 C 
HETATM   16  N5  UNL     1      18.412   6.634  48.896  1.00  0.00    -0.192 NA
HETATM   17  C18 UNL     1      18.470   3.653  50.294  1.00  0.00     0.026 C 
HETATM   18 BR1  UNL     1      16.937   4.379  51.223  1.00  0.00    -0.050 Br
HETATM   19  C19 UNL     1      18.291   2.463  51.229  1.00  0.00     0.021 C 
HETATM   20  C20 UNL     1      19.116   1.349  51.395  1.00  0.00     0.004 C 
HETATM   21  C21 UNL     1      19.959   0.050  51.679  1.00  0.00     0.041 C 
HETATM   22  H5  UNL     1      25.208   2.286  49.753  1.00  0.00     0.156 HD
HETATM   23  H20 UNL     1      21.886   5.162  49.375  1.00  0.00     0.159 HD
ENDROOT
BRANCH   1  24
HETATM   24  O1  UNL     1      24.781   4.704  49.118  1.00  0.00    -0.366 OA
HETATM   25  C1  UNL     1      26.118   4.647  49.457  1.00  0.00     0.204 C 
ENDBRANCH   1  24
BRANCH   3  26
HETATM   26  C4  UNL     1      24.506   2.939  52.910  1.00  0.00     0.048 C 
BRANCH  26  27
HETATM   27  C5  UNL     1      25.548   2.124  53.706  1.00  0.00     0.122 C 
BRANCH  27  28
HETATM   28  N2  UNL     1      26.528   1.547  52.829  1.00  0.00    -0.202 NA
HETATM   29  C6  UNL     1      27.811   2.197  53.005  1.00  0.00     0.143 C 
BRANCH  28  30
HETATM   30  O2  UNL     1      26.723   0.221  53.079  1.00  0.00    -0.309 OA
HETATM   31  C7  UNL     1      26.075  -0.161  54.228  1.00  0.00     0.229 C 
ENDBRANCH  28  30
ENDBRANCH  27  28
ENDBRANCH  26  27
ENDBRANCH   3  26
TORSDOF 5
ENDMDL
MODEL 7
REMARK VINA RESULT:      -6.4      2.886      5.192
REMARK  5 active torsions:
REMARK  status: ('A' for Active; 'I' for Inactive)
REMARK    1  A    between atoms: O1_2  and  C2_3 
REMARK    2  A    between atoms: C3_5  and  C4_6 
REMARK    3  A    between atoms: C4_6  and  C5_7 
REMARK    4  A    between atoms: C5_7  and  N2_8 
REMARK    5  A    between atoms: N2_8  and  O2_10 
ROOT
HETATM    1  C2  UNL     1      20.248   4.510  49.071  1.00  0.00     0.267 C 
HETATM    2  N1  UNL     1      21.214   5.509  48.800  1.00  0.00    -0.382 N 
HETATM    3  C3  UNL     1      22.144   5.935  49.788  1.00  0.00     0.130 C 
HETATM    4  C8  UNL     1      23.045   4.887  50.258  1.00  0.00     0.035 A 
HETATM    5  C9  UNL     1      23.945   4.818  51.241  1.00  0.00     0.032 A 
HETATM    6  C10 UNL     1      24.265   3.553  51.050  1.00  0.00    -0.049 A 
HETATM    7  C11 UNL     1      23.879   2.586  50.182  1.00  0.00     0.169 A 
HETATM    8  C12 UNL     1      22.950   2.719  49.206  1.00  0.00     0.042 C 
HETATM    9  N3  UNL     1      22.998   3.818  49.739  1.00  0.00    -0.335 N 
HETATM   10  C13 UNL     1      21.913   2.849  48.110  1.00  0.00     0.057 C 
HETATM   11  C14 UNL     1      20.825   3.107  48.945  1.00  0.00     0.056 C 
HETATM   12  N4  UNL     1      20.200   2.165  49.871  1.00  0.00    -0.385 N 
HETATM   13  C15 UNL     1      20.945   0.983  50.173  1.00  0.00     0.171 C 
HETATM   14  C16 UNL     1      20.638   0.483  51.538  1.00  0.00     0.057 C 
HETATM   15  C17 UNL     1      19.388  -0.084  51.905  1.00  0.00     0.098 C 
HETATM   16  N5  UNL     1      18.343  -0.545  52.211  1.00  0.00    -0.192 NA
HETATM   17  C18 UNL     1      21.447   0.477  52.617  1.00  0.00     0.026 C 
HETATM   18 BR1  UNL     1      21.117  -0.165  54.411  1.00  0.00    -0.050 Br
HETATM   19  C19 UNL     1      22.773   0.963  53.191  1.00  0.00     0.021 C 
HETATM   20  C20 UNL     1      23.753   1.750  52.583  1.00  0.00     0.004 C 
HETATM   21  C21 UNL     1      24.929   2.631  52.016  1.00  0.00     0.041 C 
HETATM   22  H5  UNL     1      21.630   5.447  47.839  1.00  0.00     0.156 HD
HETATM   23  H20 UNL     1      19.296   2.517  50.167  1.00  0.00     0.159 HD
ENDROOT
BRANCH   1  24
HETATM   24  O1  UNL     1      19.245   4.633  48.122  1.00  0.00    -0.366 OA
HETATM   25  C1  UNL     1      18.040   5.089  48.619  1.00  0.00     0.204 C 
ENDBRANCH   1  24
BRANCH   3  26
HETATM   26  C4  UNL     1      21.560   6.846  50.826  1.00  0.00     0.048 C 
BRANCH  26  27
HETATM   27  C5  UNL     1      21.258   8.158  50.070  1.00  0.00     0.122 C 
BRANCH  27  28
HETATM   28  N2  UNL     1      19.887   8.203  49.646  1.00  0.00    -0.202 NA
HETATM   29  C6  UNL     1      19.261   9.436  50.079  1.00  0.00     0.143 C 
BRANCH  28  30
HETATM   30  O2  UNL     1      19.767   8.158  48.289  1.00  0.00    -0.309 OA
HETATM   31  C7  UNL     1      20.699   8.971  47.688  1.00  0.00     0.229 C 
ENDBRANCH  28  30
ENDBRANCH  27  28
ENDBRANCH  26  27
ENDBRANCH   3  26
TORSDOF 5
ENDMDL
MODEL 8
REMARK VINA RESULT:      -6.3      7.608     11.537
REMARK  5 active torsions:
REMARK  status: ('A' for Active; 'I' for Inactive)
REMARK    1  A    between atoms: O1_2  and  C2_3 
REMARK    2  A    between atoms: C3_5  and  C4_6 
REMARK    3  A    between atoms: C4_6  and  C5_7 
REMARK    4  A    between atoms: C5_7  and  N2_8 
REMARK    5  A    between atoms: N2_8  and  O2_10 
ROOT
HETATM    1  C2  UNL     1      28.219   6.873  48.166  1.00  0.00     0.267 C 
HETATM    2  N1  UNL     1      29.324   6.474  48.957  1.00  0.00    -0.382 N 
HETATM    3  C3  UNL     1      30.658   6.817  48.602  1.00  0.00     0.130 C 
HETATM    4  C8  UNL     1      30.922   8.252  48.571  1.00  0.00     0.035 A 
HETATM    5  C9  UNL     1      31.960   8.990  48.168  1.00  0.00     0.032 A 
HETATM    6  C10 UNL     1      31.398  10.160  48.400  1.00  0.00    -0.049 A 
HETATM    7  C11 UNL     1      30.201  10.571  48.884  1.00  0.00     0.169 A 
HETATM    8  C12 UNL     1      29.181   9.767  49.271  1.00  0.00     0.042 C 
HETATM    9  N3  UNL     1      30.064   8.999  48.916  1.00  0.00    -0.335 N 
HETATM   10  C13 UNL     1      28.032   8.883  49.707  1.00  0.00     0.057 C 
HETATM   11  C14 UNL     1      27.791   8.303  48.461  1.00  0.00     0.056 C 
HETATM   12  N4  UNL     1      27.253   8.975  47.280  1.00  0.00    -0.385 N 
HETATM   13  C15 UNL     1      27.258  10.405  47.306  1.00  0.00     0.171 C 
HETATM   14  C16 UNL     1      27.385  10.971  45.938  1.00  0.00     0.057 C 
HETATM   15  C17 UNL     1      26.364  10.886  44.954  1.00  0.00     0.098 C 
HETATM   16  N5  UNL     1      25.517  10.806  44.133  1.00  0.00    -0.192 NA
HETATM   17  C18 UNL     1      28.437  11.630  45.412  1.00  0.00     0.026 C 
HETATM   18 BR1  UNL     1      28.664  12.399  43.652  1.00  0.00    -0.050 Br
HETATM   19  C19 UNL     1      29.893  12.033  45.616  1.00  0.00     0.021 C 
HETATM   20  C20 UNL     1      30.738  11.742  46.689  1.00  0.00     0.004 C 
HETATM   21  C21 UNL     1      31.791  11.482  47.831  1.00  0.00     0.041 C 
HETATM   22  H5  UNL     1      29.146   6.521  49.989  1.00  0.00     0.156 HD
HETATM   23  H20 UNL     1      26.949   8.289  46.598  1.00  0.00     0.159 HD
ENDROOT
BRANCH   1  24
HETATM   24  O1  UNL     1      27.156   6.045  48.491  1.00  0.00    -0.366 OA
HETATM   25  C1  UNL     1      27.506   4.733  48.738  1.00  0.00     0.204 C 
ENDBRANCH   1  24
BRANCH   3  26
HETATM   26  C4  UNL     1      31.223   5.997  47.480  1.00  0.00     0.048 C 
BRANCH  26  27
HETATM   27  C5  UNL     1      32.077   4.916  48.179  1.00  0.00     0.122 C 
BRANCH  27  28
HETATM   28  N2  UNL     1      33.477   5.145  47.957  1.00  0.00    -0.202 NA
HETATM   29  C6  UNL     1      33.683   5.886  46.730  1.00  0.00     0.143 C 
BRANCH  28  30
HETATM   30  O2  UNL     1      34.042   5.879  48.958  1.00  0.00    -0.309 OA
HETATM   31  C7  UNL     1      35.084   6.637  48.480  1.00  0.00     0.229 C 
ENDBRANCH  28  30
ENDBRANCH  27  28
ENDBRANCH  26  27
ENDBRANCH   3  26
TORSDOF 5
ENDMDL
MODEL 9
REMARK VINA RESULT:      -6.3      2.672      4.628
REMARK  5 active torsions:
REMARK  status: ('A' for Active; 'I' for Inactive)
REMARK    1  A    between atoms: O1_2  and  C2_3 
REMARK    2  A    between atoms: C3_5  and  C4_6 
REMARK    3  A    between atoms: C4_6  and  C5_7 
REMARK    4  A    between atoms: C5_7  and  N2_8 
REMARK    5  A    between atoms: N2_8  and  O2_10 
ROOT
HETATM    1  C2  UNL     1      20.698   4.262  50.575  1.00  0.00     0.267 C 
HETATM    2  N1  UNL     1      20.943   5.341  49.691  1.00  0.00    -0.382 N 
HETATM    3  C3  UNL     1      22.137   6.110  49.766  1.00  0.00     0.130 C 
HETATM    4  C8  UNL     1      23.359   5.349  49.520  1.00  0.00     0.035 A 
HETATM    5  C9  UNL     1      24.659   5.634  49.624  1.00  0.00     0.032 A 
HETATM    6  C10 UNL     1      25.092   4.432  49.298  1.00  0.00    -0.049 A 
HETATM    7  C11 UNL     1      24.505   3.260  48.953  1.00  0.00     0.169 A 
HETATM    8  C12 UNL     1      23.172   3.033  48.873  1.00  0.00     0.042 C 
HETATM    9  N3  UNL     1      23.266   4.208  49.201  1.00  0.00    -0.335 N 
HETATM   10  C13 UNL     1      21.685   2.762  48.778  1.00  0.00     0.057 C 
HETATM   11  C14 UNL     1      21.393   2.984  50.124  1.00  0.00     0.056 C 
HETATM   12  N4  UNL     1      21.803   2.150  51.251  1.00  0.00    -0.385 N 
HETATM   13  C15 UNL     1      22.839   1.199  50.992  1.00  0.00     0.171 C 
HETATM   14  C16 UNL     1      23.646   0.932  52.211  1.00  0.00     0.057 C 
HETATM   15  C17 UNL     1      23.149   0.240  53.347  1.00  0.00     0.098 C 
HETATM   16  N5  UNL     1      22.730  -0.327  54.296  1.00  0.00    -0.192 NA
HETATM   17  C18 UNL     1      24.927   1.281  52.446  1.00  0.00     0.026 C 
HETATM   18 BR1  UNL     1      26.036   0.958  53.997  1.00  0.00    -0.050 Br
HETATM   19  C19 UNL     1      26.116   2.095  51.946  1.00  0.00     0.021 C 
HETATM   20  C20 UNL     1      26.206   2.905  50.813  1.00  0.00     0.004 C 
HETATM   21  C21 UNL     1      26.437   3.849  49.573  1.00  0.00     0.041 C 
HETATM   22  H5  UNL     1      20.625   5.164  48.708  1.00  0.00     0.156 HD
HETATM   23  H20 UNL     1      21.264   2.390  52.076  1.00  0.00     0.159 HD
ENDROOT
BRANCH   1  24
HETATM   24  O1  UNL     1      19.334   4.018  50.565  1.00  0.00    -0.366 OA
HETATM   25  C1  UNL     1      18.602   4.888  49.781  1.00  0.00     0.204 C 
ENDBRANCH   1  24
BRANCH   3  26
HETATM   26  C4  UNL     1      22.164   7.091  50.900  1.00  0.00     0.048 C 
BRANCH  26  27
HETATM   27  C5  UNL     1      21.003   8.064  50.601  1.00  0.00     0.122 C 
BRANCH  27  28
HETATM   28  N2  UNL     1      20.985   8.433  49.213  1.00  0.00    -0.202 NA
HETATM   29  C6  UNL     1      19.623   8.593  48.747  1.00  0.00     0.143 C 
BRANCH  28  30
HETATM   30  O2  UNL     1      21.618   9.619  48.989  1.00  0.00    -0.309 OA
HETATM   31  C7  UNL     1      22.644   9.464  48.087  1.00  0.00     0.229 C 
ENDBRANCH  28  30
ENDBRANCH  27  28
ENDBRANCH  26  27
ENDBRANCH   3  26
TORSDOF 5
ENDMDL
