MODEL 1
REMARK VINA RESULT:      -7.8      0.000      0.000
REMARK  8 active torsions:
REMARK  status: ('A' for Active; 'I' for Inactive)
REMARK    1  A    between atoms: C2_2  and  N1_3 
REMARK    2  A    between atoms: C5_7  and  O1_8 
REMARK    3  A    between atoms: O1_8  and  C6_9 
REMARK    4  A    between atoms: C10_13  and  C11_14 
REMARK    5  A    between atoms: C13_20  and  N4_21 
REMARK    6  A    between atoms: N4_21  and  C14_22 
REMARK    7  A    between atoms: C14_22  and  C15_23 
REMARK    8  A    between atoms: C15_23  and  N5_24 
ROOT
HETATM    1  N1  UNL     1      27.851   1.018  53.578  1.00  0.00    -0.324 N 
HETATM    2  C3  UNL     1      27.037   0.582  54.558  1.00  0.00     0.212 A 
HETATM    3  N2  UNL     1      25.807   1.079  54.306  1.00  0.00    -0.235 NA
HETATM    4  C4  UNL     1      25.837   1.819  53.185  1.00  0.00     0.158 A 
HETATM    5  C5  UNL     1      24.941   2.556  52.441  1.00  0.00     0.221 A 
HETATM    6  N3  UNL     1      25.290   3.210  51.321  1.00  0.00    -0.035 NA
HETATM    7  C13 UNL     1      26.558   3.169  50.872  1.00  0.00     0.726 A 
HETATM    8  N6  UNL     1      27.432   2.450  51.599  1.00  0.00    -0.042 NA
HETATM    9  C16 UNL     1      27.125   1.784  52.721  1.00  0.00     0.183 A 
ENDROOT
BRANCH   5  10
HETATM   10  O1  UNL     1      23.628   2.617  52.877  1.00  0.00    -0.290 OA
BRANCH  10  11
HETATM   11  C6  UNL     1      22.677   1.713  52.431  1.00  0.00     0.078 A 
HETATM   12  C7  UNL     1      22.113   1.746  51.173  1.00  0.00     0.037 A 
HETATM   13  C8  UNL     1      21.171   0.767  50.882  1.00  0.00     0.004 A 
HETATM   14  C9  UNL     1      20.776  -0.211  51.754  1.00  0.00     0.016 A 
HETATM   15  C10 UNL     1      21.381  -0.196  53.014  1.00  0.00     0.050 A 
HETATM   16  C12 UNL     1      22.322   0.747  53.369  1.00  0.00     0.053 A 
BRANCH  15  17
HETATM   17  C11 UNL     1      20.995  -1.233  54.008  1.00  0.00     0.417 C 
HETATM   18  F1  UNL     1      19.666  -1.582  53.849  1.00  0.00    -0.166 F 
HETATM   19  F2  UNL     1      21.211  -0.763  55.281  1.00  0.00    -0.166 F 
HETATM   20  F3  UNL     1      21.742  -2.375  53.814  1.00  0.00    -0.166 F 
ENDBRANCH  15  17
ENDBRANCH  10  11
ENDBRANCH   5  10
BRANCH   7  21
HETATM   21  N4  UNL     1      26.961   3.850  49.691  1.00  0.00    -0.221 N 
HETATM   22  H11 UNL     1      27.753   3.460  49.140  1.00  0.00     0.177 HD
BRANCH  21  23
HETATM   23  C14 UNL     1      26.301   5.045  49.257  1.00  0.00     0.168 C 
BRANCH  23  24
HETATM   24  C15 UNL     1      27.216   6.008  48.530  1.00  0.00     0.286 C 
BRANCH  24  25
HETATM   25  N5  UNL     1      28.587   5.713  48.875  1.00  0.00     0.079 N 
HETATM   26  H16 UNL     1      28.765   4.694  48.941  1.00  0.00     0.312 HD
HETATM   27  H17 UNL     1      29.188   6.198  48.172  1.00  0.00     0.312 HD
ENDBRANCH  24  25
ENDBRANCH  23  24
ENDBRANCH  21  23
ENDBRANCH   7  21
BRANCH   1  28
HETATM   28  C2  UNL     1      29.267   0.728  53.444  1.00  0.00     0.127 C 
HETATM   29  C1  UNL     1      29.522  -0.774  53.605  1.00  0.00     0.027 C 
ENDBRANCH   1  28
TORSDOF 8
ENDMDL
MODEL 2
REMARK VINA RESULT:      -7.4      1.085      4.326
REMARK  8 active torsions:
REMARK  status: ('A' for Active; 'I' for Inactive)
REMARK    1  A    between atoms: C2_2  and  N1_3 
REMARK    2  A    between atoms: C5_7  and  O1_8 
REMARK    3  A    between atoms: O1_8  and  C6_9 
REMARK    4  A    between atoms: C10_13  and  C11_14 
REMARK    5  A    between atoms: C13_20  and  N4_21 
REMARK    6  A    between atoms: N4_21  and  C14_22 
REMARK    7  A    between atoms: C14_22  and  C15_23 
REMARK    8  A    between atoms: C15_23  and  N5_24 
ROOT
HETATM    1  N1  UNL     1      26.385   4.563  49.393  1.00  0.00    -0.324 N 
HETATM    2  C3  UNL     1      25.214   5.190  49.174  1.00  0.00     0.212 A 
HETATM    3  N2  UNL     1      24.329   4.708  50.074  1.00  0.00    -0.235 NA
HETATM    4  C4  UNL     1      24.926   3.791  50.852  1.00  0.00     0.158 A 
HETATM    5  C5  UNL     1      24.568   2.977  51.905  1.00  0.00     0.221 A 
HETATM    6  N3  UNL     1      25.427   2.130  52.496  1.00  0.00    -0.035 NA
HETATM    7  C13 UNL     1      26.701   2.043  52.072  1.00  0.00     0.726 A 
HETATM    8  N6  UNL     1      27.051   2.837  51.043  1.00  0.00    -0.042 NA
HETATM    9  C16 UNL     1      26.225   3.694  50.427  1.00  0.00     0.183 A 
ENDROOT
BRANCH   5  10
HETATM   10  O1  UNL     1      23.263   3.044  52.364  1.00  0.00    -0.290 OA
BRANCH  10  11
HETATM   11  C6  UNL     1      22.335   2.066  52.046  1.00  0.00     0.078 A 
HETATM   12  C7  UNL     1      21.648   2.013  50.851  1.00  0.00     0.037 A 
HETATM   13  C8  UNL     1      20.749   0.967  50.689  1.00  0.00     0.004 A 
HETATM   14  C9  UNL     1      20.509   0.001  51.628  1.00  0.00     0.016 A 
HETATM   15  C10 UNL     1      21.233   0.103  52.819  1.00  0.00     0.050 A 
HETATM   16  C12 UNL     1      22.140   1.116  53.046  1.00  0.00     0.053 A 
BRANCH  15  17
HETATM   17  C11 UNL     1      21.018  -0.917  53.881  1.00  0.00     0.417 C 
HETATM   18  F1  UNL     1      21.145  -0.342  55.133  1.00  0.00    -0.166 F 
HETATM   19  F2  UNL     1      21.925  -1.939  53.736  1.00  0.00    -0.166 F 
HETATM   20  F3  UNL     1      19.741  -1.427  53.795  1.00  0.00    -0.166 F 
ENDBRANCH  15  17
ENDBRANCH  10  11
ENDBRANCH   5  10
BRANCH   7  21
HETATM   21  N4  UNL     1      27.636   1.158  52.674  1.00  0.00    -0.221 N 
HETATM   22  H11 UNL     1      28.570   1.045  52.229  1.00  0.00     0.177 HD
BRANCH  21  23
HETATM   23  C14 UNL     1      27.315   0.432  53.866  1.00  0.00     0.168 C 
BRANCH  23  24
HETATM   24  C15 UNL     1      28.515   0.164  54.751  1.00  0.00     0.286 C 
BRANCH  24  25
HETATM   25  N5  UNL     1      29.487  -0.609  54.011  1.00  0.00     0.079 N 
HETATM   26  H16 UNL     1      30.184  -1.059  54.631  1.00  0.00     0.312 HD
HETATM   27  H17 UNL     1      28.951  -1.285  53.423  1.00  0.00     0.312 HD
ENDBRANCH  24  25
ENDBRANCH  23  24
ENDBRANCH  21  23
ENDBRANCH   7  21
BRANCH   1  28
HETATM   28  C2  UNL     1      27.621   4.767  48.659  1.00  0.00     0.127 C 
HETATM   29  C1  UNL     1      27.788   6.247  48.297  1.00  0.00     0.027 C 
ENDBRANCH   1  28
TORSDOF 8
ENDMDL
MODEL 3
REMARK VINA RESULT:      -7.4      3.779      6.490
REMARK  8 active torsions:
REMARK  status: ('A' for Active; 'I' for Inactive)
REMARK    1  A    between atoms: C2_2  and  N1_3 
REMARK    2  A    between atoms: C5_7  and  O1_8 
REMARK    3  A    between atoms: O1_8  and  C6_9 
REMARK    4  A    between atoms: C10_13  and  C11_14 
REMARK    5  A    between atoms: C13_20  and  N4_21 
REMARK    6  A    between atoms: N4_21  and  C14_22 
REMARK    7  A    between atoms: C14_22  and  C15_23 
REMARK    8  A    between atoms: C15_23  and  N5_24 
ROOT
HETATM    1  N1  UNL     1      20.165  -0.088  52.662  1.00  0.00    -0.324 N 
HETATM    2  C3  UNL     1      20.283  -0.838  53.774  1.00  0.00     0.212 A 
HETATM    3  N2  UNL     1      21.583  -0.811  54.139  1.00  0.00    -0.235 NA
HETATM    4  C4  UNL     1      22.281  -0.057  53.274  1.00  0.00     0.158 A 
HETATM    5  C5  UNL     1      23.592   0.337  53.113  1.00  0.00     0.221 A 
HETATM    6  N3  UNL     1      23.996   1.127  52.104  1.00  0.00    -0.035 NA
HETATM    7  C13 UNL     1      23.115   1.574  51.191  1.00  0.00     0.726 A 
HETATM    8  N6  UNL     1      21.835   1.188  51.348  1.00  0.00    -0.042 NA
HETATM    9  C16 UNL     1      21.392   0.402  52.339  1.00  0.00     0.183 A 
ENDROOT
BRANCH   5  10
HETATM   10  O1  UNL     1      24.523  -0.107  54.037  1.00  0.00    -0.290 OA
BRANCH  10  11
HETATM   11  C6  UNL     1      25.768  -0.568  53.643  1.00  0.00     0.078 A 
HETATM   12  C7  UNL     1      25.974  -1.756  52.972  1.00  0.00     0.037 A 
HETATM   13  C8  UNL     1      27.286  -2.075  52.648  1.00  0.00     0.004 A 
HETATM   14  C9  UNL     1      28.369  -1.295  52.951  1.00  0.00     0.016 A 
HETATM   15  C10 UNL     1      28.103  -0.104  53.631  1.00  0.00     0.050 A 
HETATM   16  C12 UNL     1      26.825   0.274  53.983  1.00  0.00     0.053 A 
BRANCH  15  17
HETATM   17  C11 UNL     1      29.237   0.789  53.989  1.00  0.00     0.417 C 
HETATM   18  F1  UNL     1      30.440   0.203  53.637  1.00  0.00    -0.166 F 
HETATM   19  F2  UNL     1      29.217   1.053  55.337  1.00  0.00    -0.166 F 
HETATM   20  F3  UNL     1      29.143   1.975  53.293  1.00  0.00    -0.166 F 
ENDBRANCH  15  17
ENDBRANCH  10  11
ENDBRANCH   5  10
BRANCH   7  21
HETATM   21  N4  UNL     1      23.508   2.411  50.112  1.00  0.00    -0.221 N 
HETATM   22  H11 UNL     1      23.374   2.063  49.140  1.00  0.00     0.177 HD
BRANCH  21  23
HETATM   23  C14 UNL     1      24.077   3.705  50.340  1.00  0.00     0.168 C 
BRANCH  23  24
HETATM   24  C15 UNL     1      25.357   3.947  49.567  1.00  0.00     0.286 C 
BRANCH  24  25
HETATM   25  N5  UNL     1      26.468   3.985  50.489  1.00  0.00     0.079 N 
HETATM   26  H16 UNL     1      27.360   4.226  50.019  1.00  0.00     0.312 HD
HETATM   27  H17 UNL     1      26.205   4.646  51.253  1.00  0.00     0.312 HD
ENDBRANCH  24  25
ENDBRANCH  23  24
ENDBRANCH  21  23
ENDBRANCH   7  21
BRANCH   1  28
HETATM   28  C2  UNL     1      18.944   0.166  51.921  1.00  0.00     0.127 C 
HETATM   29  C1  UNL     1      17.864  -0.850  52.307  1.00  0.00     0.027 C 
ENDBRANCH   1  28
TORSDOF 8
ENDMDL
MODEL 4
REMARK VINA RESULT:      -7.3      3.905      6.294
REMARK  8 active torsions:
REMARK  status: ('A' for Active; 'I' for Inactive)
REMARK    1  A    between atoms: C2_2  and  N1_3 
REMARK    2  A    between atoms: C5_7  and  O1_8 
REMARK    3  A    between atoms: O1_8  and  C6_9 
REMARK    4  A    between atoms: C10_13  and  C11_14 
REMARK    5  A    between atoms: C13_20  and  N4_21 
REMARK    6  A    between atoms: N4_21  and  C14_22 
REMARK    7  A    between atoms: C14_22  and  C15_23 
REMARK    8  A    between atoms: C15_23  and  N5_24 
ROOT
HETATM    1  N1  UNL     1      26.701   6.012  49.010  1.00  0.00    -0.324 N 
HETATM    2  C3  UNL     1      27.593   5.100  48.578  1.00  0.00     0.212 A 
HETATM    3  N2  UNL     1      27.244   3.913  49.120  1.00  0.00    -0.235 NA
HETATM    4  C4  UNL     1      26.150   4.066  49.883  1.00  0.00     0.158 A 
HETATM    5  C5  UNL     1      25.346   3.263  50.665  1.00  0.00     0.221 A 
HETATM    6  N3  UNL     1      24.279   3.731  51.333  1.00  0.00    -0.035 NA
HETATM    7  C13 UNL     1      23.945   5.033  51.261  1.00  0.00     0.726 A 
HETATM    8  N6  UNL     1      24.729   5.816  50.499  1.00  0.00    -0.042 NA
HETATM    9  C16 UNL     1      25.802   5.389  49.818  1.00  0.00     0.183 A 
ENDROOT
BRANCH   5  10
HETATM   10  O1  UNL     1      25.665   1.919  50.758  1.00  0.00    -0.290 OA
BRANCH  10  11
HETATM   11  C6  UNL     1      25.902   1.316  51.983  1.00  0.00     0.078 A 
HETATM   12  C7  UNL     1      24.953   0.607  52.690  1.00  0.00     0.037 A 
HETATM   13  C8  UNL     1      25.351   0.064  53.905  1.00  0.00     0.004 A 
HETATM   14  C9  UNL     1      26.607   0.189  54.433  1.00  0.00     0.016 A 
HETATM   15  C10 UNL     1      27.528   0.918  53.675  1.00  0.00     0.050 A 
HETATM   16  C12 UNL     1      27.199   1.483  52.462  1.00  0.00     0.053 A 
BRANCH  15  17
HETATM   17  C11 UNL     1      28.911   1.090  54.194  1.00  0.00     0.417 C 
HETATM   18  F1  UNL     1      29.823   0.497  53.338  1.00  0.00    -0.166 F 
HETATM   19  F2  UNL     1      29.011   0.537  55.448  1.00  0.00    -0.166 F 
HETATM   20  F3  UNL     1      29.228   2.429  54.262  1.00  0.00    -0.166 F 
ENDBRANCH  15  17
ENDBRANCH  10  11
ENDBRANCH   5  10
BRANCH   7  21
HETATM   21  N4  UNL     1      22.822   5.561  51.955  1.00  0.00    -0.221 N 
HETATM   22  H11 UNL     1      22.974   5.986  52.893  1.00  0.00     0.177 HD
BRANCH  21  23
HETATM   23  C14 UNL     1      21.507   5.516  51.389  1.00  0.00     0.168 C 
BRANCH  23  24
HETATM   24  C15 UNL     1      21.212   6.672  50.456  1.00  0.00     0.286 C 
BRANCH  24  25
HETATM   25  N5  UNL     1      22.007   7.813  50.849  1.00  0.00     0.079 N 
HETATM   26  H16 UNL     1      22.986   7.554  51.065  1.00  0.00     0.312 HD
HETATM   27  H17 UNL     1      21.918   8.520  50.086  1.00  0.00     0.312 HD
ENDBRANCH  24  25
ENDBRANCH  23  24
ENDBRANCH  21  23
ENDBRANCH   7  21
BRANCH   1  28
HETATM   28  C2  UNL     1      26.687   7.425  48.678  1.00  0.00     0.127 C 
HETATM   29  C1  UNL     1      27.565   7.694  47.451  1.00  0.00     0.027 C 
ENDBRANCH   1  28
TORSDOF 8
ENDMDL
MODEL 5
REMARK VINA RESULT:      -7.3      2.095      2.676
REMARK  8 active torsions:
REMARK  status: ('A' for Active; 'I' for Inactive)
REMARK    1  A    between atoms: C2_2  and  N1_3 
REMARK    2  A    between atoms: C5_7  and  O1_8 
REMARK    3  A    between atoms: O1_8  and  C6_9 
REMARK    4  A    between atoms: C10_13  and  C11_14 
REMARK    5  A    between atoms: C13_20  and  N4_21 
REMARK    6  A    between atoms: N4_21  and  C14_22 
REMARK    7  A    between atoms: C14_22  and  C15_23 
REMARK    8  A    between atoms: C15_23  and  N5_24 
ROOT
HETATM    1  N1  UNL     1      27.908   0.729  53.473  1.00  0.00    -0.324 N 
HETATM    2  C3  UNL     1      27.137   0.206  54.444  1.00  0.00     0.212 A 
HETATM    3  N2  UNL     1      25.905   0.743  54.309  1.00  0.00    -0.235 NA
HETATM    4  C4  UNL     1      25.892   1.593  53.270  1.00  0.00     0.158 A 
HETATM    5  C5  UNL     1      24.974   2.416  52.653  1.00  0.00     0.221 A 
HETATM    6  N3  UNL     1      25.278   3.177  51.589  1.00  0.00    -0.035 NA
HETATM    7  C13 UNL     1      26.520   3.166  51.073  1.00  0.00     0.726 A 
HETATM    8  N6  UNL     1      27.417   2.364  51.675  1.00  0.00    -0.042 NA
HETATM    9  C16 UNL     1      27.154   1.589  52.738  1.00  0.00     0.183 A 
ENDROOT
BRANCH   5  10
HETATM   10  O1  UNL     1      23.687   2.449  53.161  1.00  0.00    -0.290 OA
BRANCH  10  11
HETATM   11  C6  UNL     1      22.720   1.552  52.736  1.00  0.00     0.078 A 
HETATM   12  C7  UNL     1      22.264   0.493  53.494  1.00  0.00     0.037 A 
HETATM   13  C8  UNL     1      21.290  -0.315  52.922  1.00  0.00     0.004 A 
HETATM   14  C9  UNL     1      20.765  -0.127  51.672  1.00  0.00     0.016 A 
HETATM   15  C10 UNL     1      21.263   0.961  50.949  1.00  0.00     0.050 A 
HETATM   16  C12 UNL     1      22.230   1.802  51.457  1.00  0.00     0.053 A 
BRANCH  15  17
HETATM   17  C11 UNL     1      20.733   1.220  49.584  1.00  0.00     0.417 C 
HETATM   18  F1  UNL     1      19.397   0.866  49.511  1.00  0.00    -0.166 F 
HETATM   19  F2  UNL     1      21.460   0.512  48.658  1.00  0.00    -0.166 F 
HETATM   20  F3  UNL     1      20.814   2.565  49.293  1.00  0.00    -0.166 F 
ENDBRANCH  15  17
ENDBRANCH  10  11
ENDBRANCH   5  10
BRANCH   7  21
HETATM   21  N4  UNL     1      26.876   3.959  49.948  1.00  0.00    -0.221 N 
HETATM   22  H11 UNL     1      27.872   3.972  49.646  1.00  0.00     0.177 HD
BRANCH  21  23
HETATM   23  C14 UNL     1      25.898   4.727  49.238  1.00  0.00     0.168 C 
BRANCH  23  24
HETATM   24  C15 UNL     1      25.850   6.181  49.659  1.00  0.00     0.286 C 
BRANCH  24  25
HETATM   25  N5  UNL     1      25.012   6.310  50.828  1.00  0.00     0.079 N 
HETATM   26  H16 UNL     1      25.497   6.788  51.609  1.00  0.00     0.312 HD
HETATM   27  H17 UNL     1      24.137   6.791  50.521  1.00  0.00     0.312 HD
ENDBRANCH  24  25
ENDBRANCH  23  24
ENDBRANCH  21  23
ENDBRANCH   7  21
BRANCH   1  28
HETATM   28  C2  UNL     1      29.310   0.435  53.236  1.00  0.00     0.127 C 
HETATM   29  C1  UNL     1      29.683  -0.918  53.850  1.00  0.00     0.027 C 
ENDBRANCH   1  28
TORSDOF 8
ENDMDL
MODEL 6
REMARK VINA RESULT:      -7.3      3.861      6.317
REMARK  8 active torsions:
REMARK  status: ('A' for Active; 'I' for Inactive)
REMARK    1  A    between atoms: C2_2  and  N1_3 
REMARK    2  A    between atoms: C5_7  and  O1_8 
REMARK    3  A    between atoms: O1_8  and  C6_9 
REMARK    4  A    between atoms: C10_13  and  C11_14 
REMARK    5  A    between atoms: C13_20  and  N4_21 
REMARK    6  A    between atoms: N4_21  and  C14_22 
REMARK    7  A    between atoms: C14_22  and  C15_23 
REMARK    8  A    between atoms: C15_23  and  N5_24 
ROOT
HETATM    1  N1  UNL     1      20.601   3.037  50.862  1.00  0.00    -0.324 N 
HETATM    2  C3  UNL     1      20.687   1.718  50.605  1.00  0.00     0.212 A 
HETATM    3  N2  UNL     1      21.989   1.374  50.706  1.00  0.00    -0.235 NA
HETATM    4  C4  UNL     1      22.720   2.456  51.022  1.00  0.00     0.158 A 
HETATM    5  C5  UNL     1      24.049   2.740  51.253  1.00  0.00     0.221 A 
HETATM    6  N3  UNL     1      24.487   3.972  51.560  1.00  0.00    -0.035 NA
HETATM    7  C13 UNL     1      23.624   5.000  51.657  1.00  0.00     0.726 A 
HETATM    8  N6  UNL     1      22.327   4.722  51.431  1.00  0.00    -0.042 NA
HETATM    9  C16 UNL     1      21.850   3.508  51.121  1.00  0.00     0.183 A 
ENDROOT
BRANCH   5  10
HETATM   10  O1  UNL     1      24.961   1.702  51.161  1.00  0.00    -0.290 OA
BRANCH  10  11
HETATM   11  C6  UNL     1      25.494   1.107  52.293  1.00  0.00     0.078 A 
HETATM   12  C7  UNL     1      24.811   0.210  53.087  1.00  0.00     0.037 A 
HETATM   13  C8  UNL     1      25.489  -0.297  54.189  1.00  0.00     0.004 A 
HETATM   14  C9  UNL     1      26.772   0.037  54.528  1.00  0.00     0.016 A 
HETATM   15  C10 UNL     1      27.416   0.951  53.689  1.00  0.00     0.050 A 
HETATM   16  C12 UNL     1      26.802   1.492  52.580  1.00  0.00     0.053 A 
BRANCH  15  17
HETATM   17  C11 UNL     1      28.812   1.355  54.003  1.00  0.00     0.417 C 
HETATM   18  F1  UNL     1      28.960   2.724  53.864  1.00  0.00    -0.166 F 
HETATM   19  F2  UNL     1      29.686   0.698  53.172  1.00  0.00    -0.166 F 
HETATM   20  F3  UNL     1      29.111   1.045  55.312  1.00  0.00    -0.166 F 
ENDBRANCH  15  17
ENDBRANCH  10  11
ENDBRANCH   5  10
BRANCH   7  21
HETATM   21  N4  UNL     1      24.054   6.316  51.980  1.00  0.00    -0.221 N 
HETATM   22  H11 UNL     1      24.311   6.525  52.967  1.00  0.00     0.177 HD
BRANCH  21  23
HETATM   23  C14 UNL     1      24.137   7.340  50.983  1.00  0.00     0.168 C 
BRANCH  23  24
HETATM   24  C15 UNL     1      25.347   7.207  50.081  1.00  0.00     0.286 C 
BRANCH  24  25
HETATM   25  N5  UNL     1      26.446   7.955  50.648  1.00  0.00     0.079 N 
HETATM   26  H16 UNL     1      26.251   8.972  50.684  1.00  0.00     0.312 HD
HETATM   27  H17 UNL     1      26.648   7.533  51.582  1.00  0.00     0.312 HD
ENDBRANCH  24  25
ENDBRANCH  23  24
ENDBRANCH  21  23
ENDBRANCH   7  21
BRANCH   1  28
HETATM   28  C2  UNL     1      19.390   3.836  50.866  1.00  0.00     0.127 C 
HETATM   29  C1  UNL     1      18.252   3.077  51.558  1.00  0.00     0.027 C 
ENDBRANCH   1  28
TORSDOF 8
ENDMDL
MODEL 7
REMARK VINA RESULT:      -7.3      4.832      7.794
REMARK  8 active torsions:
REMARK  status: ('A' for Active; 'I' for Inactive)
REMARK    1  A    between atoms: C2_2  and  N1_3 
REMARK    2  A    between atoms: C5_7  and  O1_8 
REMARK    3  A    between atoms: O1_8  and  C6_9 
REMARK    4  A    between atoms: C10_13  and  C11_14 
REMARK    5  A    between atoms: C13_20  and  N4_21 
REMARK    6  A    between atoms: N4_21  and  C14_22 
REMARK    7  A    between atoms: C14_22  and  C15_23 
REMARK    8  A    between atoms: C15_23  and  N5_24 
ROOT
HETATM    1  N1  UNL     1      22.667   1.714  51.977  1.00  0.00    -0.324 N 
HETATM    2  C3  UNL     1      22.310   2.002  50.711  1.00  0.00     0.212 A 
HETATM    3  N2  UNL     1      23.426   2.389  50.058  1.00  0.00    -0.235 NA
HETATM    4  C4  UNL     1      24.477   2.348  50.894  1.00  0.00     0.158 A 
HETATM    5  C5  UNL     1      25.828   2.616  50.827  1.00  0.00     0.221 A 
HETATM    6  N3  UNL     1      26.651   2.473  51.879  1.00  0.00    -0.035 NA
HETATM    7  C13 UNL     1      26.177   2.054  53.066  1.00  0.00     0.726 A 
HETATM    8  N6  UNL     1      24.859   1.794  53.132  1.00  0.00    -0.042 NA
HETATM    9  C16 UNL     1      24.004   1.923  52.107  1.00  0.00     0.183 A 
ENDROOT
BRANCH   5  10
HETATM   10  O1  UNL     1      26.346   3.049  49.618  1.00  0.00    -0.290 OA
BRANCH  10  11
HETATM   11  C6  UNL     1      26.491   4.397  49.336  1.00  0.00     0.078 A 
HETATM   12  C7  UNL     1      25.525   5.348  49.595  1.00  0.00     0.037 A 
HETATM   13  C8  UNL     1      25.826   6.659  49.252  1.00  0.00     0.004 A 
HETATM   14  C9  UNL     1      27.004   7.059  48.681  1.00  0.00     0.016 A 
HETATM   15  C10 UNL     1      27.946   6.054  48.441  1.00  0.00     0.050 A 
HETATM   16  C12 UNL     1      27.712   4.733  48.757  1.00  0.00     0.053 A 
BRANCH  15  17
HETATM   17  C11 UNL     1      29.248   6.423  47.823  1.00  0.00     0.417 C 
HETATM   18  F1  UNL     1      29.967   5.285  47.501  1.00  0.00    -0.166 F 
HETATM   19  F2  UNL     1      29.970   7.208  48.688  1.00  0.00    -0.166 F 
HETATM   20  F3  UNL     1      29.036   7.115  46.651  1.00  0.00    -0.166 F 
ENDBRANCH  15  17
ENDBRANCH  10  11
ENDBRANCH   5  10
BRANCH   7  21
HETATM   21  N4  UNL     1      27.021   1.893  54.199  1.00  0.00    -0.221 N 
HETATM   22  H11 UNL     1      27.298   2.741  54.735  1.00  0.00     0.177 HD
BRANCH  21  23
HETATM   23  C14 UNL     1      27.485   0.601  54.606  1.00  0.00     0.168 C 
BRANCH  23  24
HETATM   24  C15 UNL     1      28.622   0.074  53.755  1.00  0.00     0.286 C 
BRANCH  24  25
HETATM   25  N5  UNL     1      29.728   1.002  53.813  1.00  0.00     0.079 N 
HETATM   26  H16 UNL     1      30.174   1.023  54.748  1.00  0.00     0.312 HD
HETATM   27  H17 UNL     1      30.383   0.740  53.042  1.00  0.00     0.312 HD
ENDBRANCH  24  25
ENDBRANCH  23  24
ENDBRANCH  21  23
ENDBRANCH   7  21
BRANCH   1  28
HETATM   28  C2  UNL     1      21.787   1.257  53.036  1.00  0.00     0.127 C 
HETATM   29  C1  UNL     1      21.810  -0.273  53.126  1.00  0.00     0.027 C 
ENDBRANCH   1  28
TORSDOF 8
ENDMDL
MODEL 8
REMARK VINA RESULT:      -7.3      4.519      7.099
REMARK  8 active torsions:
REMARK  status: ('A' for Active; 'I' for Inactive)
REMARK    1  A    between atoms: C2_2  and  N1_3 
REMARK    2  A    between atoms: C5_7  and  O1_8 
REMARK    3  A    between atoms: O1_8  and  C6_9 
REMARK    4  A    between atoms: C10_13  and  C11_14 
REMARK    5  A    between atoms: C13_20  and  N4_21 
REMARK    6  A    between atoms: N4_21  and  C14_22 
REMARK    7  A    between atoms: C14_22  and  C15_23 
REMARK    8  A    between atoms: C15_23  and  N5_24 
ROOT
HETATM    1  N1  UNL     1      26.737   0.995  53.518  1.00  0.00    -0.324 N 
HETATM    2  C3  UNL     1      27.570   1.739  52.766  1.00  0.00     0.212 A 
HETATM    3  N2  UNL     1      26.834   2.282  51.772  1.00  0.00    -0.235 NA
HETATM    4  C4  UNL     1      25.554   1.891  51.890  1.00  0.00     0.158 A 
HETATM    5  C5  UNL     1      24.372   2.097  51.212  1.00  0.00     0.221 A 
HETATM    6  N3  UNL     1      23.209   1.544  51.592  1.00  0.00    -0.035 NA
HETATM    7  C13 UNL     1      23.152   0.747  52.675  1.00  0.00     0.726 A 
HETATM    8  N6  UNL     1      24.307   0.545  53.336  1.00  0.00    -0.042 NA
HETATM    9  C16 UNL     1      25.487   1.078  52.990  1.00  0.00     0.183 A 
ENDROOT
BRANCH   5  10
HETATM   10  O1  UNL     1      24.398   2.913  50.093  1.00  0.00    -0.290 OA
BRANCH  10  11
HETATM   11  C6  UNL     1      24.637   4.274  50.198  1.00  0.00     0.078 A 
HETATM   12  C7  UNL     1      23.958   5.112  51.057  1.00  0.00     0.037 A 
HETATM   13  C8  UNL     1      24.317   6.454  51.040  1.00  0.00     0.004 A 
HETATM   14  C9  UNL     1      25.288   6.985  50.234  1.00  0.00     0.016 A 
HETATM   15  C10 UNL     1      25.943   6.089  49.384  1.00  0.00     0.050 A 
HETATM   16  C12 UNL     1      25.636   4.746  49.350  1.00  0.00     0.053 A 
BRANCH  15  17
HETATM   17  C11 UNL     1      27.009   6.603  48.483  1.00  0.00     0.417 C 
HETATM   18  F1  UNL     1      27.799   7.524  49.149  1.00  0.00    -0.166 F 
HETATM   19  F2  UNL     1      26.444   7.182  47.372  1.00  0.00    -0.166 F 
HETATM   20  F3  UNL     1      27.832   5.571  48.087  1.00  0.00    -0.166 F 
ENDBRANCH  15  17
ENDBRANCH  10  11
ENDBRANCH   5  10
BRANCH   7  21
HETATM   21  N4  UNL     1      21.938   0.145  53.104  1.00  0.00    -0.221 N 
HETATM   22  H11 UNL     1      21.218  -0.083  52.388  1.00  0.00     0.177 HD
BRANCH  21  23
HETATM   23  C14 UNL     1      21.698  -0.147  54.485  1.00  0.00     0.168 C 
BRANCH  23  24
HETATM   24  C15 UNL     1      22.072  -1.562  54.876  1.00  0.00     0.286 C 
BRANCH  24  25
HETATM   25  N5  UNL     1      23.276  -1.531  55.675  1.00  0.00     0.079 N 
HETATM   26  H16 UNL     1      23.786  -2.433  55.652  1.00  0.00     0.312 HD
HETATM   27  H17 UNL     1      23.842  -0.721  55.337  1.00  0.00     0.312 HD
ENDBRANCH  24  25
ENDBRANCH  23  24
ENDBRANCH  21  23
ENDBRANCH   7  21
BRANCH   1  28
HETATM   28  C2  UNL     1      27.096   0.229  54.697  1.00  0.00     0.127 C 
HETATM   29  C1  UNL     1      28.620   0.140  54.832  1.00  0.00     0.027 C 
ENDBRANCH   1  28
TORSDOF 8
ENDMDL
MODEL 9
REMARK VINA RESULT:      -7.3      4.442      7.001
REMARK  8 active torsions:
REMARK  status: ('A' for Active; 'I' for Inactive)
REMARK    1  A    between atoms: C2_2  and  N1_3 
REMARK    2  A    between atoms: C5_7  and  O1_8 
REMARK    3  A    between atoms: O1_8  and  C6_9 
REMARK    4  A    between atoms: C10_13  and  C11_14 
REMARK    5  A    between atoms: C13_20  and  N4_21 
REMARK    6  A    between atoms: N4_21  and  C14_22 
REMARK    7  A    between atoms: C14_22  and  C15_23 
REMARK    8  A    between atoms: C15_23  and  N5_24 
ROOT
HETATM    1  N1  UNL     1      21.758   0.657  53.566  1.00  0.00    -0.324 N 
HETATM    2  C3  UNL     1      20.859   1.334  52.827  1.00  0.00     0.212 A 
HETATM    3  N2  UNL     1      21.545   1.998  51.873  1.00  0.00    -0.235 NA
HETATM    4  C4  UNL     1      22.858   1.749  52.001  1.00  0.00     0.158 A 
HETATM    5  C5  UNL     1      24.021   2.117  51.358  1.00  0.00     0.221 A 
HETATM    6  N3  UNL     1      25.233   1.682  51.740  1.00  0.00    -0.035 NA
HETATM    7  C13 UNL     1      25.362   0.850  52.789  1.00  0.00     0.726 A 
HETATM    8  N6  UNL     1      24.227   0.491  53.417  1.00  0.00    -0.042 NA
HETATM    9  C16 UNL     1      23.000   0.903  53.068  1.00  0.00     0.183 A 
ENDROOT
BRANCH   5  10
HETATM   10  O1  UNL     1      23.921   2.973  50.274  1.00  0.00    -0.290 OA
BRANCH  10  11
HETATM   11  C6  UNL     1      24.313   4.298  50.362  1.00  0.00     0.078 A 
HETATM   12  C7  UNL     1      23.758   5.211  51.234  1.00  0.00     0.037 A 
HETATM   13  C8  UNL     1      24.265   6.504  51.198  1.00  0.00     0.004 A 
HETATM   14  C9  UNL     1      25.264   6.919  50.361  1.00  0.00     0.016 A 
HETATM   15  C10 UNL     1      25.790   5.953  49.497  1.00  0.00     0.050 A 
HETATM   16  C12 UNL     1      25.334   4.653  49.482  1.00  0.00     0.053 A 
BRANCH  15  17
HETATM   17  C11 UNL     1      26.880   6.341  48.563  1.00  0.00     0.417 C 
HETATM   18  F1  UNL     1      26.356   6.974  47.449  1.00  0.00    -0.166 F 
HETATM   19  F2  UNL     1      27.588   5.227  48.183  1.00  0.00    -0.166 F 
HETATM   20  F3  UNL     1      27.732   7.235  49.175  1.00  0.00    -0.166 F 
ENDBRANCH  15  17
ENDBRANCH  10  11
ENDBRANCH   5  10
BRANCH   7  21
HETATM   21  N4  UNL     1      26.629   0.372  53.219  1.00  0.00    -0.221 N 
HETATM   22  H11 UNL     1      26.685  -0.583  53.631  1.00  0.00     0.177 HD
BRANCH  21  23
HETATM   23  C14 UNL     1      27.810   1.172  53.095  1.00  0.00     0.168 C 
BRANCH  23  24
HETATM   24  C15 UNL     1      28.817   0.936  54.202  1.00  0.00     0.286 C 
BRANCH  24  25
HETATM   25  N5  UNL     1      29.521   2.169  54.474  1.00  0.00     0.079 N 
HETATM   26  H16 UNL     1      29.688   2.723  53.615  1.00  0.00     0.312 HD
HETATM   27  H17 UNL     1      28.969   2.677  55.200  1.00  0.00     0.312 HD
ENDBRANCH  24  25
ENDBRANCH  23  24
ENDBRANCH  21  23
ENDBRANCH   7  21
BRANCH   1  28
HETATM   28  C2  UNL     1      21.469  -0.196  54.704  1.00  0.00     0.127 C 
HETATM   29  C1  UNL     1      21.396  -1.663  54.267  1.00  0.00     0.027 C 
ENDBRANCH   1  28
TORSDOF 8
ENDMDL
