MODEL 1
REMARK VINA RESULT:      -9.0      0.000      0.000
REMARK  2 active torsions:
REMARK  status: ('A' for Active; 'I' for Inactive)
REMARK    1  A    between atoms: C14_16  and  C15_17 
REMARK    2  A    between atoms: C16_19  and  O1_20 
ROOT
HETATM    1  C1  UNL     1      26.794   3.892  49.787  1.00  0.00     0.048 C 
HETATM    2  C2  UNL     1      26.625   2.804  50.783  1.00  0.00    -0.065 A 
HETATM    3  C3  UNL     1      25.667   1.918  50.558  1.00  0.00    -0.010 A 
HETATM    4  C4  UNL     1      25.660   0.906  51.677  1.00  0.00     0.054 A 
HETATM    5  C5  UNL     1      26.742   1.349  52.546  1.00  0.00    -0.052 A 
HETATM    6  C6  UNL     1      27.300   2.453  52.023  1.00  0.00     0.011 A 
HETATM    7  C7  UNL     1      27.525   1.100  53.802  1.00  0.00     0.176 C 
HETATM    8  N1  UNL     1      27.144  -0.108  54.455  1.00  0.00    -0.310 N 
HETATM    9  N2  UNL     1      25.915  -0.598  54.900  1.00  0.00    -0.183 NA
HETATM   10  C8  UNL     1      24.692  -0.547  54.541  1.00  0.00     0.064 A 
HETATM   11  C9  UNL     1      24.025  -1.359  55.599  1.00  0.00     0.088 A 
HETATM   12  C10 UNL     1      22.569  -1.394  55.318  1.00  0.00    -0.021 A 
HETATM   13  C11 UNL     1      21.924  -0.825  54.319  1.00  0.00    -0.003 A 
HETATM   14  C12 UNL     1      22.704  -0.058  53.354  1.00  0.00     0.010 A 
HETATM   15  C13 UNL     1      24.031   0.104  53.416  1.00  0.00    -0.020 A 
HETATM   16  C14 UNL     1      24.292   0.926  52.247  1.00  0.00     0.092 C 
HETATM   17  H9  UNL     1      27.944  -0.780  54.647  1.00  0.00     0.182 HD
ENDROOT
BRANCH  16  18
HETATM   18  C15 UNL     1      23.874   2.360  52.446  1.00  0.00     0.087 A 
HETATM   19  N3  UNL     1      24.082   3.324  53.066  1.00  0.00    -0.221 NA
HETATM   20  C16 UNL     1      23.481   4.494  52.968  1.00  0.00     0.169 A 
HETATM   21  C17 UNL     1      22.480   4.591  52.014  1.00  0.00     0.109 A 
HETATM   22  S1  UNL     1      22.503   2.857  51.294  1.00  0.00    -0.081 SA
BRANCH  20  23
HETATM   23  O1  UNL     1      23.968   5.465  53.870  1.00  0.00    -0.344 OA
HETATM   24  H16 UNL     1      24.751   6.049  53.583  1.00  0.00     0.219 HD
ENDBRANCH  20  23
ENDBRANCH  16  18
TORSDOF 2
ENDMDL
MODEL 2
REMARK VINA RESULT:      -8.4      2.862      4.572
REMARK  2 active torsions:
REMARK  status: ('A' for Active; 'I' for Inactive)
REMARK    1  A    between atoms: C14_16  and  C15_17 
REMARK    2  A    between atoms: C16_19  and  O1_20 
ROOT
HETATM    1  C1  UNL     1      21.987   2.610  52.264  1.00  0.00     0.048 C 
HETATM    2  C2  UNL     1      23.435   2.320  52.426  1.00  0.00    -0.065 A 
HETATM    3  C3  UNL     1      23.960   1.393  51.639  1.00  0.00    -0.010 A 
HETATM    4  C4  UNL     1      25.427   1.250  51.959  1.00  0.00     0.054 A 
HETATM    5  C5  UNL     1      25.642   2.221  53.024  1.00  0.00    -0.052 A 
HETATM    6  C6  UNL     1      24.481   2.840  53.293  1.00  0.00     0.011 A 
HETATM    7  C7  UNL     1      26.622   2.846  53.974  1.00  0.00     0.176 C 
HETATM    8  N1  UNL     1      27.954   2.387  53.767  1.00  0.00    -0.310 N 
HETATM    9  N2  UNL     1      28.521   1.112  53.726  1.00  0.00    -0.183 NA
HETATM   10  C8  UNL     1      28.186  -0.059  53.346  1.00  0.00     0.064 A 
HETATM   11  C9  UNL     1      29.409  -0.850  53.670  1.00  0.00     0.088 A 
HETATM   12  C10 UNL     1      29.172  -2.262  53.281  1.00  0.00    -0.021 A 
HETATM   13  C11 UNL     1      28.088  -2.781  52.738  1.00  0.00    -0.003 A 
HETATM   14  C12 UNL     1      26.965  -1.889  52.474  1.00  0.00     0.010 A 
HETATM   15  C13 UNL     1      26.963  -0.579  52.747  1.00  0.00    -0.020 A 
HETATM   16  C14 UNL     1      25.641  -0.177  52.301  1.00  0.00     0.092 C 
HETATM   17  H9  UNL     1      28.670   3.156  53.612  1.00  0.00     0.182 HD
ENDROOT
BRANCH  16  18
HETATM   18  C15 UNL     1      24.555  -0.612  53.250  1.00  0.00     0.087 A 
HETATM   19  N3  UNL     1      23.440  -0.945  53.317  1.00  0.00    -0.221 NA
HETATM   20  C16 UNL     1      22.758  -1.280  54.395  1.00  0.00     0.169 A 
HETATM   21  C17 UNL     1      23.450  -1.231  55.596  1.00  0.00     0.109 A 
HETATM   22  S1  UNL     1      25.142  -0.665  55.012  1.00  0.00    -0.081 SA
BRANCH  20  23
HETATM   23  O1  UNL     1      21.417  -1.637  54.137  1.00  0.00    -0.344 OA
HETATM   24  H16 UNL     1      20.996  -1.349  53.256  1.00  0.00     0.219 HD
ENDBRANCH  20  23
ENDBRANCH  16  18
TORSDOF 2
ENDMDL
MODEL 3
REMARK VINA RESULT:      -8.1      1.780      2.791
REMARK  2 active torsions:
REMARK  status: ('A' for Active; 'I' for Inactive)
REMARK    1  A    between atoms: C14_16  and  C15_17 
REMARK    2  A    between atoms: C16_19  and  O1_20 
ROOT
HETATM    1  C1  UNL     1      28.136   1.256  52.823  1.00  0.00     0.048 C 
HETATM    2  C2  UNL     1      26.914   0.537  53.268  1.00  0.00    -0.065 A 
HETATM    3  C3  UNL     1      26.107   0.073  52.327  1.00  0.00    -0.010 A 
HETATM    4  C4  UNL     1      24.935  -0.617  52.981  1.00  0.00     0.054 A 
HETATM    5  C5  UNL     1      25.205  -0.473  54.405  1.00  0.00    -0.052 A 
HETATM    6  C6  UNL     1      26.356   0.199  54.569  1.00  0.00     0.011 A 
HETATM    7  C7  UNL     1      24.744  -0.759  55.805  1.00  0.00     0.176 C 
HETATM    8  N1  UNL     1      23.572  -1.569  55.841  1.00  0.00    -0.310 N 
HETATM    9  N2  UNL     1      22.313  -1.441  55.253  1.00  0.00    -0.183 NA
HETATM   10  C8  UNL     1      21.820  -0.986  54.168  1.00  0.00     0.064 A 
HETATM   11  C9  UNL     1      20.364  -1.248  54.356  1.00  0.00     0.088 A 
HETATM   12  C10 UNL     1      19.639  -0.764  53.156  1.00  0.00    -0.021 A 
HETATM   13  C11 UNL     1      20.145  -0.194  52.080  1.00  0.00    -0.003 A 
HETATM   14  C12 UNL     1      21.589   0.002  52.029  1.00  0.00     0.010 A 
HETATM   15  C13 UNL     1      22.434  -0.360  53.003  1.00  0.00    -0.020 A 
HETATM   16  C14 UNL     1      23.717   0.048  52.460  1.00  0.00     0.092 C 
HETATM   17  H9  UNL     1      23.659  -2.449  56.430  1.00  0.00     0.182 HD
ENDROOT
BRANCH  16  18
HETATM   18  C15 UNL     1      23.920   1.540  52.520  1.00  0.00     0.087 A 
HETATM   19  N3  UNL     1      24.011   2.450  53.243  1.00  0.00    -0.221 NA
HETATM   20  C16 UNL     1      24.201   3.717  52.929  1.00  0.00     0.169 A 
HETATM   21  C17 UNL     1      24.305   4.004  51.577  1.00  0.00     0.109 A 
HETATM   22  S1  UNL     1      24.105   2.293  50.831  1.00  0.00    -0.081 SA
BRANCH  20  23
HETATM   23  O1  UNL     1      24.266   4.579  54.046  1.00  0.00    -0.344 OA
HETATM   24  H16 UNL     1      24.127   4.186  54.975  1.00  0.00     0.219 HD
ENDBRANCH  20  23
ENDBRANCH  16  18
TORSDOF 2
ENDMDL
MODEL 4
REMARK VINA RESULT:      -7.9      2.326      6.265
REMARK  2 active torsions:
REMARK  status: ('A' for Active; 'I' for Inactive)
REMARK    1  A    between atoms: C14_16  and  C15_17 
REMARK    2  A    between atoms: C16_19  and  O1_20 
ROOT
HETATM    1  C1  UNL     1      23.428  -0.029  53.573  1.00  0.00     0.048 C 
HETATM    2  C2  UNL     1      23.559   1.261  52.848  1.00  0.00    -0.065 A 
HETATM    3  C3  UNL     1      23.985   1.213  51.595  1.00  0.00    -0.010 A 
HETATM    4  C4  UNL     1      24.049   2.615  51.044  1.00  0.00     0.054 A 
HETATM    5  C5  UNL     1      23.603   3.442  52.157  1.00  0.00    -0.052 A 
HETATM    6  C6  UNL     1      23.319   2.651  53.205  1.00  0.00     0.011 A 
HETATM    7  C7  UNL     1      23.312   4.829  52.653  1.00  0.00     0.176 C 
HETATM    8  N1  UNL     1      23.455   5.816  51.636  1.00  0.00    -0.310 N 
HETATM    9  N2  UNL     1      24.502   6.142  50.773  1.00  0.00    -0.183 NA
HETATM   10  C8  UNL     1      25.435   5.536  50.149  1.00  0.00     0.064 A 
HETATM   11  C9  UNL     1      26.115   6.660  49.442  1.00  0.00     0.088 A 
HETATM   12  C10 UNL     1      27.247   6.106  48.659  1.00  0.00    -0.021 A 
HETATM   13  C11 UNL     1      27.629   4.848  48.566  1.00  0.00    -0.003 A 
HETATM   14  C12 UNL     1      26.871   3.850  49.312  1.00  0.00     0.010 A 
HETATM   15  C13 UNL     1      25.813   4.129  50.084  1.00  0.00    -0.020 A 
HETATM   16  C14 UNL     1      25.443   2.815  50.579  1.00  0.00     0.092 C 
HETATM   17  H9  UNL     1      22.603   6.435  51.494  1.00  0.00     0.182 HD
ENDROOT
BRANCH  16  18
HETATM   18  C15 UNL     1      26.383   2.316  51.646  1.00  0.00     0.087 A 
HETATM   19  N3  UNL     1      27.018   2.639  52.568  1.00  0.00    -0.221 NA
HETATM   20  C16 UNL     1      27.783   1.882  53.331  1.00  0.00     0.169 A 
HETATM   21  C17 UNL     1      27.839   0.537  52.997  1.00  0.00     0.109 A 
HETATM   22  S1  UNL     1      26.699   0.491  51.506  1.00  0.00    -0.081 SA
BRANCH  20  23
HETATM   23  O1  UNL     1      28.425   2.584  54.374  1.00  0.00    -0.344 OA
HETATM   24  H16 UNL     1      29.249   3.138  54.154  1.00  0.00     0.219 HD
ENDBRANCH  20  23
ENDBRANCH  16  18
TORSDOF 2
ENDMDL
MODEL 5
REMARK VINA RESULT:      -7.5      1.787      2.305
REMARK  2 active torsions:
REMARK  status: ('A' for Active; 'I' for Inactive)
REMARK    1  A    between atoms: C14_16  and  C15_17 
REMARK    2  A    between atoms: C16_19  and  O1_20 
ROOT
HETATM    1  C1  UNL     1      27.094   4.400  48.963  1.00  0.00     0.048 C 
HETATM    2  C2  UNL     1      26.412   3.412  49.838  1.00  0.00    -0.065 A 
HETATM    3  C3  UNL     1      25.252   2.930  49.420  1.00  0.00    -0.010 A 
HETATM    4  C4  UNL     1      24.728   1.952  50.442  1.00  0.00     0.054 A 
HETATM    5  C5  UNL     1      25.752   1.958  51.477  1.00  0.00    -0.052 A 
HETATM    6  C6  UNL     1      26.730   2.808  51.123  1.00  0.00     0.011 A 
HETATM    7  C7  UNL     1      26.203   1.410  52.801  1.00  0.00     0.176 C 
HETATM    8  N1  UNL     1      25.335   0.396  53.298  1.00  0.00    -0.310 N 
HETATM    9  N2  UNL     1      23.960   0.360  53.539  1.00  0.00    -0.183 NA
HETATM   10  C8  UNL     1      22.899   0.851  53.029  1.00  0.00     0.064 A 
HETATM   11  C9  UNL     1      21.841   0.296  53.923  1.00  0.00     0.088 A 
HETATM   12  C10 UNL     1      20.523   0.787  53.453  1.00  0.00    -0.021 A 
HETATM   13  C11 UNL     1      20.272   1.578  52.428  1.00  0.00    -0.003 A 
HETATM   14  C12 UNL     1      21.404   2.047  51.637  1.00  0.00     0.010 A 
HETATM   15  C13 UNL     1      22.680   1.728  51.884  1.00  0.00    -0.020 A 
HETATM   16  C14 UNL     1      23.382   2.438  50.830  1.00  0.00     0.092 C 
HETATM   17  H9  UNL     1      25.814  -0.521  53.538  1.00  0.00     0.182 HD
ENDROOT
BRANCH  16  18
HETATM   18  C15 UNL     1      23.461   3.920  51.088  1.00  0.00     0.087 A 
HETATM   19  N3  UNL     1      23.930   4.733  51.778  1.00  0.00    -0.221 NA
HETATM   20  C16 UNL     1      23.773   6.041  51.713  1.00  0.00     0.169 A 
HETATM   21  C17 UNL     1      22.949   6.509  50.701  1.00  0.00     0.109 A 
HETATM   22  S1  UNL     1      22.443   4.898  49.879  1.00  0.00    -0.081 SA
BRANCH  20  23
HETATM   23  O1  UNL     1      24.484   6.753  52.704  1.00  0.00    -0.344 OA
HETATM   24  H16 UNL     1      25.064   7.539  52.418  1.00  0.00     0.219 HD
ENDBRANCH  20  23
ENDBRANCH  16  18
TORSDOF 2
ENDMDL
MODEL 6
REMARK VINA RESULT:      -7.5      2.891      4.874
REMARK  2 active torsions:
REMARK  status: ('A' for Active; 'I' for Inactive)
REMARK    1  A    between atoms: C14_16  and  C15_17 
REMARK    2  A    between atoms: C16_19  and  O1_20 
ROOT
HETATM    1  C1  UNL     1      19.033   3.608  51.549  1.00  0.00     0.048 C 
HETATM    2  C2  UNL     1      20.096   2.744  52.125  1.00  0.00    -0.065 A 
HETATM    3  C3  UNL     1      21.247   3.322  52.432  1.00  0.00    -0.010 A 
HETATM    4  C4  UNL     1      22.183   2.283  52.997  1.00  0.00     0.054 A 
HETATM    5  C5  UNL     1      21.396   1.057  52.961  1.00  0.00    -0.052 A 
HETATM    6  C6  UNL     1      20.183   1.330  52.453  1.00  0.00     0.011 A 
HETATM    7  C7  UNL     1      21.349  -0.414  53.256  1.00  0.00     0.176 C 
HETATM    8  N1  UNL     1      22.528  -0.879  53.908  1.00  0.00    -0.310 N 
HETATM    9  N2  UNL     1      23.884  -0.795  53.588  1.00  0.00    -0.183 NA
HETATM   10  C8  UNL     1      24.670   0.032  53.018  1.00  0.00     0.064 A 
HETATM   11  C9  UNL     1      25.978  -0.679  53.099  1.00  0.00     0.088 A 
HETATM   12  C10 UNL     1      27.016   0.171  52.464  1.00  0.00    -0.021 A 
HETATM   13  C11 UNL     1      26.863   1.357  51.911  1.00  0.00    -0.003 A 
HETATM   14  C12 UNL     1      25.524   1.936  51.902  1.00  0.00     0.010 A 
HETATM   15  C13 UNL     1      24.442   1.342  52.419  1.00  0.00    -0.020 A 
HETATM   16  C14 UNL     1      23.402   2.319  52.153  1.00  0.00     0.092 C 
HETATM   17  H9  UNL     1      22.356  -1.395  54.821  1.00  0.00     0.182 HD
ENDROOT
BRANCH  16  18
HETATM   18  C15 UNL     1      22.985   2.338  50.706  1.00  0.00     0.087 A 
HETATM   19  N3  UNL     1      22.545   1.690  49.843  1.00  0.00    -0.221 NA
HETATM   20  C16 UNL     1      22.290   2.057  48.602  1.00  0.00     0.169 A 
HETATM   21  C17 UNL     1      22.581   3.375  48.282  1.00  0.00     0.109 A 
HETATM   22  S1  UNL     1      23.243   4.004  49.922  1.00  0.00    -0.081 SA
BRANCH  20  23
HETATM   23  O1  UNL     1      21.755   1.027  47.799  1.00  0.00    -0.344 OA
HETATM   24  H16 UNL     1      22.197   0.827  46.904  1.00  0.00     0.219 HD
ENDBRANCH  20  23
ENDBRANCH  16  18
TORSDOF 2
ENDMDL
MODEL 7
REMARK VINA RESULT:      -7.3      2.907      5.643
REMARK  2 active torsions:
REMARK  status: ('A' for Active; 'I' for Inactive)
REMARK    1  A    between atoms: C14_16  and  C15_17 
REMARK    2  A    between atoms: C16_19  and  O1_20 
ROOT
HETATM    1  C1  UNL     1      21.050   0.599  53.562  1.00  0.00     0.048 C 
HETATM    2  C2  UNL     1      22.340   1.159  53.082  1.00  0.00    -0.065 A 
HETATM    3  C3  UNL     1      22.424   2.475  52.966  1.00  0.00    -0.010 A 
HETATM    4  C4  UNL     1      23.801   2.838  52.469  1.00  0.00     0.054 A 
HETATM    5  C5  UNL     1      24.465   1.549  52.328  1.00  0.00    -0.052 A 
HETATM    6  C6  UNL     1      23.612   0.575  52.685  1.00  0.00     0.011 A 
HETATM    7  C7  UNL     1      25.721   0.818  51.951  1.00  0.00     0.176 C 
HETATM    8  N1  UNL     1      26.795   1.700  51.637  1.00  0.00    -0.310 N 
HETATM    9  N2  UNL     1      26.918   2.761  50.738  1.00  0.00    -0.183 NA
HETATM   10  C8  UNL     1      26.179   3.683  50.259  1.00  0.00     0.064 A 
HETATM   11  C9  UNL     1      27.123   4.393  49.347  1.00  0.00     0.088 A 
HETATM   12  C10 UNL     1      26.397   5.514  48.700  1.00  0.00    -0.021 A 
HETATM   13  C11 UNL     1      25.138   5.867  48.866  1.00  0.00    -0.003 A 
HETATM   14  C12 UNL     1      24.328   5.082  49.791  1.00  0.00     0.010 A 
HETATM   15  C13 UNL     1      24.779   4.028  50.481  1.00  0.00    -0.020 A 
HETATM   16  C14 UNL     1      23.601   3.626  51.229  1.00  0.00     0.092 C 
HETATM   17  H9  UNL     1      27.686   1.529  52.189  1.00  0.00     0.182 HD
ENDROOT
BRANCH  16  18
HETATM   18  C15 UNL     1      22.585   2.921  50.368  1.00  0.00     0.087 A 
HETATM   19  N3  UNL     1      22.425   2.021  49.645  1.00  0.00    -0.221 NA
HETATM   20  C16 UNL     1      21.318   1.672  49.020  1.00  0.00     0.169 A 
HETATM   21  C17 UNL     1      20.207   2.470  49.250  1.00  0.00     0.109 A 
HETATM   22  S1  UNL     1      20.920   3.742  50.433  1.00  0.00    -0.081 SA
BRANCH  20  23
HETATM   23  O1  UNL     1      21.456   0.524  48.209  1.00  0.00    -0.344 OA
HETATM   24  H16 UNL     1      21.410   0.633  47.198  1.00  0.00     0.219 HD
ENDBRANCH  20  23
ENDBRANCH  16  18
TORSDOF 2
ENDMDL
MODEL 8
REMARK VINA RESULT:      -7.3      3.022      5.715
REMARK  2 active torsions:
REMARK  status: ('A' for Active; 'I' for Inactive)
REMARK    1  A    between atoms: C14_16  and  C15_17 
REMARK    2  A    between atoms: C16_19  and  O1_20 
ROOT
HETATM    1  C1  UNL     1      24.370  -0.502  53.220  1.00  0.00     0.048 C 
HETATM    2  C2  UNL     1      24.643   0.861  52.697  1.00  0.00    -0.065 A 
HETATM    3  C3  UNL     1      23.996   1.869  53.262  1.00  0.00    -0.010 A 
HETATM    4  C4  UNL     1      24.410   3.156  52.592  1.00  0.00     0.054 A 
HETATM    5  C5  UNL     1      25.370   2.724  51.584  1.00  0.00    -0.052 A 
HETATM    6  C6  UNL     1      25.502   1.390  51.648  1.00  0.00     0.011 A 
HETATM    7  C7  UNL     1      26.300   3.135  50.480  1.00  0.00     0.176 C 
HETATM    8  N1  UNL     1      26.379   4.549  50.328  1.00  0.00    -0.310 N 
HETATM    9  N2  UNL     1      25.412   5.537  50.133  1.00  0.00    -0.183 NA
HETATM   10  C8  UNL     1      24.209   5.763  50.490  1.00  0.00     0.064 A 
HETATM   11  C9  UNL     1      23.929   7.068  49.825  1.00  0.00     0.088 A 
HETATM   12  C10 UNL     1      22.539   7.473  50.149  1.00  0.00    -0.021 A 
HETATM   13  C11 UNL     1      21.660   6.829  50.892  1.00  0.00    -0.003 A 
HETATM   14  C12 UNL     1      22.070   5.560  51.484  1.00  0.00     0.010 A 
HETATM   15  C13 UNL     1      23.278   5.008  51.321  1.00  0.00    -0.020 A 
HETATM   16  C14 UNL     1      23.162   3.787  52.099  1.00  0.00     0.092 C 
HETATM   17  H9  UNL     1      27.364   4.946  50.367  1.00  0.00     0.182 HD
ENDROOT
BRANCH  16  18
HETATM   18  C15 UNL     1      22.332   2.738  51.405  1.00  0.00     0.087 A 
HETATM   19  N3  UNL     1      22.233   2.109  50.429  1.00  0.00    -0.221 NA
HETATM   20  C16 UNL     1      21.313   1.212  50.134  1.00  0.00     0.169 A 
HETATM   21  C17 UNL     1      20.344   0.988  51.100  1.00  0.00     0.109 A 
HETATM   22  S1  UNL     1      20.894   2.180  52.441  1.00  0.00    -0.081 SA
BRANCH  20  23
HETATM   23  O1  UNL     1      21.475   0.623  48.860  1.00  0.00    -0.344 OA
HETATM   24  H16 UNL     1      21.615  -0.383  48.802  1.00  0.00     0.219 HD
ENDBRANCH  20  23
ENDBRANCH  16  18
TORSDOF 2
ENDMDL
MODEL 9
REMARK VINA RESULT:      -6.9      2.675      4.094
REMARK  2 active torsions:
REMARK  status: ('A' for Active; 'I' for Inactive)
REMARK    1  A    between atoms: C14_16  and  C15_17 
REMARK    2  A    between atoms: C16_19  and  O1_20 
ROOT
HETATM    1  C1  UNL     1      21.448   4.805  47.602  1.00  0.00     0.048 C 
HETATM    2  C2  UNL     1      22.667   4.295  48.280  1.00  0.00    -0.065 A 
HETATM    3  C3  UNL     1      22.705   3.004  48.569  1.00  0.00    -0.010 A 
HETATM    4  C4  UNL     1      24.015   2.691  49.249  1.00  0.00     0.054 A 
HETATM    5  C5  UNL     1      24.693   3.980  49.296  1.00  0.00    -0.052 A 
HETATM    6  C6  UNL     1      23.906   4.910  48.732  1.00  0.00     0.011 A 
HETATM    7  C7  UNL     1      25.922   4.738  49.708  1.00  0.00     0.176 C 
HETATM    8  N1  UNL     1      26.935   3.890  50.240  1.00  0.00    -0.310 N 
HETATM    9  N2  UNL     1      26.940   2.951  51.273  1.00  0.00    -0.183 NA
HETATM   10  C8  UNL     1      26.132   2.106  51.785  1.00  0.00     0.064 A 
HETATM   11  C9  UNL     1      26.959   1.506  52.871  1.00  0.00     0.088 A 
HETATM   12  C10 UNL     1      26.144   0.486  53.575  1.00  0.00    -0.021 A 
HETATM   13  C11 UNL     1      24.900   0.130  53.323  1.00  0.00    -0.003 A 
HETATM   14  C12 UNL     1      24.209   0.800  52.228  1.00  0.00     0.010 A 
HETATM   15  C13 UNL     1      24.755   1.752  51.462  1.00  0.00    -0.020 A 
HETATM   16  C14 UNL     1      23.670   2.070  50.550  1.00  0.00     0.092 C 
HETATM   17  H9  UNL     1      27.882   3.979  49.768  1.00  0.00     0.182 HD
ENDROOT
BRANCH  16  18
HETATM   18  C15 UNL     1      22.589   2.891  51.204  1.00  0.00     0.087 A 
HETATM   19  N3  UNL     1      21.436   3.001  51.331  1.00  0.00    -0.221 NA
HETATM   20  C16 UNL     1      20.781   3.906  52.032  1.00  0.00     0.169 A 
HETATM   21  C17 UNL     1      21.556   4.841  52.700  1.00  0.00     0.109 A 
HETATM   22  S1  UNL     1      23.283   4.285  52.218  1.00  0.00    -0.081 SA
BRANCH  20  23
HETATM   23  O1  UNL     1      19.377   3.764  51.980  1.00  0.00    -0.344 OA
HETATM   24  H16 UNL     1      18.828   4.501  51.544  1.00  0.00     0.219 HD
ENDBRANCH  20  23
ENDBRANCH  16  18
TORSDOF 2
ENDMDL
