MODEL 1
REMARK VINA RESULT:      -7.4      0.000      0.000
REMARK  2 active torsions:
REMARK  status: ('A' for Active; 'I' for Inactive)
REMARK    1  A    between atoms: N1_1  and  C1_2 
REMARK    2  A    between atoms: N2_9  and  C6_10 
ROOT
HETATM    1  C6  UNL     1      25.342   2.484  52.313  1.00  0.00     0.119 C 
HETATM    2  N3  UNL     1      25.452   2.515  51.032  1.00  0.00    -0.270 NA
HETATM    3  C7  UNL     1      24.675   3.483  50.280  1.00  0.00     0.192 C 
HETATM    4  C8  UNL     1      23.484   2.812  49.757  1.00  0.00    -0.004 A 
HETATM    5  C9  UNL     1      23.375   2.449  48.432  1.00  0.00     0.012 A 
HETATM    6  C10 UNL     1      22.302   1.811  47.811  1.00  0.00     0.001 A 
HETATM    7  C11 UNL     1      21.252   1.532  48.664  1.00  0.00     0.003 A 
HETATM    8  C12 UNL     1      21.294   1.871  50.017  1.00  0.00     0.038 A 
HETATM    9  C13 UNL     1      22.399   2.504  50.551  1.00  0.00     0.084 A 
HETATM   10  O1  UNL     1      22.271   2.767  51.908  1.00  0.00    -0.304 OA
HETATM   11  C14 UNL     1      22.755   3.921  52.499  1.00  0.00     0.253 C 
HETATM   12  N4  UNL     1      23.802   4.092  53.205  1.00  0.00    -0.270 NA
HETATM   13  C15 UNL     1      24.732   3.028  53.532  1.00  0.00     0.228 C 
ENDROOT
BRANCH   1  14
HETATM   14  N2  UNL     1      26.237   1.433  52.654  1.00  0.00    -0.333 N 
HETATM   15  C1  UNL     1      27.431   1.810  53.388  1.00  0.00     0.346 C 
HETATM   16  C2  UNL     1      28.407   0.692  53.430  1.00  0.00     0.068 C 
HETATM   17  C3  UNL     1      28.091  -0.592  53.263  1.00  0.00     0.114 C 
HETATM   18  F1  UNL     1      29.034  -1.552  53.316  1.00  0.00    -0.209 F 
HETATM   19  C4  UNL     1      26.672  -0.962  53.012  1.00  0.00     0.162 C 
HETATM   20 CL1  UNL     1      26.686  -2.454  52.015  1.00  0.00    -0.116 Cl
HETATM   21  C5  UNL     1      25.909   0.081  52.256  1.00  0.00     0.154 C 
BRANCH  15  22
HETATM   22  N1  UNL     1      28.087   2.949  52.782  1.00  0.00     0.105 N 
HETATM   23  H1  UNL     1      27.461   3.562  52.238  1.00  0.00     0.315 HD
HETATM   24  H2  UNL     1      28.941   2.633  52.277  1.00  0.00     0.315 HD
ENDBRANCH  15  22
ENDBRANCH   1  14
TORSDOF 2
ENDMDL
MODEL 2
REMARK VINA RESULT:      -7.2      3.862      6.425
REMARK  2 active torsions:
REMARK  status: ('A' for Active; 'I' for Inactive)
REMARK    1  A    between atoms: N1_1  and  C1_2 
REMARK    2  A    between atoms: N2_9  and  C6_10 
ROOT
HETATM    1  C6  UNL     1      23.609   0.923  52.856  1.00  0.00     0.119 C 
HETATM    2  N3  UNL     1      24.668   0.827  52.132  1.00  0.00    -0.270 NA
HETATM    3  C7  UNL     1      25.485  -0.367  52.232  1.00  0.00     0.192 C 
HETATM    4  C8  UNL     1      26.611  -0.081  53.124  1.00  0.00    -0.004 A 
HETATM    5  C9  UNL     1      27.884   0.140  52.643  1.00  0.00     0.012 A 
HETATM    6  C10 UNL     1      29.034   0.418  53.380  1.00  0.00     0.001 A 
HETATM    7  C11 UNL     1      28.822   0.467  54.744  1.00  0.00     0.003 A 
HETATM    8  C12 UNL     1      27.560   0.253  55.300  1.00  0.00     0.038 A 
HETATM    9  C13 UNL     1      26.472  -0.018  54.495  1.00  0.00     0.084 A 
HETATM   10  O1  UNL     1      25.299  -0.204  55.212  1.00  0.00    -0.304 OA
HETATM   11  C14 UNL     1      24.341  -1.139  54.858  1.00  0.00     0.253 C 
HETATM   12  N4  UNL     1      23.219  -0.968  54.278  1.00  0.00    -0.270 NA
HETATM   13  C15 UNL     1      22.719   0.328  53.860  1.00  0.00     0.228 C 
ENDROOT
BRANCH   1  14
HETATM   14  N2  UNL     1      23.111   2.198  52.473  1.00  0.00    -0.333 N 
HETATM   15  C1  UNL     1      24.072   3.285  52.431  1.00  0.00     0.346 C 
HETATM   16  C2  UNL     1      23.390   4.597  52.302  1.00  0.00     0.068 C 
HETATM   17  C3  UNL     1      22.158   4.763  51.822  1.00  0.00     0.114 C 
HETATM   18  F1  UNL     1      21.605   5.988  51.735  1.00  0.00    -0.209 F 
HETATM   19  C4  UNL     1      21.387   3.571  51.377  1.00  0.00     0.162 C 
HETATM   20 CL1  UNL     1      19.650   3.942  51.634  1.00  0.00    -0.116 Cl
HETATM   21  C5  UNL     1      21.705   2.332  52.155  1.00  0.00     0.154 C 
BRANCH  15  22
HETATM   22  N1  UNL     1      24.882   3.321  53.629  1.00  0.00     0.105 N 
HETATM   23  H1  UNL     1      24.487   2.801  54.427  1.00  0.00     0.315 HD
HETATM   24  H2  UNL     1      25.156   4.304  53.837  1.00  0.00     0.315 HD
ENDBRANCH  15  22
ENDBRANCH   1  14
TORSDOF 2
ENDMDL
MODEL 3
REMARK VINA RESULT:      -7.1      2.496      3.643
REMARK  2 active torsions:
REMARK  status: ('A' for Active; 'I' for Inactive)
REMARK    1  A    between atoms: N1_1  and  C1_2 
REMARK    2  A    between atoms: N2_9  and  C6_10 
ROOT
HETATM    1  C6  UNL     1      25.448   2.923  50.516  1.00  0.00     0.119 C 
HETATM    2  N3  UNL     1      24.190   2.905  50.248  1.00  0.00    -0.270 NA
HETATM    3  C7  UNL     1      23.690   3.717  49.156  1.00  0.00     0.192 C 
HETATM    4  C8  UNL     1      23.140   4.954  49.715  1.00  0.00    -0.004 A 
HETATM    5  C9  UNL     1      21.782   5.163  49.826  1.00  0.00     0.012 A 
HETATM    6  C10 UNL     1      21.135   6.288  50.335  1.00  0.00     0.001 A 
HETATM    7  C11 UNL     1      21.996   7.278  50.764  1.00  0.00     0.003 A 
HETATM    8  C12 UNL     1      23.382   7.135  50.681  1.00  0.00     0.038 A 
HETATM    9  C13 UNL     1      23.941   5.984  50.162  1.00  0.00     0.084 A 
HETATM   10  O1  UNL     1      25.329   6.010  50.154  1.00  0.00    -0.304 OA
HETATM   11  C14 UNL     1      26.085   5.467  49.131  1.00  0.00     0.253 C 
HETATM   12  N4  UNL     1      26.732   4.369  49.097  1.00  0.00    -0.270 NA
HETATM   13  C15 UNL     1      26.789   3.435  50.206  1.00  0.00     0.228 C 
ENDROOT
BRANCH   1  14
HETATM   14  N2  UNL     1      25.523   2.024  51.614  1.00  0.00    -0.333 N 
HETATM   15  C1  UNL     1      24.548   2.210  52.673  1.00  0.00     0.346 C 
HETATM   16  C2  UNL     1      24.904   1.413  53.874  1.00  0.00     0.068 C 
HETATM   17  C3  UNL     1      25.693   0.339  53.860  1.00  0.00     0.114 C 
HETATM   18  F1  UNL     1      25.971  -0.334  54.993  1.00  0.00    -0.209 F 
HETATM   19  C4  UNL     1      26.273  -0.117  52.568  1.00  0.00     0.162 C 
HETATM   20 CL1  UNL     1      27.840  -0.906  52.944  1.00  0.00    -0.116 Cl
HETATM   21  C5  UNL     1      26.547   1.001  51.610  1.00  0.00     0.154 C 
BRANCH  15  22
HETATM   22  N1  UNL     1      24.457   3.598  53.071  1.00  0.00     0.105 N 
HETATM   23  H1  UNL     1      23.920   4.194  52.422  1.00  0.00     0.315 HD
HETATM   24  H2  UNL     1      25.405   3.955  53.314  1.00  0.00     0.315 HD
ENDBRANCH  15  22
ENDBRANCH   1  14
TORSDOF 2
ENDMDL
MODEL 4
REMARK VINA RESULT:      -7.0      9.104     11.004
REMARK  2 active torsions:
REMARK  status: ('A' for Active; 'I' for Inactive)
REMARK    1  A    between atoms: N1_1  and  C1_2 
REMARK    2  A    between atoms: N2_9  and  C6_10 
ROOT
HETATM    1  C6  UNL     1      31.645   8.423  47.849  1.00  0.00     0.119 C 
HETATM    2  N3  UNL     1      32.271   7.687  48.698  1.00  0.00    -0.270 NA
HETATM    3  C7  UNL     1      33.714   7.574  48.605  1.00  0.00     0.192 C 
HETATM    4  C8  UNL     1      34.035   6.331  47.901  1.00  0.00    -0.004 A 
HETATM    5  C9  UNL     1      34.496   5.215  48.567  1.00  0.00     0.012 A 
HETATM    6  C10 UNL     1      34.836   3.979  48.019  1.00  0.00     0.001 A 
HETATM    7  C11 UNL     1      34.676   3.916  46.649  1.00  0.00     0.003 A 
HETATM    8  C12 UNL     1      34.215   5.006  45.911  1.00  0.00     0.038 A 
HETATM    9  C13 UNL     1      33.900   6.196  46.535  1.00  0.00     0.084 A 
HETATM   10  O1  UNL     1      33.458   7.173  45.653  1.00  0.00    -0.304 OA
HETATM   11  C14 UNL     1      33.778   8.512  45.790  1.00  0.00     0.253 C 
HETATM   12  N4  UNL     1      33.064   9.474  46.227  1.00  0.00    -0.270 NA
HETATM   13  C15 UNL     1      31.697   9.317  46.686  1.00  0.00     0.228 C 
ENDROOT
BRANCH   1  14
HETATM   14  N2  UNL     1      30.297   8.269  48.273  1.00  0.00    -0.333 N 
HETATM   15  C1  UNL     1      29.691   9.409  48.938  1.00  0.00     0.346 C 
HETATM   16  C2  UNL     1      28.406   9.033  49.578  1.00  0.00     0.068 C 
HETATM   17  C3  UNL     1      27.665   7.982  49.224  1.00  0.00     0.114 C 
HETATM   18  F1  UNL     1      26.508   7.704  49.853  1.00  0.00    -0.209 F 
HETATM   19  C4  UNL     1      28.134   7.106  48.116  1.00  0.00     0.162 C 
HETATM   20 CL1  UNL     1      27.506   5.458  48.448  1.00  0.00    -0.116 Cl
HETATM   21  C5  UNL     1      29.625   7.012  48.021  1.00  0.00     0.154 C 
BRANCH  15  22
HETATM   22  N1  UNL     1      30.558   9.944  49.965  1.00  0.00     0.105 N 
HETATM   23  H1  UNL     1      31.196  10.688  49.640  1.00  0.00     0.315 HD
HETATM   24  H2  UNL     1      31.020   9.163  50.476  1.00  0.00     0.315 HD
ENDBRANCH  15  22
ENDBRANCH   1  14
TORSDOF 2
ENDMDL
MODEL 5
REMARK VINA RESULT:      -7.0      1.749      1.999
REMARK  2 active torsions:
REMARK  status: ('A' for Active; 'I' for Inactive)
REMARK    1  A    between atoms: N1_1  and  C1_2 
REMARK    2  A    between atoms: N2_9  and  C6_10 
ROOT
HETATM    1  C6  UNL     1      23.699   1.158  53.040  1.00  0.00     0.119 C 
HETATM    2  N3  UNL     1      23.961   2.144  52.258  1.00  0.00    -0.270 NA
HETATM    3  C7  UNL     1      22.869   2.953  51.752  1.00  0.00     0.192 C 
HETATM    4  C8  UNL     1      22.543   2.494  50.400  1.00  0.00    -0.004 A 
HETATM    5  C9  UNL     1      22.919   3.203  49.280  1.00  0.00     0.012 A 
HETATM    6  C10 UNL     1      22.672   2.878  47.946  1.00  0.00     0.001 A 
HETATM    7  C11 UNL     1      21.966   1.703  47.783  1.00  0.00     0.003 A 
HETATM    8  C12 UNL     1      21.552   0.935  48.872  1.00  0.00     0.038 A 
HETATM    9  C13 UNL     1      21.840   1.332  50.163  1.00  0.00     0.084 A 
HETATM   10  O1  UNL     1      21.355   0.453  51.122  1.00  0.00    -0.304 OA
HETATM   11  C14 UNL     1      20.834   0.874  52.332  1.00  0.00     0.253 C 
HETATM   12  N4  UNL     1      21.363   0.857  53.492  1.00  0.00    -0.270 NA
HETATM   13  C15 UNL     1      22.699   0.358  53.758  1.00  0.00     0.228 C 
ENDROOT
BRANCH   1  14
HETATM   14  N2  UNL     1      24.999   0.642  53.301  1.00  0.00    -0.333 N 
HETATM   15  C1  UNL     1      25.885   1.481  54.087  1.00  0.00     0.346 C 
HETATM   16  C2  UNL     1      27.278   0.973  54.045  1.00  0.00     0.068 C 
HETATM   17  C3  UNL     1      27.615  -0.284  53.756  1.00  0.00     0.114 C 
HETATM   18  F1  UNL     1      28.904  -0.672  53.738  1.00  0.00    -0.209 F 
HETATM   19  C4  UNL     1      26.543  -1.268  53.448  1.00  0.00     0.162 C 
HETATM   20 CL1  UNL     1      27.245  -2.475  52.320  1.00  0.00    -0.116 Cl
HETATM   21  C5  UNL     1      25.351  -0.660  52.776  1.00  0.00     0.154 C 
BRANCH  15  22
HETATM   22  N1  UNL     1      25.894   2.843  53.599  1.00  0.00     0.105 N 
HETATM   23  H1  UNL     1      25.080   3.093  53.015  1.00  0.00     0.315 HD
HETATM   24  H2  UNL     1      26.820   3.057  53.175  1.00  0.00     0.315 HD
ENDBRANCH  15  22
ENDBRANCH   1  14
TORSDOF 2
ENDMDL
MODEL 6
REMARK VINA RESULT:      -7.0      3.171      4.753
REMARK  2 active torsions:
REMARK  status: ('A' for Active; 'I' for Inactive)
REMARK    1  A    between atoms: N1_1  and  C1_2 
REMARK    2  A    between atoms: N2_9  and  C6_10 
ROOT
HETATM    1  C6  UNL     1      22.011   1.620  51.326  1.00  0.00     0.119 C 
HETATM    2  N3  UNL     1      22.073   2.777  51.884  1.00  0.00    -0.270 NA
HETATM    3  C7  UNL     1      21.754   3.956  51.102  1.00  0.00     0.192 C 
HETATM    4  C8  UNL     1      23.007   4.559  50.644  1.00  0.00    -0.004 A 
HETATM    5  C9  UNL     1      23.521   5.700  51.223  1.00  0.00     0.012 A 
HETATM    6  C10 UNL     1      24.695   6.370  50.883  1.00  0.00     0.001 A 
HETATM    7  C11 UNL     1      25.387   5.785  49.841  1.00  0.00     0.003 A 
HETATM    8  C12 UNL     1      24.926   4.630  49.209  1.00  0.00     0.038 A 
HETATM    9  C13 UNL     1      23.750   4.029  49.610  1.00  0.00     0.084 A 
HETATM   10  O1  UNL     1      23.441   2.893  48.874  1.00  0.00    -0.304 OA
HETATM   11  C14 UNL     1      22.148   2.557  48.516  1.00  0.00     0.253 C 
HETATM   12  N4  UNL     1      21.371   1.679  49.016  1.00  0.00    -0.270 NA
HETATM   13  C15 UNL     1      21.738   0.820  50.126  1.00  0.00     0.228 C 
ENDROOT
BRANCH   1  14
HETATM   14  N2  UNL     1      22.385   0.762  52.397  1.00  0.00    -0.333 N 
HETATM   15  C1  UNL     1      21.309   0.053  53.066  1.00  0.00     0.346 C 
HETATM   16  C2  UNL     1      21.784  -0.572  54.325  1.00  0.00     0.068 C 
HETATM   17  C3  UNL     1      23.057  -0.868  54.588  1.00  0.00     0.114 C 
HETATM   18  F1  UNL     1      23.412  -1.436  55.756  1.00  0.00    -0.209 F 
HETATM   19  C4  UNL     1      24.097  -0.559  53.570  1.00  0.00     0.162 C 
HETATM   20 CL1  UNL     1      25.622  -0.233  54.458  1.00  0.00    -0.116 Cl
HETATM   21  C5  UNL     1      23.784   0.652  52.747  1.00  0.00     0.154 C 
BRANCH  15  22
HETATM   22  N1  UNL     1      20.215   0.940  53.395  1.00  0.00     0.105 N 
HETATM   23  H1  UNL     1      19.871   0.852  54.364  1.00  0.00     0.315 HD
HETATM   24  H2  UNL     1      19.480   0.878  52.661  1.00  0.00     0.315 HD
ENDBRANCH  15  22
ENDBRANCH   1  14
TORSDOF 2
ENDMDL
MODEL 7
REMARK VINA RESULT:      -6.8      5.059      7.078
REMARK  2 active torsions:
REMARK  status: ('A' for Active; 'I' for Inactive)
REMARK    1  A    between atoms: N1_1  and  C1_2 
REMARK    2  A    between atoms: N2_9  and  C6_10 
ROOT
HETATM    1  C6  UNL     1      24.987   5.160  49.062  1.00  0.00     0.119 C 
HETATM    2  N3  UNL     1      26.096   4.633  49.446  1.00  0.00    -0.270 NA
HETATM    3  C7  UNL     1      26.175   3.194  49.607  1.00  0.00     0.192 C 
HETATM    4  C8  UNL     1      26.003   2.879  51.027  1.00  0.00    -0.004 A 
HETATM    5  C9  UNL     1      27.066   2.521  51.829  1.00  0.00     0.012 A 
HETATM    6  C10 UNL     1      27.037   2.198  53.185  1.00  0.00     0.001 A 
HETATM    7  C11 UNL     1      25.775   2.258  53.743  1.00  0.00     0.003 A 
HETATM    8  C12 UNL     1      24.654   2.613  52.991  1.00  0.00     0.038 A 
HETATM    9  C13 UNL     1      24.773   2.918  51.651  1.00  0.00     0.084 A 
HETATM   10  O1  UNL     1      23.561   3.247  51.059  1.00  0.00    -0.304 OA
HETATM   11  C14 UNL     1      23.229   2.877  49.767  1.00  0.00     0.253 C 
HETATM   12  N4  UNL     1      23.223   3.576  48.701  1.00  0.00    -0.270 NA
HETATM   13  C15 UNL     1      23.587   4.979  48.658  1.00  0.00     0.228 C 
ENDROOT
BRANCH   1  14
HETATM   14  N2  UNL     1      25.319   6.541  49.029  1.00  0.00    -0.333 N 
HETATM   15  C1  UNL     1      25.723   7.142  50.288  1.00  0.00     0.346 C 
HETATM   16  C2  UNL     1      25.763   8.622  50.184  1.00  0.00     0.068 C 
HETATM   17  C3  UNL     1      25.886   9.297  49.041  1.00  0.00     0.114 C 
HETATM   18  F1  UNL     1      25.915  10.642  49.027  1.00  0.00    -0.209 F 
HETATM   19  C4  UNL     1      25.993   8.541  47.763  1.00  0.00     0.162 C 
HETATM   20 CL1  UNL     1      25.286   9.578  46.480  1.00  0.00    -0.116 Cl
HETATM   21  C5  UNL     1      25.235   7.250  47.770  1.00  0.00     0.154 C 
BRANCH  15  22
HETATM   22  N1  UNL     1      24.811   6.796  51.356  1.00  0.00     0.105 N 
HETATM   23  H1  UNL     1      25.208   6.889  52.304  1.00  0.00     0.315 HD
HETATM   24  H2  UNL     1      24.369   5.875  51.154  1.00  0.00     0.315 HD
ENDBRANCH  15  22
ENDBRANCH   1  14
TORSDOF 2
ENDMDL
MODEL 8
REMARK VINA RESULT:      -6.8      2.173      2.974
REMARK  2 active torsions:
REMARK  status: ('A' for Active; 'I' for Inactive)
REMARK    1  A    between atoms: N1_1  and  C1_2 
REMARK    2  A    between atoms: N2_9  and  C6_10 
ROOT
HETATM    1  C6  UNL     1      23.979   2.725  51.475  1.00  0.00     0.119 C 
HETATM    2  N3  UNL     1      23.410   1.868  50.702  1.00  0.00    -0.270 NA
HETATM    3  C7  UNL     1      22.376   2.318  49.790  1.00  0.00     0.192 C 
HETATM    4  C8  UNL     1      21.073   2.033  50.393  1.00  0.00    -0.004 A 
HETATM    5  C9  UNL     1      20.287   0.983  49.968  1.00  0.00     0.012 A 
HETATM    6  C10 UNL     1      19.035   0.607  50.454  1.00  0.00     0.001 A 
HETATM    7  C11 UNL     1      18.574   1.410  51.478  1.00  0.00     0.003 A 
HETATM    8  C12 UNL     1      19.315   2.490  51.958  1.00  0.00     0.038 A 
HETATM    9  C13 UNL     1      20.549   2.792  51.418  1.00  0.00     0.084 A 
HETATM   10  O1  UNL     1      21.147   3.895  52.014  1.00  0.00    -0.304 OA
HETATM   11  C14 UNL     1      21.889   4.823  51.304  1.00  0.00     0.253 C 
HETATM   12  N4  UNL     1      23.154   4.964  51.232  1.00  0.00    -0.270 NA
HETATM   13  C15 UNL     1      24.099   4.115  51.933  1.00  0.00     0.228 C 
ENDROOT
BRANCH   1  14
HETATM   14  N2  UNL     1      24.900   1.908  52.185  1.00  0.00    -0.333 N 
HETATM   15  C1  UNL     1      24.388   0.653  52.705  1.00  0.00     0.346 C 
HETATM   16  C2  UNL     1      25.346   0.037  53.656  1.00  0.00     0.068 C 
HETATM   17  C3  UNL     1      26.653   0.301  53.688  1.00  0.00     0.114 C 
HETATM   18  F1  UNL     1      27.461  -0.299  54.581  1.00  0.00    -0.209 F 
HETATM   19  C4  UNL     1      27.218   1.276  52.717  1.00  0.00     0.162 C 
HETATM   20 CL1  UNL     1      28.636   2.043  53.507  1.00  0.00    -0.116 Cl
HETATM   21  C5  UNL     1      26.263   2.367  52.344  1.00  0.00     0.154 C 
BRANCH  15  22
HETATM   22  N1  UNL     1      23.132   0.841  53.399  1.00  0.00     0.105 N 
HETATM   23  H1  UNL     1      22.725   1.783  53.296  1.00  0.00     0.315 HD
HETATM   24  H2  UNL     1      23.222   0.507  54.381  1.00  0.00     0.315 HD
ENDBRANCH  15  22
ENDBRANCH   1  14
TORSDOF 2
ENDMDL
MODEL 9
REMARK VINA RESULT:      -6.8      8.063      9.905
REMARK  2 active torsions:
REMARK  status: ('A' for Active; 'I' for Inactive)
REMARK    1  A    between atoms: N1_1  and  C1_2 
REMARK    2  A    between atoms: N2_9  and  C6_10 
ROOT
HETATM    1  C6  UNL     1      29.531   8.497  48.192  1.00  0.00     0.119 C 
HETATM    2  N3  UNL     1      30.419   8.050  49.009  1.00  0.00    -0.270 NA
HETATM    3  C7  UNL     1      31.805   8.435  48.825  1.00  0.00     0.192 C 
HETATM    4  C8  UNL     1      32.494   7.353  48.119  1.00  0.00    -0.004 A 
HETATM    5  C9  UNL     1      33.347   6.487  48.769  1.00  0.00     0.012 A 
HETATM    6  C10 UNL     1      34.061   5.424  48.216  1.00  0.00     0.001 A 
HETATM    7  C11 UNL     1      33.856   5.262  46.861  1.00  0.00     0.003 A 
HETATM    8  C12 UNL     1      33.008   6.102  46.139  1.00  0.00     0.038 A 
HETATM    9  C13 UNL     1      32.338   7.134  46.766  1.00  0.00     0.084 A 
HETATM   10  O1  UNL     1      31.538   7.868  45.901  1.00  0.00    -0.304 OA
HETATM   11  C14 UNL     1      31.385   9.240  46.000  1.00  0.00     0.253 C 
HETATM   12  N4  UNL     1      30.410   9.914  46.468  1.00  0.00    -0.270 NA
HETATM   13  C15 UNL     1      29.208   9.314  47.016  1.00  0.00     0.228 C 
ENDROOT
BRANCH   1  14
HETATM   14  N2  UNL     1      28.344   7.906  48.703  1.00  0.00    -0.333 N 
HETATM   15  C1  UNL     1      27.442   8.782  49.429  1.00  0.00     0.346 C 
HETATM   16  C2  UNL     1      26.403   8.003  50.148  1.00  0.00     0.068 C 
HETATM   17  C3  UNL     1      26.031   6.764  49.825  1.00  0.00     0.114 C 
HETATM   18  F1  UNL     1      25.078   6.120  50.526  1.00  0.00    -0.209 F 
HETATM   19  C4  UNL     1      26.685   6.088  48.672  1.00  0.00     0.162 C 
HETATM   20 CL1  UNL     1      26.665   4.327  49.015  1.00  0.00    -0.116 Cl
HETATM   21  C5  UNL     1      28.112   6.496  48.474  1.00  0.00     0.154 C 
BRANCH  15  22
HETATM   22  N1  UNL     1      28.152   9.581  50.405  1.00  0.00     0.105 N 
HETATM   23  H1  UNL     1      27.561   9.953  51.164  1.00  0.00     0.315 HD
HETATM   24  H2  UNL     1      28.738  10.290  49.917  1.00  0.00     0.315 HD
ENDBRANCH  15  22
ENDBRANCH   1  14
TORSDOF 2
ENDMDL
