MODEL 1
REMARK VINA RESULT:      -8.0      0.000      0.000
REMARK  5 active torsions:
REMARK  status: ('A' for Active; 'I' for Inactive)
REMARK    1  A    between atoms: C3_4  and  C4_5 
REMARK    2  A    between atoms: C5_6  and  C6_7 
REMARK    3  A    between atoms: C6_7  and  N1_10 
REMARK    4  A    between atoms: N1_10  and  C8_11 
REMARK    5  A    between atoms: C11_14  and  N2_15 
ROOT
HETATM    1  C6  UNL     1      22.630  -0.026  53.573  1.00  0.00     0.140 C 
HETATM    2  C7  UNL     1      21.883  -1.071  54.324  1.00  0.00     0.420 C 
HETATM    3  O1  UNL     1      21.170  -1.862  54.956  1.00  0.00    -0.428 OA
ENDROOT
BRANCH   1   4
HETATM    4  C5  UNL     1      21.986   0.376  52.308  1.00  0.00     0.001 C 
HETATM    5  C4  UNL     1      22.303   1.145  51.282  1.00  0.00    -0.001 C 
BRANCH   5   6
HETATM    6  C3  UNL     1      23.341   2.005  50.745  1.00  0.00     0.014 C 
HETATM    7  C2  UNL     1      23.981   3.147  51.018  1.00  0.00    -0.015 C 
HETATM    8  C1  UNL     1      23.520   3.789  52.267  1.00  0.00     0.056 C 
HETATM    9 BR1  UNL     1      25.307   3.667  49.763  1.00  0.00    -0.056 Br
ENDBRANCH   5   6
ENDBRANCH   1   4
BRANCH   1  10
HETATM   10  N1  UNL     1      23.938  -0.612  53.274  1.00  0.00    -0.364 N 
HETATM   11  H9  UNL     1      24.168  -1.555  52.895  1.00  0.00     0.162 HD
BRANCH  10  12
HETATM   12  C8  UNL     1      25.247  -0.112  53.395  1.00  0.00     0.124 A 
HETATM   13  C9  UNL     1      26.244  -1.065  53.270  1.00  0.00     0.067 A 
HETATM   14  C10 UNL     1      27.587  -0.760  53.362  1.00  0.00     0.043 A 
HETATM   15  C11 UNL     1      28.584  -1.703  53.239  1.00  0.00     0.135 A 
HETATM   16  C13 UNL     1      27.912   0.559  53.588  1.00  0.00     0.089 A 
HETATM   17  N3  UNL     1      29.864  -1.292  53.346  1.00  0.00    -0.224 NA
HETATM   18  C12 UNL     1      30.210  -0.011  53.567  1.00  0.00     0.236 A 
HETATM   19  N4  UNL     1      29.211   0.913  53.687  1.00  0.00    -0.240 NA
HETATM   20  C14 UNL     1      26.902   1.519  53.713  1.00  0.00     0.151 A 
HETATM   21  N5  UNL     1      25.599   1.181  53.617  1.00  0.00    -0.241 NA
BRANCH  15  22
HETATM   22  N2  UNL     1      28.206  -3.059  53.004  1.00  0.00    -0.383 N 
HETATM   23  H11 UNL     1      28.219  -3.747  53.811  1.00  0.00     0.157 HD
HETATM   24  H12 UNL     1      27.890  -3.586  52.147  1.00  0.00     0.157 HD
ENDBRANCH  15  22
ENDBRANCH  10  12
ENDBRANCH   1  10
TORSDOF 5
ENDMDL
MODEL 2
REMARK VINA RESULT:      -7.8      1.665      2.238
REMARK  5 active torsions:
REMARK  status: ('A' for Active; 'I' for Inactive)
REMARK    1  A    between atoms: C3_4  and  C4_5 
REMARK    2  A    between atoms: C5_6  and  C6_7 
REMARK    3  A    between atoms: C6_7  and  N1_10 
REMARK    4  A    between atoms: N1_10  and  C8_11 
REMARK    5  A    between atoms: C11_14  and  N2_15 
ROOT
HETATM    1  C6  UNL     1      22.292  -0.107  53.407  1.00  0.00     0.140 C 
HETATM    2  C7  UNL     1      21.754  -1.185  54.279  1.00  0.00     0.420 C 
HETATM    3  O1  UNL     1      21.204  -2.017  55.013  1.00  0.00    -0.428 OA
ENDROOT
BRANCH   1   4
HETATM    4  C5  UNL     1      21.525   0.094  52.162  1.00  0.00     0.001 C 
HETATM    5  C4  UNL     1      21.654   0.831  51.074  1.00  0.00    -0.001 C 
BRANCH   5   6
HETATM    6  C3  UNL     1      22.502   1.813  50.424  1.00  0.00     0.014 C 
HETATM    7  C2  UNL     1      23.186   2.930  50.695  1.00  0.00    -0.015 C 
HETATM    8  C1  UNL     1      23.080   3.350  52.108  1.00  0.00     0.056 C 
HETATM    9 BR1  UNL     1      24.116   3.700  49.230  1.00  0.00    -0.056 Br
ENDBRANCH   5   6
ENDBRANCH   1   4
BRANCH   1  10
HETATM   10  N1  UNL     1      23.654  -0.518  53.063  1.00  0.00    -0.364 N 
HETATM   11  H9  UNL     1      23.979  -1.157  52.307  1.00  0.00     0.162 HD
BRANCH  10  12
HETATM   12  C8  UNL     1      24.906  -0.197  53.617  1.00  0.00     0.124 A 
HETATM   13  C9  UNL     1      25.591   0.809  52.955  1.00  0.00     0.067 A 
HETATM   14  C10 UNL     1      26.835   1.256  53.354  1.00  0.00     0.043 A 
HETATM   15  C11 UNL     1      27.522   2.255  52.699  1.00  0.00     0.135 A 
HETATM   16  C13 UNL     1      27.387   0.653  54.462  1.00  0.00     0.089 A 
HETATM   17  N3  UNL     1      28.730   2.612  53.177  1.00  0.00    -0.224 NA
HETATM   18  C12 UNL     1      29.295   2.040  54.257  1.00  0.00     0.236 A 
HETATM   19  N4  UNL     1      28.602   1.051  54.896  1.00  0.00    -0.240 NA
HETATM   20  C14 UNL     1      26.692  -0.362  55.128  1.00  0.00     0.151 A 
HETATM   21  N5  UNL     1      25.477  -0.772  54.707  1.00  0.00    -0.241 NA
BRANCH  15  22
HETATM   22  N2  UNL     1      26.914   2.856  51.556  1.00  0.00    -0.383 N 
HETATM   23  H11 UNL     1      27.515   3.091  50.714  1.00  0.00     0.157 HD
HETATM   24  H12 UNL     1      25.926   3.147  51.328  1.00  0.00     0.157 HD
ENDBRANCH  15  22
ENDBRANCH  10  12
ENDBRANCH   1  10
TORSDOF 5
ENDMDL
MODEL 3
REMARK VINA RESULT:      -7.7      2.473      3.665
REMARK  5 active torsions:
REMARK  status: ('A' for Active; 'I' for Inactive)
REMARK    1  A    between atoms: C3_4  and  C4_5 
REMARK    2  A    between atoms: C5_6  and  C6_7 
REMARK    3  A    between atoms: C6_7  and  N1_10 
REMARK    4  A    between atoms: N1_10  and  C8_11 
REMARK    5  A    between atoms: C11_14  and  N2_15 
ROOT
HETATM    1  C6  UNL     1      24.192   3.651  52.034  1.00  0.00     0.140 C 
HETATM    2  C7  UNL     1      22.765   4.019  52.233  1.00  0.00     0.420 C 
HETATM    3  O1  UNL     1      21.587   4.396  52.300  1.00  0.00    -0.428 OA
ENDROOT
BRANCH   1   4
HETATM    4  C5  UNL     1      24.464   2.985  50.745  1.00  0.00     0.001 C 
HETATM    5  C4  UNL     1      25.321   3.147  49.753  1.00  0.00    -0.001 C 
BRANCH   5   6
HETATM    6  C3  UNL     1      26.430   3.960  49.291  1.00  0.00     0.014 C 
HETATM    7  C2  UNL     1      26.696   5.199  48.863  1.00  0.00    -0.015 C 
HETATM    8  C1  UNL     1      25.504   6.073  48.831  1.00  0.00     0.056 C 
HETATM    9 BR1  UNL     1      28.507   5.541  48.408  1.00  0.00    -0.056 Br
ENDBRANCH   5   6
ENDBRANCH   1   4
BRANCH   1  10
HETATM   10  N1  UNL     1      24.519   2.727  53.122  1.00  0.00    -0.364 N 
HETATM   11  H9  UNL     1      24.193   2.732  54.112  1.00  0.00     0.162 HD
BRANCH  10  12
HETATM   12  C8  UNL     1      25.340   1.588  53.180  1.00  0.00     0.124 A 
HETATM   13  C9  UNL     1      26.685   1.854  53.376  1.00  0.00     0.067 A 
HETATM   14  C10 UNL     1      27.641   0.861  53.458  1.00  0.00     0.043 A 
HETATM   15  C11 UNL     1      28.981   1.119  53.652  1.00  0.00     0.135 A 
HETATM   16  C13 UNL     1      27.202  -0.438  53.333  1.00  0.00     0.089 A 
HETATM   17  N3  UNL     1      29.826   0.070  53.716  1.00  0.00    -0.224 NA
HETATM   18  C12 UNL     1      29.425  -1.209  53.598  1.00  0.00     0.236 A 
HETATM   19  N4  UNL     1      28.093  -1.449  53.405  1.00  0.00    -0.240 NA
HETATM   20  C14 UNL     1      25.842  -0.703  53.135  1.00  0.00     0.151 A 
HETATM   21  N5  UNL     1      24.937   0.296  53.062  1.00  0.00    -0.241 NA
BRANCH  15  22
HETATM   22  N2  UNL     1      29.396   2.478  53.778  1.00  0.00    -0.383 N 
HETATM   23  H11 UNL     1      29.770   2.986  52.924  1.00  0.00     0.157 HD
HETATM   24  H12 UNL     1      29.422   3.158  54.584  1.00  0.00     0.157 HD
ENDBRANCH  15  22
ENDBRANCH  10  12
ENDBRANCH   1  10
TORSDOF 5
ENDMDL
MODEL 4
REMARK VINA RESULT:      -7.3      1.465      1.842
REMARK  5 active torsions:
REMARK  status: ('A' for Active; 'I' for Inactive)
REMARK    1  A    between atoms: C3_4  and  C4_5 
REMARK    2  A    between atoms: C5_6  and  C6_7 
REMARK    3  A    between atoms: C6_7  and  N1_10 
REMARK    4  A    between atoms: N1_10  and  C8_11 
REMARK    5  A    between atoms: C11_14  and  N2_15 
ROOT
HETATM    1  C6  UNL     1      22.778   1.748  52.278  1.00  0.00     0.140 C 
HETATM    2  C7  UNL     1      21.499   1.290  52.884  1.00  0.00     0.420 C 
HETATM    3  O1  UNL     1      20.382   1.006  53.337  1.00  0.00    -0.428 OA
ENDROOT
BRANCH   1   4
HETATM    4  C5  UNL     1      22.757   1.798  50.803  1.00  0.00     0.001 C 
HETATM    5  C4  UNL     1      23.297   2.559  49.869  1.00  0.00    -0.001 C 
BRANCH   5   6
HETATM    6  C3  UNL     1      24.159   3.707  49.654  1.00  0.00     0.014 C 
HETATM    7  C2  UNL     1      25.454   4.039  49.638  1.00  0.00    -0.015 C 
HETATM    8  C1  UNL     1      26.351   2.901  49.927  1.00  0.00     0.056 C 
HETATM    9 BR1  UNL     1      25.832   5.859  49.254  1.00  0.00    -0.056 Br
ENDBRANCH   5   6
ENDBRANCH   1   4
BRANCH   1  10
HETATM   10  N1  UNL     1      23.789   0.779  52.705  1.00  0.00    -0.364 N 
HETATM   11  H9  UNL     1      23.692  -0.245  52.873  1.00  0.00     0.162 HD
BRANCH  10  12
HETATM   12  C8  UNL     1      25.155   0.911  53.012  1.00  0.00     0.124 A 
HETATM   13  C9  UNL     1      25.883  -0.264  52.930  1.00  0.00     0.067 A 
HETATM   14  C10 UNL     1      27.236  -0.327  53.198  1.00  0.00     0.043 A 
HETATM   15  C11 UNL     1      27.966  -1.494  53.119  1.00  0.00     0.135 A 
HETATM   16  C13 UNL     1      27.855   0.849  53.558  1.00  0.00     0.089 A 
HETATM   17  N3  UNL     1      29.282  -1.438  53.402  1.00  0.00    -0.224 NA
HETATM   18  C12 UNL     1      29.914  -0.303  53.756  1.00  0.00     0.236 A 
HETATM   19  N4  UNL     1      29.177   0.845  53.830  1.00  0.00    -0.240 NA
HETATM   20  C14 UNL     1      27.117   2.035  53.638  1.00  0.00     0.151 A 
HETATM   21  N5  UNL     1      25.794   2.056  53.368  1.00  0.00    -0.241 NA
BRANCH  15  22
HETATM   22  N2  UNL     1      27.287  -2.691  52.741  1.00  0.00    -0.383 N 
HETATM   23  H11 UNL     1      26.611  -3.140  53.425  1.00  0.00     0.157 HD
HETATM   24  H12 UNL     1      27.297  -3.287  51.872  1.00  0.00     0.157 HD
ENDBRANCH  15  22
ENDBRANCH  10  12
ENDBRANCH   1  10
TORSDOF 5
ENDMDL
MODEL 5
REMARK VINA RESULT:      -7.3      2.495      3.712
REMARK  5 active torsions:
REMARK  status: ('A' for Active; 'I' for Inactive)
REMARK    1  A    between atoms: C3_4  and  C4_5 
REMARK    2  A    between atoms: C5_6  and  C6_7 
REMARK    3  A    between atoms: C6_7  and  N1_10 
REMARK    4  A    between atoms: N1_10  and  C8_11 
REMARK    5  A    between atoms: C11_14  and  N2_15 
ROOT
HETATM    1  C6  UNL     1      24.050   3.193  51.790  1.00  0.00     0.140 C 
HETATM    2  C7  UNL     1      22.920   4.030  52.275  1.00  0.00     0.420 C 
HETATM    3  O1  UNL     1      21.981   4.783  52.570  1.00  0.00    -0.428 OA
ENDROOT
BRANCH   1   4
HETATM    4  C5  UNL     1      23.726   2.379  50.603  1.00  0.00     0.001 C 
HETATM    5  C4  UNL     1      22.690   1.671  50.189  1.00  0.00    -0.001 C 
BRANCH   5   6
HETATM    6  C3  UNL     1      21.347   1.253  50.543  1.00  0.00     0.014 C 
HETATM    7  C2  UNL     1      20.700   0.508  51.446  1.00  0.00    -0.015 C 
HETATM    8  C1  UNL     1      21.600  -0.119  52.437  1.00  0.00     0.056 C 
HETATM    9 BR1  UNL     1      18.813   0.434  51.251  1.00  0.00    -0.056 Br
ENDBRANCH   5   6
ENDBRANCH   1   4
BRANCH   1  10
HETATM   10  N1  UNL     1      24.386   2.300  52.900  1.00  0.00    -0.364 N 
HETATM   11  H9  UNL     1      23.988   2.265  53.862  1.00  0.00     0.162 HD
BRANCH  10  12
HETATM   12  C8  UNL     1      25.312   1.249  53.019  1.00  0.00     0.124 A 
HETATM   13  C9  UNL     1      26.620   1.651  53.232  1.00  0.00     0.067 A 
HETATM   14  C10 UNL     1      27.665   0.759  53.372  1.00  0.00     0.043 A 
HETATM   15  C11 UNL     1      28.968   1.153  53.584  1.00  0.00     0.135 A 
HETATM   16  C13 UNL     1      27.356  -0.580  53.291  1.00  0.00     0.089 A 
HETATM   17  N3  UNL     1      29.909   0.195  53.706  1.00  0.00    -0.224 NA
HETATM   18  C12 UNL     1      29.636  -1.120  53.630  1.00  0.00     0.236 A 
HETATM   19  N4  UNL     1      28.339  -1.496  53.420  1.00  0.00    -0.240 NA
HETATM   20  C14 UNL     1      26.033  -0.983  53.076  1.00  0.00     0.151 A 
HETATM   21  N5  UNL     1      25.038  -0.080  52.944  1.00  0.00    -0.241 NA
BRANCH  15  22
HETATM   22  N2  UNL     1      29.247   2.551  53.664  1.00  0.00    -0.383 N 
HETATM   23  H11 UNL     1      28.443   3.232  53.786  1.00  0.00     0.157 HD
HETATM   24  H12 UNL     1      30.136   3.117  53.627  1.00  0.00     0.157 HD
ENDBRANCH  15  22
ENDBRANCH  10  12
ENDBRANCH   1  10
TORSDOF 5
ENDMDL
MODEL 6
REMARK VINA RESULT:      -7.2      3.028      4.027
REMARK  5 active torsions:
REMARK  status: ('A' for Active; 'I' for Inactive)
REMARK    1  A    between atoms: C3_4  and  C4_5 
REMARK    2  A    between atoms: C5_6  and  C6_7 
REMARK    3  A    between atoms: C6_7  and  N1_10 
REMARK    4  A    between atoms: N1_10  and  C8_11 
REMARK    5  A    between atoms: C11_14  and  N2_15 
ROOT
HETATM    1  C6  UNL     1      25.112   2.743  51.410  1.00  0.00     0.140 C 
HETATM    2  C7  UNL     1      25.688   3.725  50.453  1.00  0.00     0.420 C 
HETATM    3  O1  UNL     1      26.078   4.510  49.578  1.00  0.00    -0.428 OA
ENDROOT
BRANCH   1   4
HETATM    4  C5  UNL     1      23.726   3.044  51.815  1.00  0.00     0.001 C 
HETATM    5  C4  UNL     1      22.767   2.413  52.468  1.00  0.00    -0.001 C 
BRANCH   5   6
HETATM    6  C3  UNL     1      22.438   1.173  53.147  1.00  0.00     0.014 C 
HETATM    7  C2  UNL     1      21.739   0.048  52.964  1.00  0.00    -0.015 C 
HETATM    8  C1  UNL     1      21.053  -0.006  51.656  1.00  0.00     0.056 C 
HETATM    9 BR1  UNL     1      21.790  -1.194  54.398  1.00  0.00    -0.056 Br
ENDBRANCH   5   6
ENDBRANCH   1   4
BRANCH   1  10
HETATM   10  N1  UNL     1      25.973   2.792  52.594  1.00  0.00    -0.364 N 
HETATM   11  H9  UNL     1      25.953   3.456  53.397  1.00  0.00     0.162 HD
BRANCH  10  12
HETATM   12  C8  UNL     1      27.054   1.995  53.009  1.00  0.00     0.124 A 
HETATM   13  C9  UNL     1      26.907   0.642  52.752  1.00  0.00     0.067 A 
HETATM   14  C10 UNL     1      27.866  -0.293  53.091  1.00  0.00     0.043 A 
HETATM   15  C11 UNL     1      27.726  -1.640  52.839  1.00  0.00     0.135 A 
HETATM   16  C13 UNL     1      29.003   0.177  53.709  1.00  0.00     0.089 A 
HETATM   17  N3  UNL     1      28.726  -2.463  53.213  1.00  0.00    -0.224 NA
HETATM   18  C12 UNL     1      29.848  -2.032  53.818  1.00  0.00     0.236 A 
HETATM   19  N4  UNL     1      29.972  -0.694  54.062  1.00  0.00    -0.240 NA
HETATM   20  C14 UNL     1      29.148   1.544  53.966  1.00  0.00     0.151 A 
HETATM   21  N5  UNL     1      28.188   2.428  53.619  1.00  0.00    -0.241 NA
BRANCH  15  22
HETATM   22  N2  UNL     1      26.533  -2.087  52.195  1.00  0.00    -0.383 N 
HETATM   23  H11 UNL     1      25.623  -2.098  52.742  1.00  0.00     0.157 HD
HETATM   24  H12 UNL     1      26.320  -2.439  51.224  1.00  0.00     0.157 HD
ENDBRANCH  15  22
ENDBRANCH  10  12
ENDBRANCH   1  10
TORSDOF 5
ENDMDL
MODEL 7
REMARK VINA RESULT:      -7.1      3.627      7.094
REMARK  5 active torsions:
REMARK  status: ('A' for Active; 'I' for Inactive)
REMARK    1  A    between atoms: C3_4  and  C4_5 
REMARK    2  A    between atoms: C5_6  and  C6_7 
REMARK    3  A    between atoms: C6_7  and  N1_10 
REMARK    4  A    between atoms: N1_10  and  C8_11 
REMARK    5  A    between atoms: C11_14  and  N2_15 
ROOT
HETATM    1  C6  UNL     1      24.932   2.479  52.224  1.00  0.00     0.140 C 
HETATM    2  C7  UNL     1      26.054   2.716  51.276  1.00  0.00     0.420 C 
HETATM    3  O1  UNL     1      27.017   3.010  50.555  1.00  0.00    -0.428 OA
ENDROOT
BRANCH   1   4
HETATM    4  C5  UNL     1      25.365   2.224  53.611  1.00  0.00     0.001 C 
HETATM    5  C4  UNL     1      26.333   1.543  54.196  1.00  0.00    -0.001 C 
BRANCH   5   6
HETATM    6  C3  UNL     1      27.482   0.694  53.939  1.00  0.00     0.014 C 
HETATM    7  C2  UNL     1      27.812  -0.434  53.300  1.00  0.00    -0.015 C 
HETATM    8  C1  UNL     1      26.670  -1.067  52.607  1.00  0.00     0.056 C 
HETATM    9 BR1  UNL     1      29.635  -0.947  53.426  1.00  0.00    -0.056 Br
ENDBRANCH   5   6
ENDBRANCH   1   4
BRANCH   1  10
HETATM   10  N1  UNL     1      24.232   1.295  51.721  1.00  0.00    -0.364 N 
HETATM   11  H9  UNL     1      24.619   0.370  51.439  1.00  0.00     0.162 HD
BRANCH  10  12
HETATM   12  C8  UNL     1      22.873   1.038  51.468  1.00  0.00     0.124 A 
HETATM   13  C9  UNL     1      22.191   0.447  52.519  1.00  0.00     0.067 A 
HETATM   14  C10 UNL     1      20.851   0.119  52.453  1.00  0.00     0.043 A 
HETATM   15  C11 UNL     1      20.167  -0.470  53.494  1.00  0.00     0.135 A 
HETATM   16  C13 UNL     1      20.197   0.409  51.276  1.00  0.00     0.089 A 
HETATM   17  N3  UNL     1      18.859  -0.745  53.318  1.00  0.00    -0.224 NA
HETATM   18  C12 UNL     1      18.195  -0.474  52.180  1.00  0.00     0.236 A 
HETATM   19  N4  UNL     1      18.886   0.110  51.156  1.00  0.00    -0.240 NA
HETATM   20  C14 UNL     1      20.889   1.007  50.217  1.00  0.00     0.151 A 
HETATM   21  N5  UNL     1      22.200   1.312  50.321  1.00  0.00    -0.241 NA
BRANCH  15  22
HETATM   22  N2  UNL     1      20.881  -0.752  54.697  1.00  0.00    -0.383 N 
HETATM   23  H11 UNL     1      20.766  -0.105  55.530  1.00  0.00     0.157 HD
HETATM   24  H12 UNL     1      21.553  -1.513  54.980  1.00  0.00     0.157 HD
ENDBRANCH  15  22
ENDBRANCH  10  12
ENDBRANCH   1  10
TORSDOF 5
ENDMDL
MODEL 8
REMARK VINA RESULT:      -7.1      2.842      6.178
REMARK  5 active torsions:
REMARK  status: ('A' for Active; 'I' for Inactive)
REMARK    1  A    between atoms: C3_4  and  C4_5 
REMARK    2  A    between atoms: C5_6  and  C6_7 
REMARK    3  A    between atoms: C6_7  and  N1_10 
REMARK    4  A    between atoms: N1_10  and  C8_11 
REMARK    5  A    between atoms: C11_14  and  N2_15 
ROOT
HETATM    1  C6  UNL     1      25.718  -0.274  52.968  1.00  0.00     0.140 C 
HETATM    2  C7  UNL     1      26.790  -1.297  53.100  1.00  0.00     0.420 C 
HETATM    3  O1  UNL     1      27.740  -2.090  53.121  1.00  0.00    -0.428 OA
ENDROOT
BRANCH   1   4
HETATM    4  C5  UNL     1      26.169   1.104  53.241  1.00  0.00     0.001 C 
HETATM    5  C4  UNL     1      25.634   2.310  53.183  1.00  0.00    -0.001 C 
BRANCH   5   6
HETATM    6  C3  UNL     1      24.416   3.031  52.861  1.00  0.00     0.014 C 
HETATM    7  C2  UNL     1      23.754   3.524  51.808  1.00  0.00    -0.015 C 
HETATM    8  C1  UNL     1      24.441   3.283  50.522  1.00  0.00     0.056 C 
HETATM    9 BR1  UNL     1      22.117   4.399  52.204  1.00  0.00    -0.056 Br
ENDBRANCH   5   6
ENDBRANCH   1   4
BRANCH   1  10
HETATM   10  N1  UNL     1      24.696  -0.641  53.950  1.00  0.00    -0.364 N 
HETATM   11  H9  UNL     1      24.811  -0.957  54.936  1.00  0.00     0.162 HD
BRANCH  10  12
HETATM   12  C8  UNL     1      23.292  -0.684  53.881  1.00  0.00     0.124 A 
HETATM   13  C9  UNL     1      22.754  -0.166  52.714  1.00  0.00     0.067 A 
HETATM   14  C10 UNL     1      21.395  -0.122  52.471  1.00  0.00     0.043 A 
HETATM   15  C11 UNL     1      20.854   0.393  51.313  1.00  0.00     0.135 A 
HETATM   16  C13 UNL     1      20.570  -0.625  53.452  1.00  0.00     0.089 A 
HETATM   17  N3  UNL     1      19.512   0.384  51.182  1.00  0.00    -0.224 NA
HETATM   18  C12 UNL     1      18.682  -0.100  52.124  1.00  0.00     0.236 A 
HETATM   19  N4  UNL     1      19.234  -0.607  53.267  1.00  0.00    -0.240 NA
HETATM   20  C14 UNL     1      21.118  -1.148  54.629  1.00  0.00     0.151 A 
HETATM   21  N5  UNL     1      22.453  -1.173  54.830  1.00  0.00    -0.241 NA
BRANCH  15  22
HETATM   22  N2  UNL     1      21.743   0.903  50.320  1.00  0.00    -0.383 N 
HETATM   23  H11 UNL     1      22.023   1.926  50.353  1.00  0.00     0.157 HD
HETATM   24  H12 UNL     1      22.229   0.470  49.491  1.00  0.00     0.157 HD
ENDBRANCH  15  22
ENDBRANCH  10  12
ENDBRANCH   1  10
TORSDOF 5
ENDMDL
MODEL 9
REMARK VINA RESULT:      -7.0      3.263      5.967
REMARK  5 active torsions:
REMARK  status: ('A' for Active; 'I' for Inactive)
REMARK    1  A    between atoms: C3_4  and  C4_5 
REMARK    2  A    between atoms: C5_6  and  C6_7 
REMARK    3  A    between atoms: C6_7  and  N1_10 
REMARK    4  A    between atoms: N1_10  and  C8_11 
REMARK    5  A    between atoms: C11_14  and  N2_15 
ROOT
HETATM    1  C6  UNL     1      26.393   0.365  54.730  1.00  0.00     0.140 C 
HETATM    2  C7  UNL     1      27.873   0.219  54.738  1.00  0.00     0.420 C 
HETATM    3  O1  UNL     1      29.088  -0.015  54.787  1.00  0.00    -0.428 OA
ENDROOT
BRANCH   1   4
HETATM    4  C5  UNL     1      25.703  -0.585  53.836  1.00  0.00     0.001 C 
HETATM    5  C4  UNL     1      24.477  -0.733  53.370  1.00  0.00    -0.001 C 
BRANCH   5   6
HETATM    6  C3  UNL     1      23.142  -0.163  53.394  1.00  0.00     0.014 C 
HETATM    7  C2  UNL     1      21.914  -0.424  53.855  1.00  0.00    -0.015 C 
HETATM    8  C1  UNL     1      21.828  -1.703  54.590  1.00  0.00     0.056 C 
HETATM    9 BR1  UNL     1      20.595   0.884  53.465  1.00  0.00    -0.056 Br
ENDBRANCH   5   6
ENDBRANCH   1   4
BRANCH   1  10
HETATM   10  N1  UNL     1      26.132   1.729  54.265  1.00  0.00    -0.364 N 
HETATM   11  H9  UNL     1      26.002   2.601  54.818  1.00  0.00     0.162 HD
BRANCH  10  12
HETATM   12  C8  UNL     1      25.979   2.274  52.978  1.00  0.00     0.124 A 
HETATM   13  C9  UNL     1      24.766   2.904  52.756  1.00  0.00     0.067 A 
HETATM   14  C10 UNL     1      24.438   3.496  51.553  1.00  0.00     0.043 A 
HETATM   15  C11 UNL     1      23.232   4.123  51.326  1.00  0.00     0.135 A 
HETATM   16  C13 UNL     1      25.383   3.439  50.553  1.00  0.00     0.089 A 
HETATM   17  N3  UNL     1      23.019   4.668  50.111  1.00  0.00    -0.224 NA
HETATM   18  C12 UNL     1      23.924   4.627  49.116  1.00  0.00     0.236 A 
HETATM   19  N4  UNL     1      25.115   4.002  49.355  1.00  0.00    -0.240 NA
HETATM   20  C14 UNL     1      26.608   2.803  50.780  1.00  0.00     0.151 A 
HETATM   21  N5  UNL     1      26.892   2.235  51.972  1.00  0.00    -0.241 NA
BRANCH  15  22
HETATM   22  N2  UNL     1      22.280   4.162  52.388  1.00  0.00    -0.383 N 
HETATM   23  H11 UNL     1      22.390   4.888  53.154  1.00  0.00     0.157 HD
HETATM   24  H12 UNL     1      21.421   3.594  52.614  1.00  0.00     0.157 HD
ENDBRANCH  15  22
ENDBRANCH  10  12
ENDBRANCH   1  10
TORSDOF 5
ENDMDL
