MODEL 1
REMARK VINA RESULT:      -8.2      0.000      0.000
REMARK  8 active torsions:
REMARK  status: ('A' for Active; 'I' for Inactive)
REMARK    1  A    between atoms: N1_1  and  C1_2 
REMARK    2  A    between atoms: C2_3  and  C3_4 
REMARK    3  A    between atoms: C3_4  and  C4_5 
REMARK    4  A    between atoms: C4_5  and  C5_6 
REMARK    5  A    between atoms: C5_6  and  O2_8 
REMARK    6  A    between atoms: C8_11  and  C9_12 
REMARK    7  A    between atoms: C14_17  and  N2_18 
REMARK    8  A    between atoms: N2_18  and  C15_19 
ROOT
HETATM    1  C1  UNL     1      27.901   1.992  53.092  1.00  0.00     0.040 A 
HETATM    2  C2  UNL     1      27.790   0.756  53.575  1.00  0.00    -0.023 A 
HETATM    3  C6  UNL     1      26.444   0.672  52.955  1.00  0.00    -0.031 A 
HETATM    4  C7  UNL     1      26.571   1.881  52.492  1.00  0.00    -0.015 A 
HETATM    5  C8  UNL     1      25.658   2.712  51.684  1.00  0.00     0.053 C 
HETATM    6  C17 UNL     1      24.394   2.014  51.305  1.00  0.00     0.087 C 
HETATM    7  S1  UNL     1      23.832   0.865  52.589  1.00  0.00    -0.164 SA
HETATM    8  C18 UNL     1      25.279  -0.235  52.777  1.00  0.00     0.113 C 
ENDROOT
BRANCH   5   9
HETATM    9  C9  UNL     1      26.328   3.381  50.543  1.00  0.00    -0.013 C 
HETATM   10  C10 UNL     1      26.122   4.323  49.618  1.00  0.00    -0.077 C 
HETATM   11  C11 UNL     1      24.898   5.117  49.461  1.00  0.00     0.038 C 
HETATM   12  C16 UNL     1      27.243   4.605  48.645  1.00  0.00     0.090 C 
HETATM   13  C12 UNL     1      25.143   6.250  48.494  1.00  0.00     0.033 C 
HETATM   14  C13 UNL     1      26.523   6.756  48.655  1.00  0.00    -0.001 C 
HETATM   15  C14 UNL     1      27.613   6.033  48.735  1.00  0.00     0.011 C 
BRANCH  15  16
HETATM   16  N2  UNL     1      28.959   6.422  48.889  1.00  0.00    -0.338 N 
HETATM   17  H15 UNL     1      29.211   7.025  49.706  1.00  0.00     0.168 HD
BRANCH  16  18
HETATM   18  C15 UNL     1      30.088   6.122  48.091  1.00  0.00     0.353 C 
HETATM   19  O3  UNL     1      30.571   4.967  48.135  1.00  0.00    -0.283 OA
ENDBRANCH  16  18
ENDBRANCH  15  16
ENDBRANCH   5   9
BRANCH   1  20
HETATM   20  N1  UNL     1      29.015   2.894  53.238  1.00  0.00    -0.398 N 
HETATM   21  H1  UNL     1      30.026   2.666  53.088  1.00  0.00     0.156 HD
HETATM   22  H2  UNL     1      28.839   3.898  53.524  1.00  0.00     0.156 HD
ENDBRANCH   1  20
BRANCH   2  23
HETATM   23  C3  UNL     1      28.613  -0.200  54.385  1.00  0.00     0.052 C 
BRANCH  23  24
HETATM   24  C4  UNL     1      29.524  -1.045  53.521  1.00  0.00     0.115 C 
BRANCH  24  25
HETATM   25  C5  UNL     1      28.847  -2.354  53.298  1.00  0.00     0.139 C 
HETATM   26  O1  UNL     1      29.498  -3.324  53.833  1.00  0.00    -0.650 OA
BRANCH  25  27
HETATM   27  O2  UNL     1      27.696  -2.856  52.671  1.00  0.00    -0.776 OA
HETATM   28  H7  UNL     1      27.079  -2.239  52.142  1.00  0.00     0.167 HD
ENDBRANCH  25  27
ENDBRANCH  24  25
ENDBRANCH  23  24
ENDBRANCH   2  23
TORSDOF 8
ENDMDL
MODEL 2
REMARK VINA RESULT:      -8.2      1.564      2.038
REMARK  8 active torsions:
REMARK  status: ('A' for Active; 'I' for Inactive)
REMARK    1  A    between atoms: N1_1  and  C1_2 
REMARK    2  A    between atoms: C2_3  and  C3_4 
REMARK    3  A    between atoms: C3_4  and  C4_5 
REMARK    4  A    between atoms: C4_5  and  C5_6 
REMARK    5  A    between atoms: C5_6  and  O2_8 
REMARK    6  A    between atoms: C8_11  and  C9_12 
REMARK    7  A    between atoms: C14_17  and  N2_18 
REMARK    8  A    between atoms: N2_18  and  C15_19 
ROOT
HETATM    1  C1  UNL     1      26.368   1.813  53.501  1.00  0.00     0.040 A 
HETATM    2  C2  UNL     1      26.440   0.526  53.837  1.00  0.00    -0.023 A 
HETATM    3  C6  UNL     1      25.013   0.383  53.453  1.00  0.00    -0.031 A 
HETATM    4  C7  UNL     1      24.962   1.641  53.132  1.00  0.00    -0.015 A 
HETATM    5  C8  UNL     1      23.857   2.466  52.606  1.00  0.00     0.053 C 
HETATM    6  C17 UNL     1      22.600   1.696  52.367  1.00  0.00     0.087 C 
HETATM    7  S1  UNL     1      22.371   0.364  53.574  1.00  0.00    -0.164 SA
HETATM    8  C18 UNL     1      23.905  -0.607  53.368  1.00  0.00     0.113 C 
ENDROOT
BRANCH   5   9
HETATM    9  C9  UNL     1      24.254   3.318  51.459  1.00  0.00    -0.013 C 
HETATM   10  C10 UNL     1      24.142   4.568  51.000  1.00  0.00    -0.077 C 
HETATM   11  C11 UNL     1      23.435   5.666  51.667  1.00  0.00     0.038 C 
HETATM   12  C16 UNL     1      24.802   4.888  49.679  1.00  0.00     0.090 C 
HETATM   13  C12 UNL     1      23.757   6.972  50.982  1.00  0.00     0.033 C 
HETATM   14  C13 UNL     1      25.161   6.963  50.521  1.00  0.00    -0.001 C 
HETATM   15  C14 UNL     1      25.761   5.995  49.874  1.00  0.00     0.011 C 
BRANCH  15  16
HETATM   16  N2  UNL     1      27.085   5.896  49.399  1.00  0.00    -0.338 N 
HETATM   17  H15 UNL     1      27.751   6.673  49.619  1.00  0.00     0.168 HD
BRANCH  16  18
HETATM   18  C15 UNL     1      27.703   4.875  48.638  1.00  0.00     0.353 C 
HETATM   19  O3  UNL     1      28.914   4.991  48.343  1.00  0.00    -0.283 OA
ENDBRANCH  16  18
ENDBRANCH  15  16
ENDBRANCH   5   9
BRANCH   1  20
HETATM   20  N1  UNL     1      27.420   2.795  53.564  1.00  0.00    -0.398 N 
HETATM   21  H1  UNL     1      27.435   3.724  53.081  1.00  0.00     0.156 HD
HETATM   22  H2  UNL     1      28.283   2.598  54.145  1.00  0.00     0.156 HD
ENDBRANCH   1  20
BRANCH   2  23
HETATM   23  C3  UNL     1      27.466  -0.431  54.364  1.00  0.00     0.052 C 
BRANCH  23  24
HETATM   24  C4  UNL     1      28.404  -0.920  53.281  1.00  0.00     0.115 C 
BRANCH  24  25
HETATM   25  C5  UNL     1      28.104  -2.361  53.043  1.00  0.00     0.139 C 
HETATM   26  O1  UNL     1      27.037  -2.515  52.343  1.00  0.00    -0.650 OA
BRANCH  25  27
HETATM   27  O2  UNL     1      28.642  -3.619  53.357  1.00  0.00    -0.776 OA
HETATM   28  H7  UNL     1      28.752  -3.911  54.328  1.00  0.00     0.167 HD
ENDBRANCH  25  27
ENDBRANCH  24  25
ENDBRANCH  23  24
ENDBRANCH   2  23
TORSDOF 8
ENDMDL
MODEL 3
REMARK VINA RESULT:      -8.1      2.643      3.171
REMARK  8 active torsions:
REMARK  status: ('A' for Active; 'I' for Inactive)
REMARK    1  A    between atoms: N1_1  and  C1_2 
REMARK    2  A    between atoms: C2_3  and  C3_4 
REMARK    3  A    between atoms: C3_4  and  C4_5 
REMARK    4  A    between atoms: C4_5  and  C5_6 
REMARK    5  A    between atoms: C5_6  and  O2_8 
REMARK    6  A    between atoms: C8_11  and  C9_12 
REMARK    7  A    between atoms: C14_17  and  N2_18 
REMARK    8  A    between atoms: N2_18  and  C15_19 
ROOT
HETATM    1  C1  UNL     1      25.376   1.878  53.323  1.00  0.00     0.040 A 
HETATM    2  C2  UNL     1      25.201   0.558  53.375  1.00  0.00    -0.023 A 
HETATM    3  C6  UNL     1      23.796   0.763  52.943  1.00  0.00    -0.031 A 
HETATM    4  C7  UNL     1      23.985   2.048  52.900  1.00  0.00    -0.015 A 
HETATM    5  C8  UNL     1      23.074   3.153  52.543  1.00  0.00     0.053 C 
HETATM    6  C17 UNL     1      21.718   2.695  52.120  1.00  0.00     0.087 C 
HETATM    7  S1  UNL     1      21.189   1.206  53.007  1.00  0.00    -0.164 SA
HETATM    8  C18 UNL     1      22.538   0.034  52.625  1.00  0.00     0.113 C 
ENDROOT
BRANCH   5   9
HETATM    9  C9  UNL     1      23.680   4.138  51.615  1.00  0.00    -0.013 C 
HETATM   10  C10 UNL     1      23.415   5.296  51.002  1.00  0.00    -0.077 C 
HETATM   11  C11 UNL     1      22.169   6.061  51.119  1.00  0.00     0.038 C 
HETATM   12  C16 UNL     1      24.488   5.876  50.110  1.00  0.00     0.090 C 
HETATM   13  C12 UNL     1      22.349   7.428  50.503  1.00  0.00     0.033 C 
HETATM   14  C13 UNL     1      23.723   7.913  50.753  1.00  0.00    -0.001 C 
HETATM   15  C14 UNL     1      24.830   7.232  50.587  1.00  0.00     0.011 C 
BRANCH  15  16
HETATM   16  N2  UNL     1      26.173   7.606  50.798  1.00  0.00    -0.338 N 
HETATM   17  H15 UNL     1      26.703   7.140  51.571  1.00  0.00     0.168 HD
BRANCH  16  18
HETATM   18  C15 UNL     1      26.971   8.551  50.110  1.00  0.00     0.353 C 
HETATM   19  O3  UNL     1      26.943   9.748  50.476  1.00  0.00    -0.283 OA
ENDBRANCH  16  18
ENDBRANCH  15  16
ENDBRANCH   5   9
BRANCH   1  20
HETATM   20  N1  UNL     1      26.578   2.615  53.616  1.00  0.00    -0.398 N 
HETATM   21  H1  UNL     1      26.664   3.654  53.718  1.00  0.00     0.156 HD
HETATM   22  H2  UNL     1      27.490   2.094  53.749  1.00  0.00     0.156 HD
ENDBRANCH   1  20
BRANCH   2  23
HETATM   23  C3  UNL     1      26.011  -0.660  53.702  1.00  0.00     0.052 C 
BRANCH  23  24
HETATM   24  C4  UNL     1      26.771  -1.182  52.503  1.00  0.00     0.115 C 
BRANCH  24  25
HETATM   25  C5  UNL     1      27.891  -2.024  53.011  1.00  0.00     0.139 C 
HETATM   26  O1  UNL     1      28.669  -1.361  53.789  1.00  0.00    -0.650 OA
BRANCH  25  27
HETATM   27  O2  UNL     1      28.360  -3.342  52.896  1.00  0.00    -0.776 OA
HETATM   28  H7  UNL     1      29.326  -3.574  53.127  1.00  0.00     0.167 HD
ENDBRANCH  25  27
ENDBRANCH  24  25
ENDBRANCH  23  24
ENDBRANCH   2  23
TORSDOF 8
ENDMDL
MODEL 4
REMARK VINA RESULT:      -7.9      3.605      7.351
REMARK  8 active torsions:
REMARK  status: ('A' for Active; 'I' for Inactive)
REMARK    1  A    between atoms: N1_1  and  C1_2 
REMARK    2  A    between atoms: C2_3  and  C3_4 
REMARK    3  A    between atoms: C3_4  and  C4_5 
REMARK    4  A    between atoms: C4_5  and  C5_6 
REMARK    5  A    between atoms: C5_6  and  O2_8 
REMARK    6  A    between atoms: C8_11  and  C9_12 
REMARK    7  A    between atoms: C14_17  and  N2_18 
REMARK    8  A    between atoms: N2_18  and  C15_19 
ROOT
HETATM    1  C1  UNL     1      23.790   3.136  52.036  1.00  0.00     0.040 A 
HETATM    2  C2  UNL     1      22.616   3.762  52.107  1.00  0.00    -0.023 A 
HETATM    3  C6  UNL     1      21.981   2.458  52.426  1.00  0.00    -0.031 A 
HETATM    4  C7  UNL     1      23.135   1.865  52.350  1.00  0.00    -0.015 A 
HETATM    5  C8  UNL     1      23.515   0.451  52.534  1.00  0.00     0.053 C 
HETATM    6  C17 UNL     1      22.370  -0.429  52.913  1.00  0.00     0.087 C 
HETATM    7  S1  UNL     1      20.814   0.101  52.150  1.00  0.00    -0.164 SA
HETATM    8  C18 UNL     1      20.670   1.826  52.735  1.00  0.00     0.113 C 
ENDROOT
BRANCH   5   9
HETATM    9  C9  UNL     1      24.709   0.270  53.394  1.00  0.00    -0.013 C 
HETATM   10  C10 UNL     1      25.805  -0.484  53.513  1.00  0.00    -0.077 C 
HETATM   11  C11 UNL     1      26.195  -1.577  52.615  1.00  0.00     0.038 C 
HETATM   12  C16 UNL     1      26.733  -0.192  54.669  1.00  0.00     0.090 C 
HETATM   13  C12 UNL     1      27.611  -2.004  52.914  1.00  0.00     0.033 C 
HETATM   14  C13 UNL     1      28.421  -0.827  53.292  1.00  0.00    -0.001 C 
HETATM   15  C14 UNL     1      28.080   0.111  54.142  1.00  0.00     0.011 C 
BRANCH  15  16
HETATM   16  N2  UNL     1      28.779   1.262  54.561  1.00  0.00    -0.338 N 
HETATM   17  H15 UNL     1      29.227   1.254  55.507  1.00  0.00     0.168 HD
BRANCH  16  18
HETATM   18  C15 UNL     1      28.993   2.488  53.889  1.00  0.00     0.353 C 
HETATM   19  O3  UNL     1      28.563   2.622  52.720  1.00  0.00    -0.283 OA
ENDBRANCH  16  18
ENDBRANCH  15  16
ENDBRANCH   5   9
BRANCH   1  20
HETATM   20  N1  UNL     1      25.077   3.716  51.747  1.00  0.00    -0.398 N 
HETATM   21  H1  UNL     1      25.356   4.715  51.890  1.00  0.00     0.156 HD
HETATM   22  H2  UNL     1      25.845   3.107  51.347  1.00  0.00     0.156 HD
ENDBRANCH   1  20
BRANCH   2  23
HETATM   23  C3  UNL     1      22.087   5.156  51.958  1.00  0.00     0.052 C 
BRANCH  23  24
HETATM   24  C4  UNL     1      22.577   5.822  50.690  1.00  0.00     0.115 C 
BRANCH  24  25
HETATM   25  C5  UNL     1      23.625   6.810  51.077  1.00  0.00     0.139 C 
HETATM   26  O1  UNL     1      23.614   7.839  50.309  1.00  0.00    -0.650 OA
BRANCH  25  27
HETATM   27  O2  UNL     1      24.636   6.956  52.040  1.00  0.00    -0.776 OA
HETATM   28  H7  UNL     1      25.513   7.423  51.808  1.00  0.00     0.167 HD
ENDBRANCH  25  27
ENDBRANCH  24  25
ENDBRANCH  23  24
ENDBRANCH   2  23
TORSDOF 8
ENDMDL
MODEL 5
REMARK VINA RESULT:      -7.7      4.451      7.410
REMARK  8 active torsions:
REMARK  status: ('A' for Active; 'I' for Inactive)
REMARK    1  A    between atoms: N1_1  and  C1_2 
REMARK    2  A    between atoms: C2_3  and  C3_4 
REMARK    3  A    between atoms: C3_4  and  C4_5 
REMARK    4  A    between atoms: C4_5  and  C5_6 
REMARK    5  A    between atoms: C5_6  and  O2_8 
REMARK    6  A    between atoms: C8_11  and  C9_12 
REMARK    7  A    between atoms: C14_17  and  N2_18 
REMARK    8  A    between atoms: N2_18  and  C15_19 
ROOT
HETATM    1  C1  UNL     1      21.862   0.811  53.023  1.00  0.00     0.040 A 
HETATM    2  C2  UNL     1      21.206   0.717  51.868  1.00  0.00    -0.023 A 
HETATM    3  C6  UNL     1      22.213   1.624  51.262  1.00  0.00    -0.031 A 
HETATM    4  C7  UNL     1      22.838   1.705  52.399  1.00  0.00    -0.015 A 
HETATM    5  C8  UNL     1      24.056   2.443  52.787  1.00  0.00     0.053 C 
HETATM    6  C17 UNL     1      24.690   3.185  51.656  1.00  0.00     0.087 C 
HETATM    7  S1  UNL     1      23.466   3.818  50.479  1.00  0.00    -0.164 SA
HETATM    8  C18 UNL     1      22.585   2.294  49.987  1.00  0.00     0.113 C 
ENDROOT
BRANCH   5   9
HETATM    9  C9  UNL     1      25.016   1.625  53.567  1.00  0.00    -0.013 C 
HETATM   10  C10 UNL     1      25.680   0.466  53.519  1.00  0.00    -0.077 C 
HETATM   11  C11 UNL     1      25.612  -0.515  52.431  1.00  0.00     0.038 C 
HETATM   12  C16 UNL     1      26.585   0.131  54.681  1.00  0.00     0.090 C 
HETATM   13  C12 UNL     1      26.696  -1.551  52.608  1.00  0.00     0.033 C 
HETATM   14  C13 UNL     1      27.909  -0.916  53.166  1.00  0.00    -0.001 C 
HETATM   15  C14 UNL     1      27.958  -0.085  54.177  1.00  0.00     0.011 C 
BRANCH  15  16
HETATM   16  N2  UNL     1      29.057   0.566  54.773  1.00  0.00    -0.338 N 
HETATM   17  H15 UNL     1      29.657   0.022  55.437  1.00  0.00     0.168 HD
BRANCH  16  18
HETATM   18  C15 UNL     1      29.517   1.895  54.620  1.00  0.00     0.353 C 
HETATM   19  O3  UNL     1      28.767   2.736  54.073  1.00  0.00    -0.283 OA
ENDBRANCH  16  18
ENDBRANCH  15  16
ENDBRANCH   5   9
BRANCH   1  20
HETATM   20  N1  UNL     1      21.535   0.173  54.273  1.00  0.00    -0.398 N 
HETATM   21  H1  UNL     1      20.722  -0.462  54.454  1.00  0.00     0.156 HD
HETATM   22  H2  UNL     1      22.151   0.336  55.118  1.00  0.00     0.156 HD
ENDBRANCH   1  20
BRANCH   2  23
HETATM   23  C3  UNL     1      19.992   0.020  51.331  1.00  0.00     0.052 C 
BRANCH  23  24
HETATM   24  C4  UNL     1      18.743   0.355  52.117  1.00  0.00     0.115 C 
BRANCH  24  25
HETATM   25  C5  UNL     1      18.412  -0.827  52.963  1.00  0.00     0.139 C 
HETATM   26  O1  UNL     1      17.252  -1.302  52.682  1.00  0.00    -0.650 OA
BRANCH  25  27
HETATM   27  O2  UNL     1      18.993  -1.589  53.989  1.00  0.00    -0.776 OA
HETATM   28  H7  UNL     1      19.861  -1.290  54.433  1.00  0.00     0.167 HD
ENDBRANCH  25  27
ENDBRANCH  24  25
ENDBRANCH  23  24
ENDBRANCH   2  23
TORSDOF 8
ENDMDL
MODEL 6
REMARK VINA RESULT:      -7.6      2.972      7.686
REMARK  8 active torsions:
REMARK  status: ('A' for Active; 'I' for Inactive)
REMARK    1  A    between atoms: N1_1  and  C1_2 
REMARK    2  A    between atoms: C2_3  and  C3_4 
REMARK    3  A    between atoms: C3_4  and  C4_5 
REMARK    4  A    between atoms: C4_5  and  C5_6 
REMARK    5  A    between atoms: C5_6  and  O2_8 
REMARK    6  A    between atoms: C8_11  and  C9_12 
REMARK    7  A    between atoms: C14_17  and  N2_18 
REMARK    8  A    between atoms: N2_18  and  C15_19 
ROOT
HETATM    1  C1  UNL     1      26.419   5.368  49.082  1.00  0.00     0.040 A 
HETATM    2  C2  UNL     1      26.011   6.532  48.579  1.00  0.00    -0.023 A 
HETATM    3  C6  UNL     1      24.609   6.087  48.781  1.00  0.00    -0.031 A 
HETATM    4  C7  UNL     1      25.027   4.956  49.267  1.00  0.00    -0.015 A 
HETATM    5  C8  UNL     1      24.287   3.786  49.779  1.00  0.00     0.053 C 
HETATM    6  C17 UNL     1      22.805   3.967  49.769  1.00  0.00     0.087 C 
HETATM    7  S1  UNL     1      22.245   4.974  48.371  1.00  0.00    -0.164 SA
HETATM    8  C18 UNL     1      23.195   6.517  48.606  1.00  0.00     0.113 C 
ENDROOT
BRANCH   5   9
HETATM    9  C9  UNL     1      24.812   3.279  51.070  1.00  0.00    -0.013 C 
HETATM   10  C10 UNL     1      24.622   2.302  51.962  1.00  0.00    -0.077 C 
HETATM   11  C11 UNL     1      23.613   1.241  51.869  1.00  0.00     0.038 C 
HETATM   12  C16 UNL     1      25.522   2.280  53.175  1.00  0.00     0.090 C 
HETATM   13  C12 UNL     1      23.884   0.185  52.913  1.00  0.00     0.033 C 
HETATM   14  C13 UNL     1      25.342   0.020  53.092  1.00  0.00    -0.001 C 
HETATM   15  C14 UNL     1      26.223   0.980  53.232  1.00  0.00     0.011 C 
BRANCH  15  16
HETATM   16  N2  UNL     1      27.621   0.920  53.404  1.00  0.00    -0.338 N 
HETATM   17  H15 UNL     1      28.065  -0.019  53.540  1.00  0.00     0.168 HD
BRANCH  16  18
HETATM   18  C15 UNL     1      28.579   1.961  53.425  1.00  0.00     0.353 C 
HETATM   19  O3  UNL     1      28.878   2.486  54.521  1.00  0.00    -0.283 OA
ENDBRANCH  16  18
ENDBRANCH  15  16
ENDBRANCH   5   9
BRANCH   1  20
HETATM   20  N1  UNL     1      27.776   4.923  49.272  1.00  0.00    -0.398 N 
HETATM   21  H1  UNL     1      28.355   4.379  48.589  1.00  0.00     0.156 HD
HETATM   22  H2  UNL     1      28.276   5.146  50.178  1.00  0.00     0.156 HD
ENDBRANCH   1  20
BRANCH   2  23
HETATM   23  C3  UNL     1      26.625   7.788  48.039  1.00  0.00     0.052 C 
BRANCH  23  24
HETATM   24  C4  UNL     1      27.829   8.230  48.843  1.00  0.00     0.115 C 
BRANCH  24  25
HETATM   25  C5  UNL     1      27.348   9.175  49.891  1.00  0.00     0.139 C 
HETATM   26  O1  UNL     1      26.491  10.009  49.421  1.00  0.00    -0.650 OA
BRANCH  25  27
HETATM   27  O2  UNL     1      27.552   9.435  51.255  1.00  0.00    -0.776 OA
HETATM   28  H7  UNL     1      27.080   8.878  51.968  1.00  0.00     0.167 HD
ENDBRANCH  25  27
ENDBRANCH  24  25
ENDBRANCH  23  24
ENDBRANCH   2  23
TORSDOF 8
ENDMDL
MODEL 7
REMARK VINA RESULT:      -7.5      2.667      7.124
REMARK  8 active torsions:
REMARK  status: ('A' for Active; 'I' for Inactive)
REMARK    1  A    between atoms: N1_1  and  C1_2 
REMARK    2  A    between atoms: C2_3  and  C3_4 
REMARK    3  A    between atoms: C3_4  and  C4_5 
REMARK    4  A    between atoms: C4_5  and  C5_6 
REMARK    5  A    between atoms: C5_6  and  O2_8 
REMARK    6  A    between atoms: C8_11  and  C9_12 
REMARK    7  A    between atoms: C14_17  and  N2_18 
REMARK    8  A    between atoms: N2_18  and  C15_19 
ROOT
HETATM    1  C1  UNL     1      25.564   4.523  49.665  1.00  0.00     0.040 A 
HETATM    2  C2  UNL     1      25.406   5.768  49.219  1.00  0.00    -0.023 A 
HETATM    3  C6  UNL     1      24.251   5.914  50.140  1.00  0.00    -0.031 A 
HETATM    4  C7  UNL     1      24.420   4.696  50.562  1.00  0.00    -0.015 A 
HETATM    5  C8  UNL     1      23.681   3.903  51.564  1.00  0.00     0.053 C 
HETATM    6  C17 UNL     1      22.580   4.661  52.230  1.00  0.00     0.087 C 
HETATM    7  S1  UNL     1      21.792   5.850  51.112  1.00  0.00    -0.164 SA
HETATM    8  C18 UNL     1      23.209   6.878  50.587  1.00  0.00     0.113 C 
ENDROOT
BRANCH   5   9
HETATM    9  C9  UNL     1      24.566   3.189  52.516  1.00  0.00    -0.013 C 
HETATM   10  C10 UNL     1      24.772   1.978  53.041  1.00  0.00    -0.077 C 
HETATM   11  C11 UNL     1      23.995   0.770  52.741  1.00  0.00     0.038 C 
HETATM   12  C16 UNL     1      25.903   1.829  54.031  1.00  0.00     0.090 C 
HETATM   13  C12 UNL     1      24.690  -0.441  53.314  1.00  0.00     0.033 C 
HETATM   14  C13 UNL     1      26.155  -0.272  53.213  1.00  0.00    -0.001 C 
HETATM   15  C14 UNL     1      26.840   0.796  53.542  1.00  0.00     0.011 C 
BRANCH  15  16
HETATM   16  N2  UNL     1      28.226   1.048  53.480  1.00  0.00    -0.338 N 
HETATM   17  H15 UNL     1      28.855   0.283  53.140  1.00  0.00     0.168 HD
BRANCH  16  18
HETATM   18  C15 UNL     1      28.952   2.216  53.811  1.00  0.00     0.353 C 
HETATM   19  O3  UNL     1      29.466   2.307  54.949  1.00  0.00    -0.283 OA
ENDBRANCH  16  18
ENDBRANCH  15  16
ENDBRANCH   5   9
BRANCH   1  20
HETATM   20  N1  UNL     1      26.563   3.567  49.261  1.00  0.00    -0.398 N 
HETATM   21  H1  UNL     1      26.532   2.953  48.414  1.00  0.00     0.156 HD
HETATM   22  H2  UNL     1      27.433   3.441  49.853  1.00  0.00     0.156 HD
ENDBRANCH   1  20
BRANCH   2  23
HETATM   23  C3  UNL     1      26.063   6.691  48.237  1.00  0.00     0.052 C 
BRANCH  23  24
HETATM   24  C4  UNL     1      27.320   7.321  48.795  1.00  0.00     0.115 C 
BRANCH  24  25
HETATM   25  C5  UNL     1      28.468   6.448  48.417  1.00  0.00     0.139 C 
HETATM   26  O1  UNL     1      28.953   6.770  47.272  1.00  0.00    -0.650 OA
BRANCH  25  27
HETATM   27  O2  UNL     1      29.189   5.364  48.941  1.00  0.00    -0.776 OA
HETATM   28  H7  UNL     1      28.997   4.411  48.631  1.00  0.00     0.167 HD
ENDBRANCH  25  27
ENDBRANCH  24  25
ENDBRANCH  23  24
ENDBRANCH   2  23
TORSDOF 8
ENDMDL
MODEL 8
REMARK VINA RESULT:      -7.4      2.694      7.105
REMARK  8 active torsions:
REMARK  status: ('A' for Active; 'I' for Inactive)
REMARK    1  A    between atoms: N1_1  and  C1_2 
REMARK    2  A    between atoms: C2_3  and  C3_4 
REMARK    3  A    between atoms: C3_4  and  C4_5 
REMARK    4  A    between atoms: C4_5  and  C5_6 
REMARK    5  A    between atoms: C5_6  and  O2_8 
REMARK    6  A    between atoms: C8_11  and  C9_12 
REMARK    7  A    between atoms: C14_17  and  N2_18 
REMARK    8  A    between atoms: N2_18  and  C15_19 
ROOT
HETATM    1  C1  UNL     1      25.131   3.600  50.653  1.00  0.00     0.040 A 
HETATM    2  C2  UNL     1      24.221   4.534  50.381  1.00  0.00    -0.023 A 
HETATM    3  C6  UNL     1      23.165   3.575  50.794  1.00  0.00    -0.031 A 
HETATM    4  C7  UNL     1      24.069   2.676  51.051  1.00  0.00    -0.015 A 
HETATM    5  C8  UNL     1      23.947   1.293  51.551  1.00  0.00     0.053 C 
HETATM    6  C17 UNL     1      22.541   0.887  51.848  1.00  0.00     0.087 C 
HETATM    7  S1  UNL     1      21.352   1.651  50.714  1.00  0.00    -0.164 SA
HETATM    8  C18 UNL     1      21.693   3.432  50.946  1.00  0.00     0.113 C 
ENDROOT
BRANCH   5   9
HETATM    9  C9  UNL     1      24.896   0.979  52.647  1.00  0.00    -0.013 C 
HETATM   10  C10 UNL     1      25.763   0.042  53.041  1.00  0.00    -0.077 C 
HETATM   11  C11 UNL     1      26.066  -1.201  52.323  1.00  0.00     0.038 C 
HETATM   12  C16 UNL     1      26.504   0.275  54.336  1.00  0.00     0.090 C 
HETATM   13  C12 UNL     1      27.278  -1.862  52.933  1.00  0.00     0.033 C 
HETATM   14  C13 UNL     1      28.238  -0.832  53.381  1.00  0.00    -0.001 C 
HETATM   15  C14 UNL     1      27.958   0.245  54.073  1.00  0.00     0.011 C 
BRANCH  15  16
HETATM   16  N2  UNL     1      28.799   1.275  54.540  1.00  0.00    -0.338 N 
HETATM   17  H15 UNL     1      29.215   1.182  55.497  1.00  0.00     0.168 HD
BRANCH  16  18
HETATM   18  C15 UNL     1      29.203   2.475  53.908  1.00  0.00     0.353 C 
HETATM   19  O3  UNL     1      28.755   2.738  52.768  1.00  0.00    -0.283 OA
ENDBRANCH  16  18
ENDBRANCH  15  16
ENDBRANCH   5   9
BRANCH   1  20
HETATM   20  N1  UNL     1      26.562   3.707  50.524  1.00  0.00    -0.398 N 
HETATM   21  H1  UNL     1      27.131   3.471  49.677  1.00  0.00     0.156 HD
HETATM   22  H2  UNL     1      27.135   4.053  51.345  1.00  0.00     0.156 HD
ENDBRANCH   1  20
BRANCH   2  23
HETATM   23  C3  UNL     1      24.192   5.949  49.888  1.00  0.00     0.052 C 
BRANCH  23  24
HETATM   24  C4  UNL     1      25.084   6.859  50.703  1.00  0.00     0.115 C 
BRANCH  24  25
HETATM   25  C5  UNL     1      26.258   7.216  49.856  1.00  0.00     0.139 C 
HETATM   26  O1  UNL     1      26.228   8.449  49.497  1.00  0.00    -0.650 OA
BRANCH  25  27
HETATM   27  O2  UNL     1      27.402   6.602  49.323  1.00  0.00    -0.776 OA
HETATM   28  H7  UNL     1      27.765   5.738  49.725  1.00  0.00     0.167 HD
ENDBRANCH  25  27
ENDBRANCH  24  25
ENDBRANCH  23  24
ENDBRANCH   2  23
TORSDOF 8
ENDMDL
MODEL 9
REMARK VINA RESULT:      -7.4      3.436      4.543
REMARK  8 active torsions:
REMARK  status: ('A' for Active; 'I' for Inactive)
REMARK    1  A    between atoms: N1_1  and  C1_2 
REMARK    2  A    between atoms: C2_3  and  C3_4 
REMARK    3  A    between atoms: C3_4  and  C4_5 
REMARK    4  A    between atoms: C4_5  and  C5_6 
REMARK    5  A    between atoms: C5_6  and  O2_8 
REMARK    6  A    between atoms: C8_11  and  C9_12 
REMARK    7  A    between atoms: C14_17  and  N2_18 
REMARK    8  A    between atoms: N2_18  and  C15_19 
ROOT
HETATM    1  C1  UNL     1      23.426   1.432  51.087  1.00  0.00     0.040 A 
HETATM    2  C2  UNL     1      23.110   0.889  52.261  1.00  0.00    -0.023 A 
HETATM    3  C6  UNL     1      24.508   1.118  52.705  1.00  0.00    -0.031 A 
HETATM    4  C7  UNL     1      24.798   1.644  51.551  1.00  0.00    -0.015 A 
HETATM    5  C8  UNL     1      26.058   2.207  51.030  1.00  0.00     0.053 C 
HETATM    6  C17 UNL     1      27.171   2.202  52.025  1.00  0.00     0.087 C 
HETATM    7  S1  UNL     1      27.094   0.770  53.133  1.00  0.00    -0.164 SA
HETATM    8  C18 UNL     1      25.426   0.939  53.861  1.00  0.00     0.113 C 
ENDROOT
BRANCH   5   9
HETATM    9  C9  UNL     1      25.882   3.512  50.348  1.00  0.00    -0.013 C 
HETATM   10  C10 UNL     1      25.114   4.605  50.370  1.00  0.00    -0.077 C 
HETATM   11  C11 UNL     1      23.993   4.847  51.284  1.00  0.00     0.038 C 
HETATM   12  C16 UNL     1      25.422   5.696  49.370  1.00  0.00     0.090 C 
HETATM   13  C12 UNL     1      23.551   6.287  51.184  1.00  0.00     0.033 C 
HETATM   14  C13 UNL     1      24.726   7.156  50.961  1.00  0.00    -0.001 C 
HETATM   15  C14 UNL     1      25.690   6.955  50.097  1.00  0.00     0.011 C 
BRANCH  15  16
HETATM   16  N2  UNL     1      26.840   7.720  49.816  1.00  0.00    -0.338 N 
HETATM   17  H15 UNL     1      27.738   7.216  49.624  1.00  0.00     0.168 HD
BRANCH  16  18
HETATM   18  C15 UNL     1      27.001   9.124  49.743  1.00  0.00     0.353 C 
HETATM   19  O3  UNL     1      27.515   9.725  50.714  1.00  0.00    -0.283 OA
ENDBRANCH  16  18
ENDBRANCH  15  16
ENDBRANCH   5   9
BRANCH   1  20
HETATM   20  N1  UNL     1      22.562   1.629  49.951  1.00  0.00    -0.398 N 
HETATM   21  H1  UNL     1      21.866   0.945  49.571  1.00  0.00     0.156 HD
HETATM   22  H2  UNL     1      22.604   2.542  49.416  1.00  0.00     0.156 HD
ENDBRANCH   1  20
BRANCH   2  23
HETATM   23  C3  UNL     1      21.903   0.296  52.925  1.00  0.00     0.052 C 
BRANCH  23  24
HETATM   24  C4  UNL     1      22.126  -1.142  53.341  1.00  0.00     0.115 C 
BRANCH  24  25
HETATM   25  C5  UNL     1      22.225  -1.170  54.828  1.00  0.00     0.139 C 
HETATM   26  O1  UNL     1      21.484  -0.272  55.371  1.00  0.00    -0.650 OA
BRANCH  25  27
HETATM   27  O2  UNL     1      22.894  -1.891  55.829  1.00  0.00    -0.776 OA
HETATM   28  H7  UNL     1      22.389  -2.249  56.639  1.00  0.00     0.167 HD
ENDBRANCH  25  27
ENDBRANCH  24  25
ENDBRANCH  23  24
ENDBRANCH   2  23
TORSDOF 8
ENDMDL
