MODEL 1
REMARK VINA RESULT:      -8.5      0.000      0.000
REMARK  6 active torsions:
REMARK  status: ('A' for Active; 'I' for Inactive)
REMARK    1  A    between atoms: C2_2  and  C3_3 
REMARK    2  A    between atoms: C3_3  and  C4_4 
REMARK    3  A    between atoms: C5_5  and  C6_6 
REMARK       I    between atoms: C6_6  and  N1_8 
REMARK    4  A    between atoms: N1_8  and  C7_9 
REMARK    5  A    between atoms: C10_12  and  N2_13 
REMARK    6  A    between atoms: N2_13  and  C11_14 
ROOT
HETATM    1  C7  UNL     1      26.013   3.788  49.829  1.00  0.00     0.131 A 
HETATM    2  C8  UNL     1      26.057   3.096  51.040  1.00  0.00     0.068 A 
HETATM    3  C9  UNL     1      24.815   2.648  51.415  1.00  0.00     0.044 A 
HETATM    4  C10 UNL     1      24.804   1.965  52.610  1.00  0.00     0.142 A 
HETATM    5  N3  UNL     1      23.646   1.482  53.089  1.00  0.00    -0.224 NA
HETATM    6  C17 UNL     1      22.492   1.667  52.399  1.00  0.00     0.236 A 
HETATM    7  N4  UNL     1      22.489   2.339  51.219  1.00  0.00    -0.240 NA
HETATM    8  C18 UNL     1      23.632   2.833  50.718  1.00  0.00     0.089 A 
HETATM    9  C19 UNL     1      23.683   3.529  49.531  1.00  0.00     0.151 A 
HETATM   10  N5  UNL     1      24.884   3.986  49.124  1.00  0.00    -0.241 NA
ENDROOT
BRANCH   4  11
HETATM   11  N2  UNL     1      25.858   1.635  53.503  1.00  0.00    -0.340 N 
HETATM   12  H10 UNL     1      26.275   2.164  54.307  1.00  0.00     0.167 HD
BRANCH  11  13
HETATM   13  C11 UNL     1      26.448   0.342  53.227  1.00  0.00     0.035 A 
HETATM   14  C12 UNL     1      25.966  -0.871  52.796  1.00  0.00     0.032 A 
HETATM   15  C13 UNL     1      26.825  -1.943  52.676  1.00  0.00     0.046 A 
HETATM   16  C14 UNL     1      28.164  -1.831  52.980  1.00  0.00     0.138 A 
HETATM   17  F1  UNL     1      28.922  -2.944  52.830  1.00  0.00    -0.204 F 
HETATM   18  C15 UNL     1      28.649  -0.611  53.415  1.00  0.00     0.074 A 
HETATM   19 CL1  UNL     1      30.379  -0.612  53.773  1.00  0.00    -0.081 Cl
HETATM   20  C16 UNL     1      27.805   0.497  53.548  1.00  0.00     0.056 A 
ENDBRANCH  11  13
ENDBRANCH   4  11
BRANCH   1  21
HETATM   21  N1  UNL     1      27.175   4.339  49.241  1.00  0.00    -0.301 N 
HETATM   22  C6  UNL     1      27.716   5.462  48.566  1.00  0.00     0.302 C 
HETATM   23  O1  UNL     1      26.960   6.469  48.321  1.00  0.00    -0.258 OA
HETATM   24  H8  UNL     1      27.854   3.536  49.421  1.00  0.00     0.171 HD
BRANCH  22  25
HETATM   25  C5  UNL     1      29.089   5.469  48.166  1.00  0.00    -0.005 C 
HETATM   26  C4  UNL     1      30.256   5.481  47.807  1.00  0.00    -0.096 C 
BRANCH  26  27
HETATM   27  C3  UNL     1      31.647   5.502  47.358  1.00  0.00     0.094 C 
BRANCH  27  28
HETATM   28  C2  UNL     1      32.224   4.157  47.736  1.00  0.00     0.007 C 
HETATM   29  C1  UNL     1      31.986   3.204  46.590  1.00  0.00     0.006 C 
ENDBRANCH  27  28
ENDBRANCH  26  27
ENDBRANCH  22  25
ENDBRANCH   1  21
TORSDOF 6
ENDMDL
MODEL 2
REMARK VINA RESULT:      -8.4      5.301      9.952
REMARK  6 active torsions:
REMARK  status: ('A' for Active; 'I' for Inactive)
REMARK    1  A    between atoms: C2_2  and  C3_3 
REMARK    2  A    between atoms: C3_3  and  C4_4 
REMARK    3  A    between atoms: C5_5  and  C6_6 
REMARK       I    between atoms: C6_6  and  N1_8 
REMARK    4  A    between atoms: N1_8  and  C7_9 
REMARK    5  A    between atoms: C10_12  and  N2_13 
REMARK    6  A    between atoms: N2_13  and  C11_14 
ROOT
HETATM    1  C7  UNL     1      22.216  -1.122  54.178  1.00  0.00     0.131 A 
HETATM    2  C8  UNL     1      23.006  -0.361  53.315  1.00  0.00     0.068 A 
HETATM    3  C9  UNL     1      24.286  -0.216  53.792  1.00  0.00     0.044 A 
HETATM    4  C10 UNL     1      25.104   0.535  52.980  1.00  0.00     0.142 A 
HETATM    5  N3  UNL     1      26.379   0.755  53.341  1.00  0.00    -0.224 NA
HETATM    6  C17 UNL     1      26.858   0.239  54.501  1.00  0.00     0.236 A 
HETATM    7  N4  UNL     1      26.061  -0.504  55.312  1.00  0.00    -0.240 NA
HETATM    8  C18 UNL     1      24.784  -0.738  54.975  1.00  0.00     0.089 A 
HETATM    9  C19 UNL     1      23.931  -1.478  55.765  1.00  0.00     0.151 A 
HETATM   10  N5  UNL     1      22.665  -1.646  55.334  1.00  0.00    -0.241 NA
ENDROOT
BRANCH   4  11
HETATM   11  N2  UNL     1      24.851   1.167  51.734  1.00  0.00    -0.340 N 
HETATM   12  H10 UNL     1      24.923   0.810  50.749  1.00  0.00     0.167 HD
BRANCH  11  13
HETATM   13  C11 UNL     1      24.428   2.544  51.874  1.00  0.00     0.035 A 
HETATM   14  C12 UNL     1      23.809   3.272  52.861  1.00  0.00     0.032 A 
HETATM   15  C13 UNL     1      23.505   4.599  52.643  1.00  0.00     0.046 A 
HETATM   16  C14 UNL     1      23.807   5.221  51.451  1.00  0.00     0.138 A 
HETATM   17  F1  UNL     1      23.466   6.527  51.337  1.00  0.00    -0.204 F 
HETATM   18  C15 UNL     1      24.430   4.488  50.457  1.00  0.00     0.074 A 
HETATM   19 CL1  UNL     1      24.754   5.408  48.983  1.00  0.00    -0.081 Cl
HETATM   20  C16 UNL     1      24.752   3.141  50.645  1.00  0.00     0.056 A 
ENDBRANCH  11  13
ENDBRANCH   4  11
BRANCH   1  21
HETATM   21  N1  UNL     1      20.861  -1.407  53.893  1.00  0.00    -0.301 N 
HETATM   22  C6  UNL     1      19.626  -0.867  53.456  1.00  0.00     0.302 C 
HETATM   23  O1  UNL     1      19.559   0.379  53.157  1.00  0.00    -0.258 OA
HETATM   24  H8  UNL     1      20.855  -2.449  54.121  1.00  0.00     0.171 HD
BRANCH  22  25
HETATM   25  C5  UNL     1      18.471  -1.703  53.349  1.00  0.00    -0.005 C 
HETATM   26  C4  UNL     1      17.480  -2.409  53.241  1.00  0.00    -0.096 C 
BRANCH  26  27
HETATM   27  C3  UNL     1      16.290  -3.245  53.093  1.00  0.00     0.094 C 
BRANCH  27  28
HETATM   28  C2  UNL     1      16.723  -4.647  53.455  1.00  0.00     0.007 C 
HETATM   29  C1  UNL     1      15.618  -5.286  54.261  1.00  0.00     0.006 C 
ENDBRANCH  27  28
ENDBRANCH  26  27
ENDBRANCH  22  25
ENDBRANCH   1  21
TORSDOF 6
ENDMDL
MODEL 3
REMARK VINA RESULT:      -8.3      1.511      1.963
REMARK  6 active torsions:
REMARK  status: ('A' for Active; 'I' for Inactive)
REMARK    1  A    between atoms: C2_2  and  C3_3 
REMARK    2  A    between atoms: C3_3  and  C4_4 
REMARK    3  A    between atoms: C5_5  and  C6_6 
REMARK       I    between atoms: C6_6  and  N1_8 
REMARK    4  A    between atoms: N1_8  and  C7_9 
REMARK    5  A    between atoms: C10_12  and  N2_13 
REMARK    6  A    between atoms: N2_13  and  C11_14 
ROOT
HETATM    1  C7  UNL     1      24.432   3.176  49.816  1.00  0.00     0.131 A 
HETATM    2  C8  UNL     1      24.477   2.549  51.062  1.00  0.00     0.068 A 
HETATM    3  C9  UNL     1      23.410   1.704  51.244  1.00  0.00     0.044 A 
HETATM    4  C10 UNL     1      23.402   1.066  52.463  1.00  0.00     0.142 A 
HETATM    5  N3  UNL     1      22.405   0.219  52.764  1.00  0.00    -0.224 NA
HETATM    6  C17 UNL     1      21.409  -0.008  51.870  1.00  0.00     0.236 A 
HETATM    7  N4  UNL     1      21.404   0.616  50.663  1.00  0.00    -0.240 NA
HETATM    8  C18 UNL     1      22.388   1.468  50.338  1.00  0.00     0.089 A 
HETATM    9  C19 UNL     1      22.426   2.132  49.132  1.00  0.00     0.151 A 
HETATM   10  N5  UNL     1      23.458   2.971  48.911  1.00  0.00    -0.241 NA
ENDROOT
BRANCH   4  11
HETATM   11  N2  UNL     1      24.316   1.124  53.548  1.00  0.00    -0.340 N 
HETATM   12  H10 UNL     1      24.270   1.628  54.467  1.00  0.00     0.167 HD
BRANCH  11  13
HETATM   13  C11 UNL     1      25.517   0.348  53.317  1.00  0.00     0.035 A 
HETATM   14  C12 UNL     1      25.782  -0.892  52.788  1.00  0.00     0.032 A 
HETATM   15  C13 UNL     1      27.080  -1.357  52.754  1.00  0.00     0.046 A 
HETATM   16  C14 UNL     1      28.127  -0.606  53.242  1.00  0.00     0.138 A 
HETATM   17  F1  UNL     1      29.363  -1.153  53.163  1.00  0.00    -0.204 F 
HETATM   18  C15 UNL     1      27.860   0.642  53.775  1.00  0.00     0.074 A 
HETATM   19 CL1  UNL     1      29.292   1.492  54.366  1.00  0.00    -0.081 Cl
HETATM   20  C16 UNL     1      26.555   1.144  53.825  1.00  0.00     0.056 A 
ENDBRANCH  11  13
ENDBRANCH   4  11
BRANCH   1  21
HETATM   21  N1  UNL     1      25.431   4.089  49.405  1.00  0.00    -0.301 N 
HETATM   22  C6  UNL     1      25.904   5.421  49.510  1.00  0.00     0.302 C 
HETATM   23  O1  UNL     1      25.268   6.254  50.251  1.00  0.00    -0.258 OA
HETATM   24  H8  UNL     1      26.005   3.443  48.779  1.00  0.00     0.171 HD
BRANCH  22  25
HETATM   25  C5  UNL     1      27.076   5.828  48.799  1.00  0.00    -0.005 C 
HETATM   26  C4  UNL     1      28.087   6.174  48.208  1.00  0.00    -0.096 C 
BRANCH  26  27
HETATM   27  C3  UNL     1      29.309   6.584  47.519  1.00  0.00     0.094 C 
BRANCH  27  28
HETATM   28  C2  UNL     1      30.359   5.563  47.894  1.00  0.00     0.007 C 
HETATM   29  C1  UNL     1      31.238   6.165  48.963  1.00  0.00     0.006 C 
ENDBRANCH  27  28
ENDBRANCH  26  27
ENDBRANCH  22  25
ENDBRANCH   1  21
TORSDOF 6
ENDMDL
MODEL 4
REMARK VINA RESULT:      -8.0      2.615      3.951
REMARK  6 active torsions:
REMARK  status: ('A' for Active; 'I' for Inactive)
REMARK    1  A    between atoms: C2_2  and  C3_3 
REMARK    2  A    between atoms: C3_3  and  C4_4 
REMARK    3  A    between atoms: C5_5  and  C6_6 
REMARK       I    between atoms: C6_6  and  N1_8 
REMARK    4  A    between atoms: N1_8  and  C7_9 
REMARK    5  A    between atoms: C10_12  and  N2_13 
REMARK    6  A    between atoms: N2_13  and  C11_14 
ROOT
HETATM    1  C7  UNL     1      28.346   5.839  48.367  1.00  0.00     0.131 A 
HETATM    2  C8  UNL     1      27.444   4.856  48.778  1.00  0.00     0.068 A 
HETATM    3  C9  UNL     1      26.303   5.404  49.311  1.00  0.00     0.044 A 
HETATM    4  C10 UNL     1      25.383   4.474  49.739  1.00  0.00     0.142 A 
HETATM    5  N3  UNL     1      24.228   4.886  50.287  1.00  0.00    -0.224 NA
HETATM    6  C17 UNL     1      23.969   6.212  50.418  1.00  0.00     0.236 A 
HETATM    7  N4  UNL     1      24.869   7.139  50.000  1.00  0.00    -0.240 NA
HETATM    8  C18 UNL     1      26.031   6.756  49.450  1.00  0.00     0.089 A 
HETATM    9  C19 UNL     1      26.981   7.654  49.017  1.00  0.00     0.151 A 
HETATM   10  N5  UNL     1      28.116   7.159  48.485  1.00  0.00    -0.241 NA
ENDROOT
BRANCH   4  11
HETATM   11  N2  UNL     1      25.411   3.055  49.706  1.00  0.00    -0.340 N 
HETATM   12  H10 UNL     1      25.429   2.381  48.902  1.00  0.00     0.167 HD
BRANCH  11  13
HETATM   13  C11 UNL     1      25.406   2.459  51.026  1.00  0.00     0.035 A 
HETATM   14  C12 UNL     1      24.452   1.866  51.817  1.00  0.00     0.032 A 
HETATM   15  C13 UNL     1      24.789   1.429  53.081  1.00  0.00     0.046 A 
HETATM   16  C14 UNL     1      26.066   1.573  53.576  1.00  0.00     0.138 A 
HETATM   17  F1  UNL     1      26.293   1.111  54.829  1.00  0.00    -0.204 F 
HETATM   18  C15 UNL     1      27.027   2.170  52.780  1.00  0.00     0.074 A 
HETATM   19 CL1  UNL     1      28.616   2.293  53.541  1.00  0.00    -0.081 Cl
HETATM   20  C16 UNL     1      26.719   2.624  51.494  1.00  0.00     0.056 A 
ENDBRANCH  11  13
ENDBRANCH   4  11
BRANCH   1  21
HETATM   21  N1  UNL     1      29.591   5.512  47.783  1.00  0.00    -0.301 N 
HETATM   22  C6  UNL     1      30.972   5.307  48.027  1.00  0.00     0.302 C 
HETATM   23  O1  UNL     1      31.423   5.433  49.222  1.00  0.00    -0.258 OA
HETATM   24  H8  UNL     1      29.277   5.387  46.771  1.00  0.00     0.171 HD
BRANCH  22  25
HETATM   25  C5  UNL     1      31.850   4.963  46.952  1.00  0.00    -0.005 C 
HETATM   26  C4  UNL     1      32.610   4.657  46.046  1.00  0.00    -0.096 C 
BRANCH  26  27
HETATM   27  C3  UNL     1      33.529   4.278  44.974  1.00  0.00     0.094 C 
BRANCH  27  28
HETATM   28  C2  UNL     1      34.910   4.288  45.590  1.00  0.00     0.007 C 
HETATM   29  C1  UNL     1      34.990   3.154  46.582  1.00  0.00     0.006 C 
ENDBRANCH  27  28
ENDBRANCH  26  27
ENDBRANCH  22  25
ENDBRANCH   1  21
TORSDOF 6
ENDMDL
MODEL 5
REMARK VINA RESULT:      -7.9      2.171      3.201
REMARK  6 active torsions:
REMARK  status: ('A' for Active; 'I' for Inactive)
REMARK    1  A    between atoms: C2_2  and  C3_3 
REMARK    2  A    between atoms: C3_3  and  C4_4 
REMARK    3  A    between atoms: C5_5  and  C6_6 
REMARK       I    between atoms: C6_6  and  N1_8 
REMARK    4  A    between atoms: N1_8  and  C7_9 
REMARK    5  A    between atoms: C10_12  and  N2_13 
REMARK    6  A    between atoms: N2_13  and  C11_14 
ROOT
HETATM    1  C7  UNL     1      23.759   1.854  51.090  1.00  0.00     0.131 A 
HETATM    2  C8  UNL     1      24.115   1.249  52.297  1.00  0.00     0.068 A 
HETATM    3  C9  UNL     1      23.143   0.386  52.740  1.00  0.00     0.044 A 
HETATM    4  C10 UNL     1      23.444  -0.231  53.933  1.00  0.00     0.142 A 
HETATM    5  N3  UNL     1      22.568  -1.093  54.474  1.00  0.00    -0.224 NA
HETATM    6  C17 UNL     1      21.393  -1.355  53.848  1.00  0.00     0.236 A 
HETATM    7  N4  UNL     1      21.084  -0.753  52.671  1.00  0.00    -0.240 NA
HETATM    8  C18 UNL     1      21.940   0.113  52.108  1.00  0.00     0.089 A 
HETATM    9  C19 UNL     1      21.673   0.757  50.921  1.00  0.00     0.151 A 
HETATM   10  N5  UNL     1      22.601   1.613  50.448  1.00  0.00    -0.241 NA
ENDROOT
BRANCH   4  11
HETATM   11  N2  UNL     1      24.589  -0.135  54.766  1.00  0.00    -0.340 N 
HETATM   12  H10 UNL     1      24.698   0.179  55.761  1.00  0.00     0.167 HD
BRANCH  11  13
HETATM   13  C11 UNL     1      25.808  -0.542  54.099  1.00  0.00     0.035 A 
HETATM   14  C12 UNL     1      26.145  -1.549  53.226  1.00  0.00     0.032 A 
HETATM   15  C13 UNL     1      27.452  -1.678  52.804  1.00  0.00     0.046 A 
HETATM   16  C14 UNL     1      28.437  -0.818  53.239  1.00  0.00     0.138 A 
HETATM   17  F1  UNL     1      29.689  -1.031  52.766  1.00  0.00    -0.204 F 
HETATM   18  C15 UNL     1      28.098   0.194  54.118  1.00  0.00     0.074 A 
HETATM   19 CL1  UNL     1      29.458   1.217  54.594  1.00  0.00    -0.081 Cl
HETATM   20  C16 UNL     1      26.783   0.354  54.565  1.00  0.00     0.056 A 
ENDBRANCH  11  13
ENDBRANCH   4  11
BRANCH   1  21
HETATM   21  N1  UNL     1      24.607   2.779  50.440  1.00  0.00    -0.301 N 
HETATM   22  C6  UNL     1      24.677   4.041  49.798  1.00  0.00     0.302 C 
HETATM   23  O1  UNL     1      23.613   4.749  49.692  1.00  0.00    -0.258 OA
HETATM   24  H8  UNL     1      25.526   2.241  50.503  1.00  0.00     0.171 HD
BRANCH  22  25
HETATM   25  C5  UNL     1      25.921   4.516  49.278  1.00  0.00    -0.005 C 
HETATM   26  C4  UNL     1      26.984   4.936  48.847  1.00  0.00    -0.096 C 
BRANCH  26  27
HETATM   27  C3  UNL     1      28.258   5.452  48.347  1.00  0.00     0.094 C 
BRANCH  27  28
HETATM   28  C2  UNL     1      28.182   6.954  48.496  1.00  0.00     0.007 C 
HETATM   29  C1  UNL     1      27.277   7.489  47.414  1.00  0.00     0.006 C 
ENDBRANCH  27  28
ENDBRANCH  26  27
ENDBRANCH  22  25
ENDBRANCH   1  21
TORSDOF 6
ENDMDL
MODEL 6
REMARK VINA RESULT:      -7.9      2.662      3.424
REMARK  6 active torsions:
REMARK  status: ('A' for Active; 'I' for Inactive)
REMARK    1  A    between atoms: C2_2  and  C3_3 
REMARK    2  A    between atoms: C3_3  and  C4_4 
REMARK    3  A    between atoms: C5_5  and  C6_6 
REMARK       I    between atoms: C6_6  and  N1_8 
REMARK    4  A    between atoms: N1_8  and  C7_9 
REMARK    5  A    between atoms: C10_12  and  N2_13 
REMARK    6  A    between atoms: N2_13  and  C11_14 
ROOT
HETATM    1  C7  UNL     1      26.038   5.620  49.692  1.00  0.00     0.131 A 
HETATM    2  C8  UNL     1      25.206   4.501  49.763  1.00  0.00     0.068 A 
HETATM    3  C9  UNL     1      23.992   4.805  50.328  1.00  0.00     0.044 A 
HETATM    4  C10 UNL     1      23.137   3.731  50.428  1.00  0.00     0.142 A 
HETATM    5  N3  UNL     1      21.920   3.899  50.971  1.00  0.00    -0.224 NA
HETATM    6  C17 UNL     1      21.535   5.121  51.419  1.00  0.00     0.236 A 
HETATM    7  N4  UNL     1      22.370   6.188  51.327  1.00  0.00    -0.240 NA
HETATM    8  C18 UNL     1      23.591   6.049  50.789  1.00  0.00     0.089 A 
HETATM    9  C19 UNL     1      24.479   7.096  50.679  1.00  0.00     0.151 A 
HETATM   10  N5  UNL     1      25.683   6.842  50.128  1.00  0.00    -0.241 NA
ENDROOT
BRANCH   4  11
HETATM   11  N2  UNL     1      23.295   2.377  50.032  1.00  0.00    -0.340 N 
HETATM   12  H10 UNL     1      23.540   1.950  49.105  1.00  0.00     0.167 HD
BRANCH  11  13
HETATM   13  C11 UNL     1      23.064   1.441  51.113  1.00  0.00     0.035 A 
HETATM   14  C12 UNL     1      21.987   0.704  51.543  1.00  0.00     0.032 A 
HETATM   15  C13 UNL     1      22.104  -0.081  52.671  1.00  0.00     0.046 A 
HETATM   16  C14 UNL     1      23.280  -0.147  53.384  1.00  0.00     0.138 A 
HETATM   17  F1  UNL     1      23.291  -0.946  54.477  1.00  0.00    -0.204 F 
HETATM   18  C15 UNL     1      24.365   0.596  52.952  1.00  0.00     0.074 A 
HETATM   19 CL1  UNL     1      25.804   0.420  53.961  1.00  0.00    -0.081 Cl
HETATM   20  C16 UNL     1      24.280   1.402  51.812  1.00  0.00     0.056 A 
ENDBRANCH  11  13
ENDBRANCH   4  11
BRANCH   1  21
HETATM   21  N1  UNL     1      27.339   5.549  49.143  1.00  0.00    -0.301 N 
HETATM   22  C6  UNL     1      28.249   6.137  48.231  1.00  0.00     0.302 C 
HETATM   23  O1  UNL     1      27.884   7.166  47.557  1.00  0.00    -0.258 OA
HETATM   24  H8  UNL     1      27.703   4.700  49.678  1.00  0.00     0.171 HD
BRANCH  22  25
HETATM   25  C5  UNL     1      29.560   5.589  48.066  1.00  0.00    -0.005 C 
HETATM   26  C4  UNL     1      30.677   5.121  47.907  1.00  0.00    -0.096 C 
BRANCH  26  27
HETATM   27  C3  UNL     1      32.011   4.562  47.695  1.00  0.00     0.094 C 
BRANCH  27  28
HETATM   28  C2  UNL     1      31.836   3.444  46.693  1.00  0.00     0.007 C 
HETATM   29  C1  UNL     1      32.808   2.343  47.042  1.00  0.00     0.006 C 
ENDBRANCH  27  28
ENDBRANCH  26  27
ENDBRANCH  22  25
ENDBRANCH   1  21
TORSDOF 6
ENDMDL
MODEL 7
REMARK VINA RESULT:      -7.8      2.486      3.211
REMARK  6 active torsions:
REMARK  status: ('A' for Active; 'I' for Inactive)
REMARK    1  A    between atoms: C2_2  and  C3_3 
REMARK    2  A    between atoms: C3_3  and  C4_4 
REMARK    3  A    between atoms: C5_5  and  C6_6 
REMARK       I    between atoms: C6_6  and  N1_8 
REMARK    4  A    between atoms: N1_8  and  C7_9 
REMARK    5  A    between atoms: C10_12  and  N2_13 
REMARK    6  A    between atoms: N2_13  and  C11_14 
ROOT
HETATM    1  C7  UNL     1      24.033   4.171  50.593  1.00  0.00     0.131 A 
HETATM    2  C8  UNL     1      23.675   2.871  50.954  1.00  0.00     0.068 A 
HETATM    3  C9  UNL     1      22.430   2.829  51.531  1.00  0.00     0.044 A 
HETATM    4  C10 UNL     1      22.033   1.567  51.914  1.00  0.00     0.142 A 
HETATM    5  N3  UNL     1      20.836   1.396  52.497  1.00  0.00    -0.224 NA
HETATM    6  C17 UNL     1      20.021   2.460  52.709  1.00  0.00     0.236 A 
HETATM    7  N4  UNL     1      20.401   3.710  52.337  1.00  0.00    -0.240 NA
HETATM    8  C18 UNL     1      21.592   3.910  51.753  1.00  0.00     0.089 A 
HETATM    9  C19 UNL     1      22.029   5.157  51.364  1.00  0.00     0.151 A 
HETATM   10  N5  UNL     1      23.246   5.244  50.791  1.00  0.00    -0.241 NA
ENDROOT
BRANCH   4  11
HETATM   11  N2  UNL     1      22.686   0.312  51.797  1.00  0.00    -0.340 N 
HETATM   12  H10 UNL     1      22.910  -0.276  50.957  1.00  0.00     0.167 HD
BRANCH  11  13
HETATM   13  C11 UNL     1      23.098  -0.232  53.074  1.00  0.00     0.035 A 
HETATM   14  C12 UNL     1      22.460  -0.892  54.097  1.00  0.00     0.032 A 
HETATM   15  C13 UNL     1      23.167  -1.244  55.227  1.00  0.00     0.046 A 
HETATM   16  C14 UNL     1      24.506  -0.950  55.361  1.00  0.00     0.138 A 
HETATM   17  F1  UNL     1      25.107  -1.338  56.510  1.00  0.00    -0.204 F 
HETATM   18  C15 UNL     1      25.148  -0.285  54.331  1.00  0.00     0.074 A 
HETATM   19 CL1  UNL     1      26.859   0.032  54.638  1.00  0.00    -0.081 Cl
HETATM   20  C16 UNL     1      24.461   0.087  53.171  1.00  0.00     0.056 A 
ENDBRANCH  11  13
ENDBRANCH   4  11
BRANCH   1  21
HETATM   21  N1  UNL     1      25.273   4.460  49.978  1.00  0.00    -0.301 N 
HETATM   22  C6  UNL     1      26.528   3.932  49.588  1.00  0.00     0.302 C 
HETATM   23  O1  UNL     1      26.789   2.698  49.822  1.00  0.00    -0.258 OA
HETATM   24  H8  UNL     1      25.114   5.491  49.751  1.00  0.00     0.171 HD
BRANCH  22  25
HETATM   25  C5  UNL     1      27.492   4.767  48.940  1.00  0.00    -0.005 C 
HETATM   26  C4  UNL     1      28.301   5.491  48.379  1.00  0.00    -0.096 C 
BRANCH  26  27
HETATM   27  C3  UNL     1      29.253   6.367  47.700  1.00  0.00     0.094 C 
BRANCH  27  28
HETATM   28  C2  UNL     1      30.590   5.667  47.781  1.00  0.00     0.007 C 
HETATM   29  C1  UNL     1      31.277   6.114  49.049  1.00  0.00     0.006 C 
ENDBRANCH  27  28
ENDBRANCH  26  27
ENDBRANCH  22  25
ENDBRANCH   1  21
TORSDOF 6
ENDMDL
MODEL 8
REMARK VINA RESULT:      -7.7      2.439      3.313
REMARK  6 active torsions:
REMARK  status: ('A' for Active; 'I' for Inactive)
REMARK    1  A    between atoms: C2_2  and  C3_3 
REMARK    2  A    between atoms: C3_3  and  C4_4 
REMARK    3  A    between atoms: C5_5  and  C6_6 
REMARK       I    between atoms: C6_6  and  N1_8 
REMARK    4  A    between atoms: N1_8  and  C7_9 
REMARK    5  A    between atoms: C10_12  and  N2_13 
REMARK    6  A    between atoms: N2_13  and  C11_14 
ROOT
HETATM    1  C7  UNL     1      27.226   5.285  49.015  1.00  0.00     0.131 A 
HETATM    2  C8  UNL     1      26.430   4.248  49.505  1.00  0.00     0.068 A 
HETATM    3  C9  UNL     1      25.244   4.715  50.015  1.00  0.00     0.044 A 
HETATM    4  C10 UNL     1      24.425   3.731  50.520  1.00  0.00     0.142 A 
HETATM    5  N3  UNL     1      23.239   4.062  51.053  1.00  0.00    -0.224 NA
HETATM    6  C17 UNL     1      22.848   5.361  51.096  1.00  0.00     0.236 A 
HETATM    7  N4  UNL     1      23.647   6.343  50.602  1.00  0.00    -0.240 NA
HETATM    8  C18 UNL     1      24.838   6.040  50.064  1.00  0.00     0.089 A 
HETATM    9  C19 UNL     1      25.689   6.996  49.557  1.00  0.00     0.151 A 
HETATM   10  N5  UNL     1      26.865   6.581  49.045  1.00  0.00    -0.241 NA
ENDROOT
BRANCH   4  11
HETATM   11  N2  UNL     1      24.596   2.323  50.584  1.00  0.00    -0.340 N 
HETATM   12  H10 UNL     1      24.344   1.563  49.906  1.00  0.00     0.167 HD
BRANCH  11  13
HETATM   13  C11 UNL     1      25.223   1.886  51.814  1.00  0.00     0.035 A 
HETATM   14  C12 UNL     1      26.413   2.157  52.445  1.00  0.00     0.032 A 
HETATM   15  C13 UNL     1      26.723   1.514  53.625  1.00  0.00     0.046 A 
HETATM   16  C14 UNL     1      25.865   0.597  54.192  1.00  0.00     0.138 A 
HETATM   17  F1  UNL     1      26.263   0.020  55.351  1.00  0.00    -0.204 F 
HETATM   18  C15 UNL     1      24.667   0.323  53.557  1.00  0.00     0.074 A 
HETATM   19 CL1  UNL     1      23.668  -0.872  54.392  1.00  0.00    -0.081 Cl
HETATM   20  C16 UNL     1      24.321   0.958  52.360  1.00  0.00     0.056 A 
ENDBRANCH  11  13
ENDBRANCH   4  11
BRANCH   1  21
HETATM   21  N1  UNL     1      28.494   5.044  48.438  1.00  0.00    -0.301 N 
HETATM   22  C6  UNL     1      29.749   5.613  48.109  1.00  0.00     0.302 C 
HETATM   23  O1  UNL     1      29.973   6.844  48.395  1.00  0.00    -0.258 OA
HETATM   24  H8  UNL     1      28.371   4.016  48.181  1.00  0.00     0.171 HD
BRANCH  22  25
HETATM   25  C5  UNL     1      30.753   4.823  47.467  1.00  0.00    -0.005 C 
HETATM   26  C4  UNL     1      31.609   4.135  46.933  1.00  0.00    -0.096 C 
BRANCH  26  27
HETATM   27  C3  UNL     1      32.631   3.296  46.309  1.00  0.00     0.094 C 
BRANCH  27  28
HETATM   28  C2  UNL     1      32.894   2.170  47.282  1.00  0.00     0.007 C 
HETATM   29  C1  UNL     1      32.197   0.933  46.768  1.00  0.00     0.006 C 
ENDBRANCH  27  28
ENDBRANCH  26  27
ENDBRANCH  22  25
ENDBRANCH   1  21
TORSDOF 6
ENDMDL
MODEL 9
REMARK VINA RESULT:      -7.7      2.019      2.446
REMARK  6 active torsions:
REMARK  status: ('A' for Active; 'I' for Inactive)
REMARK    1  A    between atoms: C2_2  and  C3_3 
REMARK    2  A    between atoms: C3_3  and  C4_4 
REMARK    3  A    between atoms: C5_5  and  C6_6 
REMARK       I    between atoms: C6_6  and  N1_8 
REMARK    4  A    between atoms: N1_8  and  C7_9 
REMARK    5  A    between atoms: C10_12  and  N2_13 
REMARK    6  A    between atoms: N2_13  and  C11_14 
ROOT
HETATM    1  C7  UNL     1      25.788   5.728  49.921  1.00  0.00     0.131 A 
HETATM    2  C8  UNL     1      25.328   4.441  50.207  1.00  0.00     0.068 A 
HETATM    3  C9  UNL     1      24.136   4.467  50.888  1.00  0.00     0.044 A 
HETATM    4  C10 UNL     1      23.644   3.221  51.201  1.00  0.00     0.142 A 
HETATM    5  N3  UNL     1      22.487   3.113  51.874  1.00  0.00    -0.224 NA
HETATM    6  C17 UNL     1      21.806   4.228  52.243  1.00  0.00     0.236 A 
HETATM    7  N4  UNL     1      22.282   5.464  51.941  1.00  0.00    -0.240 NA
HETATM    8  C18 UNL     1      23.435   5.600  51.270  1.00  0.00     0.089 A 
HETATM    9  C19 UNL     1      23.966   6.828  50.946  1.00  0.00     0.151 A 
HETATM   10  N5  UNL     1      25.135   6.849  50.275  1.00  0.00    -0.241 NA
ENDROOT
BRANCH   4  11
HETATM   11  N2  UNL     1      24.152   1.924  50.925  1.00  0.00    -0.340 N 
HETATM   12  H10 UNL     1      24.162   1.358  50.041  1.00  0.00     0.167 HD
BRANCH  11  13
HETATM   13  C11 UNL     1      24.747   1.291  52.084  1.00  0.00     0.035 A 
HETATM   14  C12 UNL     1      24.344   0.324  52.973  1.00  0.00     0.032 A 
HETATM   15  C13 UNL     1      25.170  -0.025  54.021  1.00  0.00     0.046 A 
HETATM   16  C14 UNL     1      26.396   0.575  54.203  1.00  0.00     0.138 A 
HETATM   17  F1  UNL     1      27.130   0.161  55.264  1.00  0.00    -0.204 F 
HETATM   18  C15 UNL     1      26.801   1.549  53.308  1.00  0.00     0.074 A 
HETATM   19 CL1  UNL     1      28.390   2.235  53.664  1.00  0.00    -0.081 Cl
HETATM   20  C16 UNL     1      25.989   1.927  52.234  1.00  0.00     0.056 A 
ENDBRANCH  11  13
ENDBRANCH   4  11
BRANCH   1  21
HETATM   21  N1  UNL     1      26.997   5.950  49.222  1.00  0.00    -0.301 N 
HETATM   22  C6  UNL     1      27.627   6.699  48.197  1.00  0.00     0.302 C 
HETATM   23  O1  UNL     1      26.946   7.575  47.553  1.00  0.00    -0.258 OA
HETATM   24  H8  UNL     1      27.617   5.242  49.725  1.00  0.00     0.171 HD
BRANCH  22  25
HETATM   25  C5  UNL     1      29.005   6.480  47.887  1.00  0.00    -0.005 C 
HETATM   26  C4  UNL     1      30.178   6.276  47.614  1.00  0.00    -0.096 C 
BRANCH  26  27
HETATM   27  C3  UNL     1      31.577   6.016  47.276  1.00  0.00     0.094 C 
BRANCH  27  28
HETATM   28  C2  UNL     1      31.905   4.670  47.883  1.00  0.00     0.007 C 
HETATM   29  C1  UNL     1      31.988   3.659  46.765  1.00  0.00     0.006 C 
ENDBRANCH  27  28
ENDBRANCH  26  27
ENDBRANCH  22  25
ENDBRANCH   1  21
TORSDOF 6
ENDMDL
