MODEL 1
REMARK VINA RESULT:      -7.4      0.000      0.000
REMARK  9 active torsions:
REMARK  status: ('A' for Active; 'I' for Inactive)
REMARK    1  A    between atoms: C1_2  and  O1_3 
REMARK    2  A    between atoms: O1_3  and  C2_4 
REMARK    3  A    between atoms: N1_9  and  C6_10 
REMARK    4  A    between atoms: C6_10  and  C7_11 
REMARK    5  A    between atoms: C7_11  and  C8_12 
REMARK    6  A    between atoms: C8_12  and  O3_13 
REMARK    7  A    between atoms: O3_13  and  C9_14 
REMARK    8  A    between atoms: C9_14  and  C10_15 
REMARK    9  A    between atoms: N2_18  and  C13_19 
ROOT
HETATM    1  C9  UNL     1      22.631   1.536  52.770  1.00  0.00     0.181 C 
ENDROOT
BRANCH   1   2
HETATM    2  O3  UNL     1      23.460   0.519  52.354  1.00  0.00    -0.390 OA
BRANCH   2   3
HETATM    3  C8  UNL     1      23.351  -0.612  53.160  1.00  0.00     0.169 C 
BRANCH   3   4
HETATM    4  C7  UNL     1      24.351  -0.664  54.283  1.00  0.00     0.046 C 
BRANCH   4   5
HETATM    5  C6  UNL     1      25.777  -0.672  53.898  1.00  0.00     0.121 C 
BRANCH   5   6
HETATM    6  N1  UNL     1      26.602   0.412  54.124  1.00  0.00    -0.384 N 
HETATM    7  C2  UNL     1      27.997   0.199  54.233  1.00  0.00     0.245 C 
HETATM    8  C3  UNL     1      28.780   1.076  53.313  1.00  0.00     0.221 C 
HETATM    9  O2  UNL     1      28.003   1.850  52.468  1.00  0.00    -0.385 OA
HETATM   10  C4  UNL     1      26.990   2.558  53.092  1.00  0.00     0.187 C 
HETATM   11  C5  UNL     1      26.168   1.740  54.028  1.00  0.00     0.145 C 
BRANCH   7  12
HETATM   12  O1  UNL     1      28.297  -1.157  54.124  1.00  0.00    -0.336 OA
BRANCH  12  13
HETATM   13  C1  UNL     1      29.459  -1.320  53.370  1.00  0.00     0.394 C 
HETATM   14  F1  UNL     1      30.565  -1.518  54.178  1.00  0.00    -0.227 F 
ENDBRANCH  12  13
ENDBRANCH   7  12
ENDBRANCH   5   6
ENDBRANCH   4   5
ENDBRANCH   3   4
ENDBRANCH   2   3
ENDBRANCH   1   2
BRANCH   1  15
HETATM   15  C10 UNL     1      22.458   2.656  51.779  1.00  0.00     0.075 A 
HETATM   16  C11 UNL     1      22.982   2.171  50.465  1.00  0.00     0.005 A 
HETATM   17  C12 UNL     1      23.928   2.785  49.789  1.00  0.00     0.115 A 
HETATM   18  N2  UNL     1      24.513   3.973  50.288  1.00  0.00    -0.246 N 
HETATM   19  N3  UNL     1      24.048   4.448  51.503  1.00  0.00    -0.184 NA
HETATM   20  C19 UNL     1      23.124   3.888  52.210  1.00  0.00     0.123 A 
BRANCH  18  21
HETATM   21  C13 UNL     1      25.537   4.694  49.616  1.00  0.00     0.058 A 
HETATM   22  C14 UNL     1      25.349   6.016  49.232  1.00  0.00     0.033 A 
HETATM   23  C15 UNL     1      26.335   6.720  48.580  1.00  0.00     0.026 A 
HETATM   24  C16 UNL     1      27.538   6.144  48.283  1.00  0.00     0.034 A 
HETATM   25 CL1  UNL     1      28.833   7.008  47.446  1.00  0.00    -0.084 Cl
HETATM   26  C17 UNL     1      27.785   4.821  48.643  1.00  0.00     0.026 A 
HETATM   27  C18 UNL     1      26.767   4.169  49.291  1.00  0.00     0.033 A 
ENDBRANCH  18  21
ENDBRANCH   1  15
TORSDOF 9
ENDMDL
MODEL 2
REMARK VINA RESULT:      -7.2      4.357      7.037
REMARK  9 active torsions:
REMARK  status: ('A' for Active; 'I' for Inactive)
REMARK    1  A    between atoms: C1_2  and  O1_3 
REMARK    2  A    between atoms: O1_3  and  C2_4 
REMARK    3  A    between atoms: N1_9  and  C6_10 
REMARK    4  A    between atoms: C6_10  and  C7_11 
REMARK    5  A    between atoms: C7_11  and  C8_12 
REMARK    6  A    between atoms: C8_12  and  O3_13 
REMARK    7  A    between atoms: O3_13  and  C9_14 
REMARK    8  A    between atoms: C9_14  and  C10_15 
REMARK    9  A    between atoms: N2_18  and  C13_19 
ROOT
HETATM    1  C9  UNL     1      20.225  -0.538  53.265  1.00  0.00     0.181 C 
ENDROOT
BRANCH   1   2
HETATM    2  O3  UNL     1      20.087  -0.008  52.003  1.00  0.00    -0.390 OA
BRANCH   2   3
HETATM    3  C8  UNL     1      18.751   0.113  51.626  1.00  0.00     0.169 C 
BRANCH   3   4
HETATM    4  C7  UNL     1      18.363   1.496  51.179  1.00  0.00     0.046 C 
BRANCH   4   5
HETATM    5  C6  UNL     1      19.406   2.538  51.274  1.00  0.00     0.121 C 
BRANCH   5   6
HETATM    6  N1  UNL     1      20.273   2.803  50.233  1.00  0.00    -0.384 N 
HETATM    7  C2  UNL     1      21.391   3.637  50.469  1.00  0.00     0.245 C 
HETATM    8  C3  UNL     1      22.674   3.004  50.043  1.00  0.00     0.221 C 
HETATM    9  O2  UNL     1      22.543   1.701  49.596  1.00  0.00    -0.385 OA
HETATM   10  C4  UNL     1      21.551   1.505  48.650  1.00  0.00     0.187 C 
HETATM   11  C5  UNL     1      20.241   2.115  49.013  1.00  0.00     0.145 C 
BRANCH   7  12
HETATM   12  O1  UNL     1      21.391   4.100  51.783  1.00  0.00    -0.336 OA
BRANCH  12  13
HETATM   13  C1  UNL     1      22.558   4.823  52.025  1.00  0.00     0.394 C 
HETATM   14  F1  UNL     1      23.276   4.290  53.080  1.00  0.00    -0.227 F 
ENDBRANCH  12  13
ENDBRANCH   7  12
ENDBRANCH   5   6
ENDBRANCH   4   5
ENDBRANCH   3   4
ENDBRANCH   2   3
ENDBRANCH   1   2
BRANCH   1  15
HETATM   15  C10 UNL     1      21.275   0.123  54.118  1.00  0.00     0.075 A 
HETATM   16  C11 UNL     1      22.091   0.996  53.218  1.00  0.00     0.005 A 
HETATM   17  C12 UNL     1      23.396   0.892  53.093  1.00  0.00     0.115 A 
HETATM   18  N2  UNL     1      24.112  -0.083  53.827  1.00  0.00    -0.246 N 
HETATM   19  N3  UNL     1      23.385  -0.907  54.669  1.00  0.00    -0.184 NA
HETATM   20  C19 UNL     1      22.105  -0.850  54.833  1.00  0.00     0.123 A 
BRANCH  18  21
HETATM   21  C13 UNL     1      25.521  -0.255  53.747  1.00  0.00     0.058 A 
HETATM   22  C14 UNL     1      26.088  -1.090  52.791  1.00  0.00     0.033 A 
HETATM   23  C15 UNL     1      27.450  -1.262  52.708  1.00  0.00     0.026 A 
HETATM   24  C16 UNL     1      28.299  -0.619  53.564  1.00  0.00     0.034 A 
HETATM   25 CL1  UNL     1      30.055  -0.811  53.496  1.00  0.00    -0.084 Cl
HETATM   26  C17 UNL     1      27.789   0.231  54.543  1.00  0.00     0.026 A 
HETATM   27  C18 UNL     1      26.425   0.365  54.580  1.00  0.00     0.033 A 
ENDBRANCH  18  21
ENDBRANCH   1  15
TORSDOF 9
ENDMDL
MODEL 3
REMARK VINA RESULT:      -7.2      2.109      3.438
REMARK  9 active torsions:
REMARK  status: ('A' for Active; 'I' for Inactive)
REMARK    1  A    between atoms: C1_2  and  O1_3 
REMARK    2  A    between atoms: O1_3  and  C2_4 
REMARK    3  A    between atoms: N1_9  and  C6_10 
REMARK    4  A    between atoms: C6_10  and  C7_11 
REMARK    5  A    between atoms: C7_11  and  C8_12 
REMARK    6  A    between atoms: C8_12  and  O3_13 
REMARK    7  A    between atoms: O3_13  and  C9_14 
REMARK    8  A    between atoms: C9_14  and  C10_15 
REMARK    9  A    between atoms: N2_18  and  C13_19 
ROOT
HETATM    1  C9  UNL     1      23.265   4.075  50.626  1.00  0.00     0.181 C 
ENDROOT
BRANCH   1   2
HETATM    2  O3  UNL     1      23.725   4.955  51.578  1.00  0.00    -0.390 OA
BRANCH   2   3
HETATM    3  C8  UNL     1      23.575   4.458  52.871  1.00  0.00     0.169 C 
BRANCH   3   4
HETATM    4  C7  UNL     1      23.880   2.991  53.002  1.00  0.00     0.046 C 
BRANCH   4   5
HETATM    5  C6  UNL     1      25.216   2.637  53.524  1.00  0.00     0.121 C 
BRANCH   5   6
HETATM    6  N1  UNL     1      25.698   1.344  53.483  1.00  0.00    -0.384 N 
HETATM    7  C2  UNL     1      27.054   1.109  53.814  1.00  0.00     0.245 C 
HETATM    8  C3  UNL     1      27.209   0.061  54.866  1.00  0.00     0.221 C 
HETATM    9  O2  UNL     1      26.013  -0.408  55.382  1.00  0.00    -0.385 OA
HETATM   10  C4  UNL     1      25.076  -0.784  54.434  1.00  0.00     0.187 C 
HETATM   11  C5  UNL     1      24.873   0.220  53.353  1.00  0.00     0.145 C 
BRANCH   7  12
HETATM   12  O1  UNL     1      27.705   2.307  54.102  1.00  0.00    -0.336 OA
BRANCH  12  13
HETATM   13  C1  UNL     1      29.053   2.200  53.763  1.00  0.00     0.394 C 
HETATM   14  F1  UNL     1      29.871   2.600  54.805  1.00  0.00    -0.227 F 
ENDBRANCH  12  13
ENDBRANCH   7  12
ENDBRANCH   5   6
ENDBRANCH   4   5
ENDBRANCH   3   4
ENDBRANCH   2   3
ENDBRANCH   1   2
BRANCH   1  15
HETATM   15  C10 UNL     1      24.032   4.086  49.330  1.00  0.00     0.075 A 
HETATM   16  C11 UNL     1      25.370   3.475  49.603  1.00  0.00     0.005 A 
HETATM   17  C12 UNL     1      26.510   4.086  49.361  1.00  0.00     0.115 A 
HETATM   18  N2  UNL     1      26.524   5.390  48.814  1.00  0.00    -0.246 N 
HETATM   19  N3  UNL     1      25.301   5.983  48.550  1.00  0.00    -0.184 NA
HETATM   20  C19 UNL     1      24.152   5.433  48.766  1.00  0.00     0.123 A 
BRANCH  18  21
HETATM   21  C13 UNL     1      27.713   6.113  48.523  1.00  0.00     0.058 A 
HETATM   22  C14 UNL     1      28.913   5.453  48.287  1.00  0.00     0.033 A 
HETATM   23  C15 UNL     1      30.068   6.146  48.006  1.00  0.00     0.026 A 
HETATM   24  C16 UNL     1      30.080   7.511  47.949  1.00  0.00     0.034 A 
HETATM   25 CL1  UNL     1      31.539   8.443  47.594  1.00  0.00    -0.084 Cl
HETATM   26  C17 UNL     1      28.907   8.227  48.178  1.00  0.00     0.026 A 
HETATM   27  C18 UNL     1      27.787   7.486  48.453  1.00  0.00     0.033 A 
ENDBRANCH  18  21
ENDBRANCH   1  15
TORSDOF 9
ENDMDL
MODEL 4
REMARK VINA RESULT:      -7.0      3.531      6.532
REMARK  9 active torsions:
REMARK  status: ('A' for Active; 'I' for Inactive)
REMARK    1  A    between atoms: C1_2  and  O1_3 
REMARK    2  A    between atoms: O1_3  and  C2_4 
REMARK    3  A    between atoms: N1_9  and  C6_10 
REMARK    4  A    between atoms: C6_10  and  C7_11 
REMARK    5  A    between atoms: C7_11  and  C8_12 
REMARK    6  A    between atoms: C8_12  and  O3_13 
REMARK    7  A    between atoms: O3_13  and  C9_14 
REMARK    8  A    between atoms: C9_14  and  C10_15 
REMARK    9  A    between atoms: N2_18  and  C13_19 
ROOT
HETATM    1  C9  UNL     1      20.768   0.752  51.784  1.00  0.00     0.181 C 
ENDROOT
BRANCH   1   2
HETATM    2  O3  UNL     1      21.438   0.319  50.663  1.00  0.00    -0.390 OA
BRANCH   2   3
HETATM    3  C8  UNL     1      21.284   1.193  49.588  1.00  0.00     0.169 C 
BRANCH   3   4
HETATM    4  C7  UNL     1      22.537   1.941  49.223  1.00  0.00     0.046 C 
BRANCH   4   5
HETATM    5  C6  UNL     1      22.427   3.412  49.137  1.00  0.00     0.121 C 
BRANCH   5   6
HETATM    6  N1  UNL     1      22.680   4.228  50.222  1.00  0.00    -0.384 N 
HETATM    7  C2  UNL     1      23.984   4.749  50.397  1.00  0.00     0.245 C 
HETATM    8  C3  UNL     1      23.988   6.233  50.557  1.00  0.00     0.221 C 
HETATM    9  O2  UNL     1      22.745   6.824  50.409  1.00  0.00    -0.385 OA
HETATM   10  C4  UNL     1      21.730   6.242  51.151  1.00  0.00     0.187 C 
HETATM   11  C5  UNL     1      21.670   4.758  51.036  1.00  0.00     0.145 C 
BRANCH   7  12
HETATM   12  O1  UNL     1      24.838   4.280  49.401  1.00  0.00    -0.336 OA
BRANCH  12  13
HETATM   13  C1  UNL     1      26.070   3.945  49.961  1.00  0.00     0.394 C 
HETATM   14  F1  UNL     1      26.874   3.275  49.055  1.00  0.00    -0.227 F 
ENDBRANCH  12  13
ENDBRANCH   7  12
ENDBRANCH   5   6
ENDBRANCH   4   5
ENDBRANCH   3   4
ENDBRANCH   2   3
ENDBRANCH   1   2
BRANCH   1  15
HETATM   15  C10 UNL     1      21.580   0.736  53.052  1.00  0.00     0.075 A 
HETATM   16  C11 UNL     1      22.618   1.805  52.926  1.00  0.00     0.005 A 
HETATM   17  C12 UNL     1      23.910   1.580  53.039  1.00  0.00     0.115 A 
HETATM   18  N2  UNL     1      24.392   0.275  53.293  1.00  0.00    -0.246 N 
HETATM   19  N3  UNL     1      23.454  -0.737  53.415  1.00  0.00    -0.184 NA
HETATM   20  C19 UNL     1      22.177  -0.576  53.314  1.00  0.00     0.123 A 
BRANCH  18  21
HETATM   21  C13 UNL     1      25.770  -0.046  53.429  1.00  0.00     0.058 A 
HETATM   22  C14 UNL     1      26.377  -0.971  52.588  1.00  0.00     0.033 A 
HETATM   23  C15 UNL     1      27.710  -1.287  52.715  1.00  0.00     0.026 A 
HETATM   24  C16 UNL     1      28.489  -0.704  53.675  1.00  0.00     0.034 A 
HETATM   25 CL1  UNL     1      30.204  -1.080  53.876  1.00  0.00    -0.084 Cl
HETATM   26  C17 UNL     1      27.935   0.231  54.547  1.00  0.00     0.026 A 
HETATM   27  C18 UNL     1      26.604   0.508  54.375  1.00  0.00     0.033 A 
ENDBRANCH  18  21
ENDBRANCH   1  15
TORSDOF 9
ENDMDL
MODEL 5
REMARK VINA RESULT:      -7.0      1.624      2.228
REMARK  9 active torsions:
REMARK  status: ('A' for Active; 'I' for Inactive)
REMARK    1  A    between atoms: C1_2  and  O1_3 
REMARK    2  A    between atoms: O1_3  and  C2_4 
REMARK    3  A    between atoms: N1_9  and  C6_10 
REMARK    4  A    between atoms: C6_10  and  C7_11 
REMARK    5  A    between atoms: C7_11  and  C8_12 
REMARK    6  A    between atoms: C8_12  and  O3_13 
REMARK    7  A    between atoms: O3_13  and  C9_14 
REMARK    8  A    between atoms: C9_14  and  C10_15 
REMARK    9  A    between atoms: N2_18  and  C13_19 
ROOT
HETATM    1  C9  UNL     1      21.329   2.463  52.327  1.00  0.00     0.181 C 
ENDROOT
BRANCH   1   2
HETATM    2  O3  UNL     1      22.087   1.401  51.890  1.00  0.00    -0.390 OA
BRANCH   2   3
HETATM    3  C8  UNL     1      23.241   1.228  52.651  1.00  0.00     0.169 C 
BRANCH   3   4
HETATM    4  C7  UNL     1      24.518   1.376  51.870  1.00  0.00     0.046 C 
BRANCH   4   5
HETATM    5  C6  UNL     1      25.681   0.602  52.351  1.00  0.00     0.121 C 
BRANCH   5   6
HETATM    6  N1  UNL     1      26.456   1.030  53.411  1.00  0.00    -0.384 N 
HETATM    7  C2  UNL     1      26.641   0.166  54.516  1.00  0.00     0.245 C 
HETATM    8  C3  UNL     1      28.082  -0.032  54.850  1.00  0.00     0.221 C 
HETATM    9  O2  UNL     1      28.958   0.578  53.969  1.00  0.00    -0.385 OA
HETATM   10  C4  UNL     1      28.684   1.909  53.701  1.00  0.00     0.187 C 
HETATM   11  C5  UNL     1      27.259   2.177  53.361  1.00  0.00     0.145 C 
BRANCH   7  12
HETATM   12  O1  UNL     1      25.927  -1.017  54.340  1.00  0.00    -0.336 OA
BRANCH  12  13
HETATM   13  C1  UNL     1      24.989  -1.155  55.361  1.00  0.00     0.394 C 
HETATM   14  F1  UNL     1      25.463  -0.649  56.558  1.00  0.00    -0.227 F 
ENDBRANCH  12  13
ENDBRANCH   7  12
ENDBRANCH   5   6
ENDBRANCH   4   5
ENDBRANCH   3   4
ENDBRANCH   2   3
ENDBRANCH   1   2
BRANCH   1  15
HETATM   15  C10 UNL     1      21.563   3.754  51.587  1.00  0.00     0.075 A 
HETATM   16  C11 UNL     1      21.858   3.401  50.164  1.00  0.00     0.005 A 
HETATM   17  C12 UNL     1      22.954   3.769  49.537  1.00  0.00     0.115 A 
HETATM   18  N2  UNL     1      23.937   4.540  50.201  1.00  0.00    -0.246 N 
HETATM   19  N3  UNL     1      23.693   4.883  51.520  1.00  0.00    -0.184 NA
HETATM   20  C19 UNL     1      22.637   4.551  52.186  1.00  0.00     0.123 A 
BRANCH  18  21
HETATM   21  C13 UNL     1      25.145   4.977  49.590  1.00  0.00     0.058 A 
HETATM   22  C14 UNL     1      26.248   4.136  49.501  1.00  0.00     0.033 A 
HETATM   23  C15 UNL     1      27.419   4.553  48.913  1.00  0.00     0.026 A 
HETATM   24  C16 UNL     1      27.544   5.810  48.394  1.00  0.00     0.034 A 
HETATM   25 CL1  UNL     1      29.030   6.388  47.630  1.00  0.00    -0.084 Cl
HETATM   26  C17 UNL     1      26.472   6.698  48.454  1.00  0.00     0.026 A 
HETATM   27  C18 UNL     1      25.330   6.230  49.050  1.00  0.00     0.033 A 
ENDBRANCH  18  21
ENDBRANCH   1  15
TORSDOF 9
ENDMDL
MODEL 6
REMARK VINA RESULT:      -6.9      1.709      2.606
REMARK  9 active torsions:
REMARK  status: ('A' for Active; 'I' for Inactive)
REMARK    1  A    between atoms: C1_2  and  O1_3 
REMARK    2  A    between atoms: O1_3  and  C2_4 
REMARK    3  A    between atoms: N1_9  and  C6_10 
REMARK    4  A    between atoms: C6_10  and  C7_11 
REMARK    5  A    between atoms: C7_11  and  C8_12 
REMARK    6  A    between atoms: C8_12  and  O3_13 
REMARK    7  A    between atoms: O3_13  and  C9_14 
REMARK    8  A    between atoms: C9_14  and  C10_15 
REMARK    9  A    between atoms: N2_18  and  C13_19 
ROOT
HETATM    1  C9  UNL     1      23.266   2.435  52.461  1.00  0.00     0.181 C 
ENDROOT
BRANCH   1   2
HETATM    2  O3  UNL     1      24.449   2.561  53.152  1.00  0.00    -0.390 OA
BRANCH   2   3
HETATM    3  C8  UNL     1      25.287   1.464  52.967  1.00  0.00     0.169 C 
BRANCH   3   4
HETATM    4  C7  UNL     1      25.140   0.396  54.016  1.00  0.00     0.046 C 
BRANCH   4   5
HETATM    5  C6  UNL     1      26.381  -0.277  54.452  1.00  0.00     0.121 C 
BRANCH   5   6
HETATM    6  N1  UNL     1      27.361  -0.656  53.556  1.00  0.00    -0.384 N 
HETATM    7  C2  UNL     1      28.655  -0.097  53.681  1.00  0.00     0.245 C 
HETATM    8  C3  UNL     1      29.722  -1.139  53.741  1.00  0.00     0.221 C 
HETATM    9  O2  UNL     1      29.246  -2.439  53.761  1.00  0.00    -0.385 OA
HETATM   10  C4  UNL     1      28.312  -2.733  52.782  1.00  0.00     0.187 C 
HETATM   11  C5  UNL     1      27.217  -1.730  52.669  1.00  0.00     0.145 C 
BRANCH   7  12
HETATM   12  O1  UNL     1      28.695   0.822  54.728  1.00  0.00    -0.336 OA
BRANCH  12  13
HETATM   13  C1  UNL     1      29.240   2.023  54.277  1.00  0.00     0.394 C 
HETATM   14  F1  UNL     1      28.264   2.866  53.775  1.00  0.00    -0.227 F 
ENDBRANCH  12  13
ENDBRANCH   7  12
ENDBRANCH   5   6
ENDBRANCH   4   5
ENDBRANCH   3   4
ENDBRANCH   2   3
ENDBRANCH   1   2
BRANCH   1  15
HETATM   15  C10 UNL     1      23.024   3.495  51.420  1.00  0.00     0.075 A 
HETATM   16  C11 UNL     1      23.826   3.121  50.214  1.00  0.00     0.005 A 
HETATM   17  C12 UNL     1      24.722   3.912  49.664  1.00  0.00     0.115 A 
HETATM   18  N2  UNL     1      24.977   5.194  50.205  1.00  0.00    -0.246 N 
HETATM   19  N3  UNL     1      24.250   5.569  51.322  1.00  0.00    -0.184 NA
HETATM   20  C19 UNL     1      23.359   4.837  51.904  1.00  0.00     0.123 A 
BRANCH  18  21
HETATM   21  C13 UNL     1      25.926   6.105  49.666  1.00  0.00     0.058 A 
HETATM   22  C14 UNL     1      26.844   5.698  48.705  1.00  0.00     0.033 A 
HETATM   23  C15 UNL     1      27.766   6.574  48.180  1.00  0.00     0.026 A 
HETATM   24  C16 UNL     1      27.816   7.878  48.585  1.00  0.00     0.034 A 
HETATM   25 CL1  UNL     1      28.983   9.037  47.940  1.00  0.00    -0.084 Cl
HETATM   26  C17 UNL     1      26.921   8.343  49.546  1.00  0.00     0.026 A 
HETATM   27  C18 UNL     1      26.024   7.428  50.034  1.00  0.00     0.033 A 
ENDBRANCH  18  21
ENDBRANCH   1  15
TORSDOF 9
ENDMDL
MODEL 7
REMARK VINA RESULT:      -6.9      1.851      2.670
REMARK  9 active torsions:
REMARK  status: ('A' for Active; 'I' for Inactive)
REMARK    1  A    between atoms: C1_2  and  O1_3 
REMARK    2  A    between atoms: O1_3  and  C2_4 
REMARK    3  A    between atoms: N1_9  and  C6_10 
REMARK    4  A    between atoms: C6_10  and  C7_11 
REMARK    5  A    between atoms: C7_11  and  C8_12 
REMARK    6  A    between atoms: C8_12  and  O3_13 
REMARK    7  A    between atoms: O3_13  and  C9_14 
REMARK    8  A    between atoms: C9_14  and  C10_15 
REMARK    9  A    between atoms: N2_18  and  C13_19 
ROOT
HETATM    1  C9  UNL     1      23.503   2.951  50.387  1.00  0.00     0.181 C 
ENDROOT
BRANCH   1   2
HETATM    2  O3  UNL     1      23.352   1.667  50.859  1.00  0.00    -0.390 OA
BRANCH   2   3
HETATM    3  C8  UNL     1      22.822   1.639  52.148  1.00  0.00     0.169 C 
BRANCH   3   4
HETATM    4  C7  UNL     1      23.632   0.833  53.126  1.00  0.00     0.046 C 
BRANCH   4   5
HETATM    5  C6  UNL     1      25.031   0.547  52.748  1.00  0.00     0.121 C 
BRANCH   5   6
HETATM    6  N1  UNL     1      26.090   0.841  53.583  1.00  0.00    -0.384 N 
HETATM    7  C2  UNL     1      26.875  -0.220  54.093  1.00  0.00     0.245 C 
HETATM    8  C3  UNL     1      28.332  -0.024  53.837  1.00  0.00     0.221 C 
HETATM    9  O2  UNL     1      28.630   1.091  53.074  1.00  0.00    -0.385 OA
HETATM   10  C4  UNL     1      28.035   2.266  53.502  1.00  0.00     0.187 C 
HETATM   11  C5  UNL     1      26.577   2.141  53.777  1.00  0.00     0.145 C 
BRANCH   7  12
HETATM   12  O1  UNL     1      26.379  -1.449  53.663  1.00  0.00    -0.336 OA
BRANCH  12  13
HETATM   13  C1  UNL     1      27.314  -2.067  52.834  1.00  0.00     0.394 C 
HETATM   14  F1  UNL     1      26.702  -2.756  51.803  1.00  0.00    -0.227 F 
ENDBRANCH  12  13
ENDBRANCH   7  12
ENDBRANCH   5   6
ENDBRANCH   4   5
ENDBRANCH   3   4
ENDBRANCH   2   3
ENDBRANCH   1   2
BRANCH   1  15
HETATM   15  C10 UNL     1      24.747   3.656  50.857  1.00  0.00     0.075 A 
HETATM   16  C11 UNL     1      24.546   5.118  50.613  1.00  0.00     0.005 A 
HETATM   17  C12 UNL     1      25.363   5.853  49.889  1.00  0.00     0.115 A 
HETATM   18  N2  UNL     1      26.507   5.276  49.289  1.00  0.00    -0.246 N 
HETATM   19  N3  UNL     1      26.720   3.924  49.497  1.00  0.00    -0.184 NA
HETATM   20  C19 UNL     1      25.955   3.154  50.196  1.00  0.00     0.123 A 
BRANCH  18  21
HETATM   21  C13 UNL     1      27.436   6.004  48.496  1.00  0.00     0.058 A 
HETATM   22  C14 UNL     1      28.751   5.577  48.361  1.00  0.00     0.033 A 
HETATM   23  C15 UNL     1      29.655   6.277  47.596  1.00  0.00     0.026 A 
HETATM   24  C16 UNL     1      29.294   7.420  46.940  1.00  0.00     0.034 A 
HETATM   25 CL1  UNL     1      30.422   8.353  45.949  1.00  0.00    -0.084 Cl
HETATM   26  C17 UNL     1      27.989   7.897  47.039  1.00  0.00     0.026 A 
HETATM   27  C18 UNL     1      27.131   7.160  47.813  1.00  0.00     0.033 A 
ENDBRANCH  18  21
ENDBRANCH   1  15
TORSDOF 9
ENDMDL
MODEL 8
REMARK VINA RESULT:      -6.9      1.633      2.512
REMARK  9 active torsions:
REMARK  status: ('A' for Active; 'I' for Inactive)
REMARK    1  A    between atoms: C1_2  and  O1_3 
REMARK    2  A    between atoms: O1_3  and  C2_4 
REMARK    3  A    between atoms: N1_9  and  C6_10 
REMARK    4  A    between atoms: C6_10  and  C7_11 
REMARK    5  A    between atoms: C7_11  and  C8_12 
REMARK    6  A    between atoms: C8_12  and  O3_13 
REMARK    7  A    between atoms: O3_13  and  C9_14 
REMARK    8  A    between atoms: C9_14  and  C10_15 
REMARK    9  A    between atoms: N2_18  and  C13_19 
ROOT
HETATM    1  C9  UNL     1      21.934   3.241  52.119  1.00  0.00     0.181 C 
ENDROOT
BRANCH   1   2
HETATM    2  O3  UNL     1      22.901   2.272  52.256  1.00  0.00    -0.390 OA
BRANCH   2   3
HETATM    3  C8  UNL     1      23.904   2.651  53.147  1.00  0.00     0.169 C 
BRANCH   3   4
HETATM    4  C7  UNL     1      25.288   2.622  52.559  1.00  0.00     0.046 C 
BRANCH   4   5
HETATM    5  C6  UNL     1      25.701   1.364  51.902  1.00  0.00     0.121 C 
BRANCH   5   6
HETATM    6  N1  UNL     1      26.167   0.282  52.622  1.00  0.00    -0.384 N 
HETATM    7  C2  UNL     1      27.504   0.293  53.085  1.00  0.00     0.245 C 
HETATM    8  C3  UNL     1      27.601   0.028  54.551  1.00  0.00     0.221 C 
HETATM    9  O2  UNL     1      26.379  -0.081  55.190  1.00  0.00    -0.385 OA
HETATM   10  C4  UNL     1      25.477  -0.939  54.585  1.00  0.00     0.187 C 
HETATM   11  C5  UNL     1      25.332  -0.728  53.117  1.00  0.00     0.145 C 
BRANCH   7  12
HETATM   12  O1  UNL     1      28.159   1.451  52.670  1.00  0.00    -0.336 OA
BRANCH  12  13
HETATM   13  C1  UNL     1      28.766   2.064  53.765  1.00  0.00     0.394 C 
HETATM   14  F1  UNL     1      29.509   3.167  53.383  1.00  0.00    -0.227 F 
ENDBRANCH  12  13
ENDBRANCH   7  12
ENDBRANCH   5   6
ENDBRANCH   4   5
ENDBRANCH   3   4
ENDBRANCH   2   3
ENDBRANCH   1   2
BRANCH   1  15
HETATM   15  C10 UNL     1      22.142   4.185  50.964  1.00  0.00     0.075 A 
HETATM   16  C11 UNL     1      22.784   3.402  49.863  1.00  0.00     0.005 A 
HETATM   17  C12 UNL     1      23.928   3.734  49.306  1.00  0.00     0.115 A 
HETATM   18  N2  UNL     1      24.629   4.886  49.737  1.00  0.00    -0.246 N 
HETATM   19  N3  UNL     1      24.060   5.632  50.756  1.00  0.00    -0.184 NA
HETATM   20  C19 UNL     1      22.941   5.355  51.338  1.00  0.00     0.123 A 
BRANCH  18  21
HETATM   21  C13 UNL     1      25.867   5.310  49.185  1.00  0.00     0.058 A 
HETATM   22  C14 UNL     1      26.956   4.449  49.119  1.00  0.00     0.033 A 
HETATM   23  C15 UNL     1      28.158   4.854  48.587  1.00  0.00     0.026 A 
HETATM   24  C16 UNL     1      28.328   6.120  48.101  1.00  0.00     0.034 A 
HETATM   25 CL1  UNL     1      29.854   6.683  47.410  1.00  0.00    -0.084 Cl
HETATM   26  C17 UNL     1      27.273   7.028  48.140  1.00  0.00     0.026 A 
HETATM   27  C18 UNL     1      26.099   6.571  48.681  1.00  0.00     0.033 A 
ENDBRANCH  18  21
ENDBRANCH   1  15
TORSDOF 9
ENDMDL
MODEL 9
REMARK VINA RESULT:      -6.9      4.171      6.383
REMARK  9 active torsions:
REMARK  status: ('A' for Active; 'I' for Inactive)
REMARK    1  A    between atoms: C1_2  and  O1_3 
REMARK    2  A    between atoms: O1_3  and  C2_4 
REMARK    3  A    between atoms: N1_9  and  C6_10 
REMARK    4  A    between atoms: C6_10  and  C7_11 
REMARK    5  A    between atoms: C7_11  and  C8_12 
REMARK    6  A    between atoms: C8_12  and  O3_13 
REMARK    7  A    between atoms: O3_13  and  C9_14 
REMARK    8  A    between atoms: C9_14  and  C10_15 
REMARK    9  A    between atoms: N2_18  and  C13_19 
ROOT
HETATM    1  C9  UNL     1      22.446   4.507  49.542  1.00  0.00     0.181 C 
ENDROOT
BRANCH   1   2
HETATM    2  O3  UNL     1      21.611   3.651  50.224  1.00  0.00    -0.390 OA
BRANCH   2   3
HETATM    3  C8  UNL     1      21.482   2.420  49.584  1.00  0.00     0.169 C 
BRANCH   3   4
HETATM    4  C7  UNL     1      22.177   1.287  50.288  1.00  0.00     0.046 C 
BRANCH   4   5
HETATM    5  C6  UNL     1      21.346   0.454  51.181  1.00  0.00     0.121 C 
BRANCH   5   6
HETATM    6  N1  UNL     1      21.565   0.398  52.543  1.00  0.00    -0.384 N 
HETATM    7  C2  UNL     1      20.489   0.050  53.395  1.00  0.00     0.245 C 
HETATM    8  C3  UNL     1      20.831  -1.077  54.312  1.00  0.00     0.221 C 
HETATM    9  O2  UNL     1      22.082  -1.628  54.093  1.00  0.00    -0.385 OA
HETATM   10  C4  UNL     1      23.118  -0.712  54.018  1.00  0.00     0.187 C 
HETATM   11  C5  UNL     1      22.841   0.442  53.118  1.00  0.00     0.145 C 
BRANCH   7  12
HETATM   12  O1  UNL     1      19.323  -0.145  52.659  1.00  0.00    -0.336 OA
BRANCH  12  13
HETATM   13  C1  UNL     1      18.564  -1.158  53.245  1.00  0.00     0.394 C 
HETATM   14  F1  UNL     1      17.217  -0.840  53.259  1.00  0.00    -0.227 F 
ENDBRANCH  12  13
ENDBRANCH   7  12
ENDBRANCH   5   6
ENDBRANCH   4   5
ENDBRANCH   3   4
ENDBRANCH   2   3
ENDBRANCH   1   2
BRANCH   1  15
HETATM   15  C10 UNL     1      23.756   4.792  50.227  1.00  0.00     0.075 A 
HETATM   16  C11 UNL     1      24.828   4.118  49.431  1.00  0.00     0.005 A 
HETATM   17  C12 UNL     1      25.666   3.240  49.938  1.00  0.00     0.115 A 
HETATM   18  N2  UNL     1      25.591   2.882  51.305  1.00  0.00    -0.246 N 
HETATM   19  N3  UNL     1      24.608   3.489  52.068  1.00  0.00    -0.184 NA
HETATM   20  C19 UNL     1      23.760   4.356  51.626  1.00  0.00     0.123 A 
BRANCH  18  21
HETATM   21  C13 UNL     1      26.461   1.944  51.925  1.00  0.00     0.058 A 
HETATM   22  C14 UNL     1      26.240   0.577  51.812  1.00  0.00     0.033 A 
HETATM   23  C15 UNL     1      27.077  -0.336  52.411  1.00  0.00     0.026 A 
HETATM   24  C16 UNL     1      28.159   0.068  53.141  1.00  0.00     0.034 A 
HETATM   25 CL1  UNL     1      29.261  -1.068  53.928  1.00  0.00    -0.084 Cl
HETATM   26  C17 UNL     1      28.432   1.426  53.289  1.00  0.00     0.026 A 
HETATM   27  C18 UNL     1      27.565   2.290  52.672  1.00  0.00     0.033 A 
ENDBRANCH  18  21
ENDBRANCH   1  15
TORSDOF 9
ENDMDL
