MODEL 1
REMARK VINA RESULT:      -9.7      0.000      0.000
REMARK  3 active torsions:
REMARK  status: ('A' for Active; 'I' for Inactive)
REMARK    1  A    between atoms: C5_5  and  C6_6 
REMARK    2  A    between atoms: N1_7  and  N2_8 
REMARK    3  A    between atoms: C7_10  and  C8_11 
ROOT
HETATM    1  N2  UNL     1      23.477   2.236  50.902  1.00  0.00    -0.193 N 
HETATM    2  N3  UNL     1      22.447   1.717  51.690  1.00  0.00    -0.284 N 
HETATM    3  C7  UNL     1      21.033   1.803  51.538  1.00  0.00     0.041 C 
HETATM    4  C14 UNL     1      20.323   2.244  50.507  1.00  0.00     0.072 C 
HETATM    5  S1  UNL     1      20.893   2.890  48.935  1.00  0.00    -0.136 SA
HETATM    6  C15 UNL     1      22.642   2.517  48.685  1.00  0.00     0.122 C 
HETATM    7  C16 UNL     1      23.404   3.182  49.799  1.00  0.00     0.117 A 
HETATM    8  C17 UNL     1      24.807   3.500  49.408  1.00  0.00     0.012 A 
HETATM    9  C18 UNL     1      25.387   4.693  49.366  1.00  0.00     0.013 A 
HETATM   10  C19 UNL     1      24.676   5.969  49.727  1.00  0.00     0.215 A 
HETATM   11  F1  UNL     1      25.425   6.578  50.710  1.00  0.00    -0.241 F 
HETATM   12  C20 UNL     1      23.288   5.660  50.207  1.00  0.00     0.013 A 
HETATM   13  C21 UNL     1      22.739   4.452  50.238  1.00  0.00     0.012 A 
HETATM   14  H7  UNL     1      22.768   1.168  52.540  1.00  0.00     0.188 HD
ENDROOT
BRANCH   1  15
HETATM   15  N1  UNL     1      24.750   1.741  51.273  1.00  0.00    -0.167 NA
HETATM   16  C6  UNL     1      24.881   0.856  52.203  1.00  0.00     0.151 C 
BRANCH  16  17
HETATM   17  C5  UNL     1      26.174   0.321  52.612  1.00  0.00    -0.017 A 
HETATM   18  C4  UNL     1      26.536  -1.004  52.420  1.00  0.00     0.013 A 
HETATM   19  C3  UNL     1      27.794  -1.398  52.851  1.00  0.00     0.008 A 
HETATM   20  C2  UNL     1      28.686  -0.530  53.456  1.00  0.00    -0.056 A 
HETATM   21  C1  UNL     1      30.015  -1.094  53.873  1.00  0.00     0.049 C 
HETATM   22  C23 UNL     1      28.341   0.790  53.655  1.00  0.00    -0.055 A 
HETATM   23  C22 UNL     1      27.087   1.159  53.219  1.00  0.00     0.020 A 
HETATM   24  C24 UNL     1      29.295   1.709  54.301  1.00  0.00     0.049 C 
ENDBRANCH  16  17
ENDBRANCH   1  15
BRANCH   3  25
HETATM   25  C8  UNL     1      20.290   1.309  52.755  1.00  0.00     0.063 A 
HETATM   26  C9  UNL     1      19.107   0.530  52.357  1.00  0.00    -0.016 A 
HETATM   27  C10 UNL     1      18.704  -0.673  52.699  1.00  0.00    -0.004 A 
HETATM   28  C11 UNL     1      19.568  -1.372  53.636  1.00  0.00    -0.004 A 
HETATM   29  C12 UNL     1      20.646  -0.714  54.024  1.00  0.00    -0.026 A 
HETATM   30  C13 UNL     1      21.201   0.623  53.714  1.00  0.00     0.041 A 
ENDBRANCH   3  25
TORSDOF 3
ENDMDL
MODEL 2
REMARK VINA RESULT:      -9.6      2.799      6.074
REMARK  3 active torsions:
REMARK  status: ('A' for Active; 'I' for Inactive)
REMARK    1  A    between atoms: C5_5  and  C6_6 
REMARK    2  A    between atoms: N1_7  and  N2_8 
REMARK    3  A    between atoms: C7_10  and  C8_11 
ROOT
HETATM    1  N2  UNL     1      24.510   3.879  50.821  1.00  0.00    -0.193 N 
HETATM    2  N3  UNL     1      25.213   5.069  50.626  1.00  0.00    -0.284 N 
HETATM    3  C7  UNL     1      24.746   6.408  50.488  1.00  0.00     0.041 C 
HETATM    4  C14 UNL     1      23.530   6.901  50.690  1.00  0.00     0.072 C 
HETATM    5  S1  UNL     1      22.039   6.052  51.213  1.00  0.00    -0.136 SA
HETATM    6  C15 UNL     1      22.429   4.413  51.861  1.00  0.00     0.122 C 
HETATM    7  C16 UNL     1      23.077   3.634  50.748  1.00  0.00     0.117 A 
HETATM    8  C17 UNL     1      22.880   2.165  50.901  1.00  0.00     0.012 A 
HETATM    9  C18 UNL     1      22.275   1.335  50.060  1.00  0.00     0.013 A 
HETATM   10  C19 UNL     1      21.666   1.780  48.757  1.00  0.00     0.215 A 
HETATM   11  F1  UNL     1      22.241   1.015  47.767  1.00  0.00    -0.241 F 
HETATM   12  C20 UNL     1      21.930   3.242  48.545  1.00  0.00     0.013 A 
HETATM   13  C21 UNL     1      22.542   4.043  49.408  1.00  0.00     0.012 A 
HETATM   14  H7  UNL     1      26.268   4.961  50.574  1.00  0.00     0.188 HD
ENDROOT
BRANCH   1  15
HETATM   15  N1  UNL     1      25.357   2.788  51.130  1.00  0.00    -0.167 NA
HETATM   16  C6  UNL     1      26.049   2.764  52.219  1.00  0.00     0.151 C 
BRANCH  16  17
HETATM   17  C5  UNL     1      26.931   1.659  52.573  1.00  0.00    -0.017 A 
HETATM   18  C4  UNL     1      28.168   1.845  53.174  1.00  0.00     0.013 A 
HETATM   19  C3  UNL     1      28.920   0.717  53.464  1.00  0.00     0.008 A 
HETATM   20  C2  UNL     1      28.488  -0.568  53.180  1.00  0.00    -0.056 A 
HETATM   21  C1  UNL     1      29.407  -1.697  53.550  1.00  0.00     0.049 C 
HETATM   22  C23 UNL     1      27.262  -0.769  52.582  1.00  0.00    -0.055 A 
HETATM   23  C22 UNL     1      26.532   0.366  52.304  1.00  0.00     0.020 A 
HETATM   24  C24 UNL     1      26.808  -2.139  52.282  1.00  0.00     0.049 C 
ENDBRANCH  16  17
ENDBRANCH   1  15
BRANCH   3  25
HETATM   25  C8  UNL     1      25.833   7.356  50.044  1.00  0.00     0.063 A 
HETATM   26  C9  UNL     1      26.717   6.705  49.064  1.00  0.00    -0.016 A 
HETATM   27  C10 UNL     1      27.109   7.078  47.866  1.00  0.00    -0.004 A 
HETATM   28  C11 UNL     1      26.585   8.356  47.413  1.00  0.00    -0.004 A 
HETATM   29  C12 UNL     1      25.784   8.980  48.258  1.00  0.00    -0.026 A 
HETATM   30  C13 UNL     1      25.276   8.669  49.613  1.00  0.00     0.041 A 
ENDBRANCH   3  25
TORSDOF 3
ENDMDL
MODEL 3
REMARK VINA RESULT:      -9.6      2.890      6.180
REMARK  3 active torsions:
REMARK  status: ('A' for Active; 'I' for Inactive)
REMARK    1  A    between atoms: C5_5  and  C6_6 
REMARK    2  A    between atoms: N1_7  and  N2_8 
REMARK    3  A    between atoms: C7_10  and  C8_11 
ROOT
HETATM    1  N2  UNL     1      24.759   4.032  50.617  1.00  0.00    -0.193 N 
HETATM    2  N3  UNL     1      25.404   3.206  51.539  1.00  0.00    -0.284 N 
HETATM    3  C7  UNL     1      24.949   2.032  52.207  1.00  0.00     0.041 C 
HETATM    4  C14 UNL     1      23.856   1.311  51.990  1.00  0.00     0.072 C 
HETATM    5  S1  UNL     1      22.561   1.558  50.775  1.00  0.00    -0.136 SA
HETATM    6  C15 UNL     1      23.082   2.741  49.515  1.00  0.00     0.122 C 
HETATM    7  C16 UNL     1      23.362   4.045  50.213  1.00  0.00     0.117 A 
HETATM    8  C17 UNL     1      23.183   5.217  49.309  1.00  0.00     0.012 A 
HETATM    9  C18 UNL     1      22.341   6.232  49.454  1.00  0.00     0.013 A 
HETATM   10  C19 UNL     1      21.391   6.357  50.614  1.00  0.00     0.215 A 
HETATM   11  F1  UNL     1      21.636   7.580  51.199  1.00  0.00    -0.241 F 
HETATM   12  C20 UNL     1      21.617   5.231  51.581  1.00  0.00     0.013 A 
HETATM   13  C21 UNL     1      22.472   4.231  51.405  1.00  0.00     0.012 A 
HETATM   14  H7  UNL     1      26.396   3.497  51.783  1.00  0.00     0.188 HD
ENDROOT
BRANCH   1  15
HETATM   15  N1  UNL     1      25.634   4.973  50.022  1.00  0.00    -0.167 NA
HETATM   16  C6  UNL     1      26.535   4.607  49.174  1.00  0.00     0.151 C 
BRANCH  16  17
HETATM   17  C5  UNL     1      27.453   5.545  48.539  1.00  0.00    -0.017 A 
HETATM   18  C4  UNL     1      27.056   6.791  48.075  1.00  0.00     0.013 A 
HETATM   19  C3  UNL     1      28.019   7.597  47.488  1.00  0.00     0.008 A 
HETATM   20  C2  UNL     1      29.341   7.210  47.351  1.00  0.00    -0.056 A 
HETATM   21  C1  UNL     1      30.276   8.186  46.695  1.00  0.00     0.049 C 
HETATM   22  C23 UNL     1      29.751   5.975  47.807  1.00  0.00    -0.055 A 
HETATM   23  C22 UNL     1      28.777   5.191  48.386  1.00  0.00     0.020 A 
HETATM   24  C24 UNL     1      31.160   5.568  47.658  1.00  0.00     0.049 C 
ENDBRANCH  16  17
ENDBRANCH   1  15
BRANCH   3  25
HETATM   25  C8  UNL     1      25.883   1.595  53.309  1.00  0.00     0.063 A 
HETATM   26  C9  UNL     1      25.867   0.130  53.449  1.00  0.00    -0.016 A 
HETATM   27  C10 UNL     1      26.841  -0.751  53.462  1.00  0.00    -0.004 A 
HETATM   28  C11 UNL     1      28.178  -0.199  53.314  1.00  0.00    -0.004 A 
HETATM   29  C12 UNL     1      28.246   1.113  53.184  1.00  0.00    -0.026 A 
HETATM   30  C13 UNL     1      27.237   2.196  53.153  1.00  0.00     0.041 A 
ENDBRANCH   3  25
TORSDOF 3
ENDMDL
MODEL 4
REMARK VINA RESULT:      -9.2      2.864      6.189
REMARK  3 active torsions:
REMARK  status: ('A' for Active; 'I' for Inactive)
REMARK    1  A    between atoms: C5_5  and  C6_6 
REMARK    2  A    between atoms: N1_7  and  N2_8 
REMARK    3  A    between atoms: C7_10  and  C8_11 
ROOT
HETATM    1  N2  UNL     1      24.888   2.634  50.946  1.00  0.00    -0.193 N 
HETATM    2  N3  UNL     1      23.868   2.411  50.020  1.00  0.00    -0.284 N 
HETATM    3  C7  UNL     1      22.623   1.733  50.161  1.00  0.00     0.041 C 
HETATM    4  C14 UNL     1      22.024   1.292  51.261  1.00  0.00     0.072 C 
HETATM    5  S1  UNL     1      22.571   1.396  52.965  1.00  0.00    -0.136 SA
HETATM    6  C15 UNL     1      23.930   2.573  53.131  1.00  0.00     0.122 C 
HETATM    7  C16 UNL     1      25.063   2.071  52.276  1.00  0.00     0.117 A 
HETATM    8  C17 UNL     1      26.390   2.536  52.773  1.00  0.00     0.012 A 
HETATM    9  C18 UNL     1      27.412   1.791  53.174  1.00  0.00     0.013 A 
HETATM   10  C19 UNL     1      27.382   0.286  53.188  1.00  0.00     0.215 A 
HETATM   11  F1  UNL     1      28.458  -0.141  52.442  1.00  0.00    -0.241 F 
HETATM   12  C20 UNL     1      26.086  -0.202  52.609  1.00  0.00     0.013 A 
HETATM   13  C21 UNL     1      25.083   0.573  52.215  1.00  0.00     0.012 A 
HETATM   14  H7  UNL     1      24.046   2.812  49.053  1.00  0.00     0.188 HD
ENDROOT
BRANCH   1  15
HETATM   15  N1  UNL     1      25.865   3.543  50.473  1.00  0.00    -0.167 NA
HETATM   16  C6  UNL     1      25.628   4.322  49.473  1.00  0.00     0.151 C 
BRANCH  16  17
HETATM   17  C5  UNL     1      26.607   5.272  48.958  1.00  0.00    -0.017 A 
HETATM   18  C4  UNL     1      26.322   6.615  48.760  1.00  0.00     0.013 A 
HETATM   19  C3  UNL     1      27.335   7.423  48.265  1.00  0.00     0.008 A 
HETATM   20  C2  UNL     1      28.599   6.944  47.965  1.00  0.00    -0.056 A 
HETATM   21  C1  UNL     1      29.598   7.933  47.435  1.00  0.00     0.049 C 
HETATM   22  C23 UNL     1      28.897   5.611  48.155  1.00  0.00    -0.055 A 
HETATM   23  C22 UNL     1      27.876   4.828  48.649  1.00  0.00     0.020 A 
HETATM   24  C24 UNL     1      30.245   5.108  47.834  1.00  0.00     0.049 C 
ENDBRANCH  16  17
ENDBRANCH   1  15
BRANCH   3  25
HETATM   25  C8  UNL     1      21.933   1.510  48.837  1.00  0.00     0.063 A 
HETATM   26  C9  UNL     1      20.490   1.775  48.956  1.00  0.00    -0.016 A 
HETATM   27  C10 UNL     1      19.687   2.544  48.255  1.00  0.00    -0.004 A 
HETATM   28  C11 UNL     1      20.321   3.269  47.166  1.00  0.00    -0.004 A 
HETATM   29  C12 UNL     1      21.617   3.067  47.018  1.00  0.00    -0.026 A 
HETATM   30  C13 UNL     1      22.616   2.239  47.732  1.00  0.00     0.041 A 
ENDBRANCH   3  25
TORSDOF 3
ENDMDL
MODEL 5
REMARK VINA RESULT:      -9.1      2.245      7.282
REMARK  3 active torsions:
REMARK  status: ('A' for Active; 'I' for Inactive)
REMARK    1  A    between atoms: C5_5  and  C6_6 
REMARK    2  A    between atoms: N1_7  and  N2_8 
REMARK    3  A    between atoms: C7_10  and  C8_11 
ROOT
HETATM    1  N2  UNL     1      22.353   1.235  51.957  1.00  0.00    -0.193 N 
HETATM    2  N3  UNL     1      23.317   0.609  52.750  1.00  0.00    -0.284 N 
HETATM    3  C7  UNL     1      24.545   1.102  53.277  1.00  0.00     0.041 C 
HETATM    4  C14 UNL     1      25.010   2.345  53.304  1.00  0.00     0.072 C 
HETATM    5  S1  UNL     1      24.254   3.849  52.687  1.00  0.00    -0.136 SA
HETATM    6  C15 UNL     1      22.503   3.587  52.332  1.00  0.00     0.122 C 
HETATM    7  C16 UNL     1      22.416   2.519  51.276  1.00  0.00     0.117 A 
HETATM    8  C17 UNL     1      21.175   2.637  50.459  1.00  0.00     0.012 A 
HETATM    9  C18 UNL     1      21.081   2.827  49.149  1.00  0.00     0.013 A 
HETATM   10  C19 UNL     1      22.278   2.959  48.246  1.00  0.00     0.215 A 
HETATM   11  F1  UNL     1      22.142   2.005  47.263  1.00  0.00    -0.241 F 
HETATM   12  C20 UNL     1      23.537   2.756  49.037  1.00  0.00     0.013 A 
HETATM   13  C21 UNL     1      23.595   2.565  50.350  1.00  0.00     0.012 A 
HETATM   14  H7  UNL     1      23.099  -0.399  53.004  1.00  0.00     0.188 HD
ENDROOT
BRANCH   1  15
HETATM   15  N1  UNL     1      21.169   0.470  51.830  1.00  0.00    -0.167 NA
HETATM   16  C6  UNL     1      20.363   0.312  52.825  1.00  0.00     0.151 C 
BRANCH  16  17
HETATM   17  C5  UNL     1      19.134  -0.467  52.734  1.00  0.00    -0.017 A 
HETATM   18  C4  UNL     1      18.852  -1.531  53.579  1.00  0.00     0.013 A 
HETATM   19  C3  UNL     1      17.650  -2.197  53.397  1.00  0.00     0.008 A 
HETATM   20  C2  UNL     1      16.737  -1.846  52.417  1.00  0.00    -0.056 A 
HETATM   21  C1  UNL     1      15.475  -2.657  52.334  1.00  0.00     0.049 C 
HETATM   22  C23 UNL     1      17.004  -0.792  51.569  1.00  0.00    -0.055 A 
HETATM   23  C22 UNL     1      18.203  -0.144  51.769  1.00  0.00     0.020 A 
HETATM   24  C24 UNL     1      16.028  -0.423  50.527  1.00  0.00     0.049 C 
ENDBRANCH  16  17
ENDBRANCH   1  15
BRANCH   3  25
HETATM   25  C8  UNL     1      25.398   0.010  53.874  1.00  0.00     0.063 A 
HETATM   26  C9  UNL     1      25.940  -0.859  52.817  1.00  0.00    -0.016 A 
HETATM   27  C10 UNL     1      27.169  -1.243  52.554  1.00  0.00    -0.004 A 
HETATM   28  C11 UNL     1      28.185  -0.728  53.457  1.00  0.00    -0.004 A 
HETATM   29  C12 UNL     1      27.749   0.059  54.424  1.00  0.00    -0.026 A 
HETATM   30  C13 UNL     1      26.412   0.558  54.818  1.00  0.00     0.041 A 
ENDBRANCH   3  25
TORSDOF 3
ENDMDL
MODEL 6
REMARK VINA RESULT:      -9.0      2.560      5.870
REMARK  3 active torsions:
REMARK  status: ('A' for Active; 'I' for Inactive)
REMARK    1  A    between atoms: C5_5  and  C6_6 
REMARK    2  A    between atoms: N1_7  and  N2_8 
REMARK    3  A    between atoms: C7_10  and  C8_11 
ROOT
HETATM    1  N2  UNL     1      23.478   3.485  50.001  1.00  0.00    -0.193 N 
HETATM    2  N3  UNL     1      24.055   2.760  51.045  1.00  0.00    -0.284 N 
HETATM    3  C7  UNL     1      23.562   1.642  51.778  1.00  0.00     0.041 C 
HETATM    4  C14 UNL     1      22.502   0.880  51.540  1.00  0.00     0.072 C 
HETATM    5  S1  UNL     1      21.310   0.987  50.205  1.00  0.00    -0.136 SA
HETATM    6  C15 UNL     1      21.918   2.063  48.888  1.00  0.00     0.122 C 
HETATM    7  C16 UNL     1      22.119   3.430  49.484  1.00  0.00     0.117 A 
HETATM    8  C17 UNL     1      21.999   4.511  48.464  1.00  0.00     0.012 A 
HETATM    9  C18 UNL     1      21.133   5.516  48.445  1.00  0.00     0.013 A 
HETATM   10  C19 UNL     1      20.087   5.725  49.508  1.00  0.00     0.215 A 
HETATM   11  F1  UNL     1      20.265   7.000  49.996  1.00  0.00    -0.241 F 
HETATM   12  C20 UNL     1      20.248   4.696  50.589  1.00  0.00     0.013 A 
HETATM   13  C21 UNL     1      21.129   3.703  50.577  1.00  0.00     0.012 A 
HETATM   14  H7  UNL     1      25.018   3.094  51.341  1.00  0.00     0.188 HD
ENDROOT
BRANCH   1  15
HETATM   15  N1  UNL     1      24.385   4.387  49.396  1.00  0.00    -0.167 NA
HETATM   16  C6  UNL     1      25.661   4.225  49.499  1.00  0.00     0.151 C 
BRANCH  16  17
HETATM   17  C5  UNL     1      26.627   5.131  48.890  1.00  0.00    -0.017 A 
HETATM   18  C4  UNL     1      27.961   4.798  48.707  1.00  0.00     0.013 A 
HETATM   19  C3  UNL     1      28.787   5.742  48.115  1.00  0.00     0.008 A 
HETATM   20  C2  UNL     1      28.334   6.985  47.708  1.00  0.00    -0.056 A 
HETATM   21  C1  UNL     1      29.340   7.909  47.081  1.00  0.00     0.049 C 
HETATM   22  C23 UNL     1      27.011   7.332  47.884  1.00  0.00    -0.055 A 
HETATM   23  C22 UNL     1      26.209   6.378  48.472  1.00  0.00     0.020 A 
HETATM   24  C24 UNL     1      26.535   8.657  47.448  1.00  0.00     0.049 C 
ENDBRANCH  16  17
ENDBRANCH   1  15
BRANCH   3  25
HETATM   25  C8  UNL     1      24.407   1.327  52.989  1.00  0.00     0.063 A 
HETATM   26  C9  UNL     1      25.077   0.027  52.827  1.00  0.00    -0.016 A 
HETATM   27  C10 UNL     1      26.340  -0.319  52.939  1.00  0.00    -0.004 A 
HETATM   28  C11 UNL     1      27.250   0.762  53.282  1.00  0.00    -0.004 A 
HETATM   29  C12 UNL     1      26.696   1.950  53.437  1.00  0.00    -0.026 A 
HETATM   30  C13 UNL     1      25.309   2.459  53.339  1.00  0.00     0.041 A 
ENDBRANCH   3  25
TORSDOF 3
ENDMDL
MODEL 7
REMARK VINA RESULT:      -9.0      6.896     10.817
REMARK  3 active torsions:
REMARK  status: ('A' for Active; 'I' for Inactive)
REMARK    1  A    between atoms: C5_5  and  C6_6 
REMARK    2  A    between atoms: N1_7  and  N2_8 
REMARK    3  A    between atoms: C7_10  and  C8_11 
ROOT
HETATM    1  N2  UNL     1      30.108   6.908  48.121  1.00  0.00    -0.193 N 
HETATM    2  N3  UNL     1      30.828   5.861  47.543  1.00  0.00    -0.284 N 
HETATM    3  C7  UNL     1      32.219   5.741  47.258  1.00  0.00     0.041 C 
HETATM    4  C14 UNL     1      33.226   6.520  47.636  1.00  0.00     0.072 C 
HETATM    5  S1  UNL     1      33.192   8.003  48.642  1.00  0.00    -0.136 SA
HETATM    6  C15 UNL     1      31.606   8.167  49.488  1.00  0.00     0.122 C 
HETATM    7  C16 UNL     1      30.541   8.263  48.428  1.00  0.00     0.117 A 
HETATM    8  C17 UNL     1      29.339   9.005  48.905  1.00  0.00     0.012 A 
HETATM    9  C18 UNL     1      28.821  10.119  48.403  1.00  0.00     0.013 A 
HETATM   10  C19 UNL     1      29.403  10.837  47.216  1.00  0.00     0.215 A 
HETATM   11  F1  UNL     1      28.393  10.955  46.287  1.00  0.00    -0.241 F 
HETATM   12  C20 UNL     1      30.563  10.058  46.668  1.00  0.00     0.013 A 
HETATM   13  C21 UNL     1      31.055   8.943  47.195  1.00  0.00     0.012 A 
HETATM   14  H7  UNL     1      30.246   5.016  47.271  1.00  0.00     0.188 HD
ENDROOT
BRANCH   1  15
HETATM   15  N1  UNL     1      28.776   6.548  48.433  1.00  0.00    -0.167 NA
HETATM   16  C6  UNL     1      28.418   5.311  48.520  1.00  0.00     0.151 C 
BRANCH  16  17
HETATM   17  C5  UNL     1      27.056   4.900  48.839  1.00  0.00    -0.017 A 
HETATM   18  C4  UNL     1      26.750   3.659  49.377  1.00  0.00     0.013 A 
HETATM   19  C3  UNL     1      25.418   3.380  49.639  1.00  0.00     0.008 A 
HETATM   20  C2  UNL     1      24.398   4.282  49.386  1.00  0.00    -0.056 A 
HETATM   21  C1  UNL     1      22.999   3.845  49.720  1.00  0.00     0.049 C 
HETATM   22  C23 UNL     1      24.685   5.519  48.850  1.00  0.00    -0.055 A 
HETATM   23  C22 UNL     1      26.016   5.775  48.599  1.00  0.00     0.020 A 
HETATM   24  C24 UNL     1      23.595   6.475  48.583  1.00  0.00     0.049 C 
ENDBRANCH  16  17
ENDBRANCH   1  15
BRANCH   3  25
HETATM   25  C8  UNL     1      32.532   4.539  46.401  1.00  0.00     0.063 A 
HETATM   26  C9  UNL     1      33.437   4.911  45.301  1.00  0.00    -0.016 A 
HETATM   27  C10 UNL     1      34.581   4.398  44.908  1.00  0.00    -0.004 A 
HETATM   28  C11 UNL     1      35.051   3.264  45.686  1.00  0.00    -0.004 A 
HETATM   29  C12 UNL     1      34.274   2.892  46.686  1.00  0.00    -0.026 A 
HETATM   30  C13 UNL     1      32.983   3.381  47.221  1.00  0.00     0.041 A 
ENDBRANCH   3  25
TORSDOF 3
ENDMDL
MODEL 8
REMARK VINA RESULT:      -9.0      2.350      5.858
REMARK  3 active torsions:
REMARK  status: ('A' for Active; 'I' for Inactive)
REMARK    1  A    between atoms: C5_5  and  C6_6 
REMARK    2  A    between atoms: N1_7  and  N2_8 
REMARK    3  A    between atoms: C7_10  and  C8_11 
ROOT
HETATM    1  N2  UNL     1      23.867   3.863  51.169  1.00  0.00    -0.193 N 
HETATM    2  N3  UNL     1      24.522   4.704  50.267  1.00  0.00    -0.284 N 
HETATM    3  C7  UNL     1      24.030   5.795  49.494  1.00  0.00     0.041 C 
HETATM    4  C14 UNL     1      22.860   6.417  49.565  1.00  0.00     0.072 C 
HETATM    5  S1  UNL     1      21.478   6.103  50.663  1.00  0.00    -0.136 SA
HETATM    6  C15 UNL     1      21.977   5.037  52.033  1.00  0.00     0.122 C 
HETATM    7  C16 UNL     1      22.443   3.735  51.438  1.00  0.00     0.117 A 
HETATM    8  C17 UNL     1      22.282   2.596  52.386  1.00  0.00     0.012 A 
HETATM    9  C18 UNL     1      21.555   1.498  52.220  1.00  0.00     0.013 A 
HETATM   10  C19 UNL     1      20.741   1.227  50.983  1.00  0.00     0.215 A 
HETATM   11  F1  UNL     1      21.154   0.008  50.494  1.00  0.00    -0.241 F 
HETATM   12  C20 UNL     1      20.959   2.322  49.980  1.00  0.00     0.013 A 
HETATM   13  C21 UNL     1      21.697   3.408  50.180  1.00  0.00     0.012 A 
HETATM   14  H7  UNL     1      25.555   4.499  50.135  1.00  0.00     0.188 HD
ENDROOT
BRANCH   1  15
HETATM   15  N1  UNL     1      24.759   3.041  51.896  1.00  0.00    -0.167 NA
HETATM   16  C6  UNL     1      25.703   2.389  51.306  1.00  0.00     0.151 C 
BRANCH  16  17
HETATM   17  C5  UNL     1      26.643   1.533  52.020  1.00  0.00    -0.017 A 
HETATM   18  C4  UNL     1      26.608   0.148  51.944  1.00  0.00     0.013 A 
HETATM   19  C3  UNL     1      27.553  -0.562  52.668  1.00  0.00     0.008 A 
HETATM   20  C2  UNL     1      28.515   0.052  53.452  1.00  0.00    -0.056 A 
HETATM   21  C1  UNL     1      29.477  -0.842  54.182  1.00  0.00     0.049 C 
HETATM   22  C23 UNL     1      28.563   1.427  53.538  1.00  0.00    -0.055 A 
HETATM   23  C22 UNL     1      27.614   2.112  52.810  1.00  0.00     0.020 A 
HETATM   24  C24 UNL     1      29.589   2.075  54.375  1.00  0.00     0.049 C 
ENDBRANCH  16  17
ENDBRANCH   1  15
BRANCH   3  25
HETATM   25  C8  UNL     1      25.025   6.268  48.463  1.00  0.00     0.063 A 
HETATM   26  C9  UNL     1      25.024   7.737  48.379  1.00  0.00    -0.016 A 
HETATM   27  C10 UNL     1      26.001   8.612  48.452  1.00  0.00    -0.004 A 
HETATM   28  C11 UNL     1      27.325   8.046  48.653  1.00  0.00    -0.004 A 
HETATM   29  C12 UNL     1      27.380   6.729  48.736  1.00  0.00    -0.026 A 
HETATM   30  C13 UNL     1      26.366   5.652  48.670  1.00  0.00     0.041 A 
ENDBRANCH   3  25
TORSDOF 3
ENDMDL
MODEL 9
REMARK VINA RESULT:      -9.0      3.121      6.696
REMARK  3 active torsions:
REMARK  status: ('A' for Active; 'I' for Inactive)
REMARK    1  A    between atoms: C5_5  and  C6_6 
REMARK    2  A    between atoms: N1_7  and  N2_8 
REMARK    3  A    between atoms: C7_10  and  C8_11 
ROOT
HETATM    1  N2  UNL     1      25.722   4.026  49.954  1.00  0.00    -0.193 N 
HETATM    2  N3  UNL     1      26.729   4.789  49.359  1.00  0.00    -0.284 N 
HETATM    3  C7  UNL     1      26.752   6.164  48.989  1.00  0.00     0.041 C 
HETATM    4  C14 UNL     1      25.887   7.129  49.279  1.00  0.00     0.072 C 
HETATM    5  S1  UNL     1      24.379   7.041  50.244  1.00  0.00    -0.136 SA
HETATM    6  C15 UNL     1      24.309   5.503  51.187  1.00  0.00     0.122 C 
HETATM    7  C16 UNL     1      24.330   4.370  50.196  1.00  0.00     0.117 A 
HETATM    8  C17 UNL     1      23.667   3.145  50.729  1.00  0.00     0.012 A 
HETATM    9  C18 UNL     1      22.612   2.512  50.232  1.00  0.00     0.013 A 
HETATM   10  C19 UNL     1      21.890   2.960  48.990  1.00  0.00     0.215 A 
HETATM   11  F1  UNL     1      21.880   1.888  48.126  1.00  0.00    -0.241 F 
HETATM   12  C20 UNL     1      22.595   4.141  48.389  1.00  0.00     0.013 A 
HETATM   13  C21 UNL     1      23.652   4.751  48.914  1.00  0.00     0.012 A 
HETATM   14  H7  UNL     1      27.625   4.259  49.148  1.00  0.00     0.188 HD
ENDROOT
BRANCH   1  15
HETATM   15  N1  UNL     1      26.173   2.748  50.361  1.00  0.00    -0.167 NA
HETATM   16  C6  UNL     1      26.555   2.526  51.573  1.00  0.00     0.151 C 
BRANCH  16  17
HETATM   17  C5  UNL     1      27.025   1.224  52.030  1.00  0.00    -0.017 A 
HETATM   18  C4  UNL     1      26.303   0.053  51.843  1.00  0.00     0.013 A 
HETATM   19  C3  UNL     1      26.852  -1.126  52.321  1.00  0.00     0.008 A 
HETATM   20  C2  UNL     1      28.075  -1.178  52.968  1.00  0.00    -0.056 A 
HETATM   21  C1  UNL     1      28.547  -2.526  53.434  1.00  0.00     0.049 C 
HETATM   22  C23 UNL     1      28.804  -0.024  53.163  1.00  0.00    -0.055 A 
HETATM   23  C22 UNL     1      28.240   1.136  52.679  1.00  0.00     0.020 A 
HETATM   24  C24 UNL     1      30.105  -0.085  53.853  1.00  0.00     0.049 C 
ENDBRANCH  16  17
ENDBRANCH   1  15
BRANCH   3  25
HETATM   25  C8  UNL     1      27.953   6.516  48.146  1.00  0.00     0.063 A 
HETATM   26  C9  UNL     1      28.449   7.859  48.488  1.00  0.00    -0.016 A 
HETATM   27  C10 UNL     1      29.648   8.284  48.819  1.00  0.00    -0.004 A 
HETATM   28  C11 UNL     1      30.678   7.259  48.859  1.00  0.00    -0.004 A 
HETATM   29  C12 UNL     1      30.283   6.035  48.561  1.00  0.00    -0.026 A 
HETATM   30  C13 UNL     1      28.982   5.440  48.178  1.00  0.00     0.041 A 
ENDBRANCH   3  25
TORSDOF 3
ENDMDL
