MODEL 1
REMARK VINA RESULT:      -7.8      0.000      0.000
REMARK  3 active torsions:
REMARK  status: ('A' for Active; 'I' for Inactive)
REMARK    1  A    between atoms: C10_12  and  C11_13 
REMARK    2  A    between atoms: C12_14  and  N3_15 
REMARK    3  A    between atoms: C13_16  and  O1_18 
ROOT
HETATM    1  C1  UNL     1      22.603   6.364  49.616  1.00  0.00     0.044 C 
HETATM    2  C2  UNL     1      23.435   5.170  50.089  1.00  0.00    -0.075 C 
HETATM    3  C3  UNL     1      24.612   5.050  49.595  1.00  0.00     0.004 C 
HETATM    4  C4  UNL     1      25.940   4.805  49.115  1.00  0.00     0.017 C 
HETATM    5  C5  UNL     1      26.675   3.718  49.511  1.00  0.00     0.090 C 
HETATM    6  N1  UNL     1      25.922   2.961  50.395  1.00  0.00    -0.349 N 
HETATM    7  C6  UNL     1      25.849   2.468  51.659  1.00  0.00     0.156 C 
HETATM    8  N2  UNL     1      26.652   1.438  51.433  1.00  0.00    -0.266 NA
HETATM    9  C7  UNL     1      26.329   0.249  52.314  1.00  0.00     0.189 C 
HETATM   10  C8  UNL     1      25.031   0.713  52.965  1.00  0.00    -0.038 C 
HETATM   11  C9  UNL     1      23.807   0.308  52.571  1.00  0.00    -0.005 C 
HETATM   12  C10 UNL     1      22.386   0.444  52.845  1.00  0.00     0.087 C 
HETATM   13  C13 UNL     1      21.512   1.104  51.800  1.00  0.00     0.136 C 
HETATM   14  C14 UNL     1      20.067   0.853  52.357  1.00  0.00     0.071 C 
HETATM   15  N4  UNL     1      21.484   2.516  51.794  1.00  0.00    -0.379 N 
HETATM   16  C15 UNL     1      22.113   3.194  52.841  1.00  0.00     0.153 C 
HETATM   17  C16 UNL     1      23.394   3.604  52.085  1.00  0.00     0.156 C 
HETATM   18  O2  UNL     1      24.443   3.843  52.881  1.00  0.00    -0.340 OA
HETATM   19  C17 UNL     1      25.238   2.637  53.004  1.00  0.00     0.115 C 
HETATM   20  C18 UNL     1      25.523   1.720  53.955  1.00  0.00     0.049 C 
HETATM   21  C19 UNL     1      22.719   4.431  51.097  1.00  0.00     0.063 C 
HETATM   22  C20 UNL     1      21.788   3.277  50.603  1.00  0.00     0.131 C 
HETATM   23  H7  UNL     1      25.114   2.694  49.720  1.00  0.00     0.167 HD
ENDROOT
BRANCH  12  24
HETATM   24  C11 UNL     1      21.898  -0.989  52.909  1.00  0.00    -0.002 C 
HETATM   25  C12 UNL     1      21.760  -1.674  54.004  1.00  0.00     0.051 C 
BRANCH  25  26
HETATM   26  N3  UNL     1      22.080  -1.054  55.235  1.00  0.00    -0.312 NA
HETATM   27  H14 UNL     1      22.121  -0.429  56.060  1.00  0.00     0.123 HD
HETATM   28  H15 UNL     1      21.530  -0.208  55.455  1.00  0.00     0.123 HD
ENDBRANCH  25  26
ENDBRANCH  12  24
BRANCH  13  29
HETATM   29  O1  UNL     1      21.538   0.434  50.612  1.00  0.00    -0.370 OA
HETATM   30  H19 UNL     1      20.763  -0.134  50.403  1.00  0.00     0.212 HD
ENDBRANCH  13  29
TORSDOF 3
ENDMDL
MODEL 2
REMARK VINA RESULT:      -7.3      1.906      3.598
REMARK  3 active torsions:
REMARK  status: ('A' for Active; 'I' for Inactive)
REMARK    1  A    between atoms: C10_12  and  C11_13 
REMARK    2  A    between atoms: C12_14  and  N3_15 
REMARK    3  A    between atoms: C13_16  and  O1_18 
ROOT
HETATM    1  C1  UNL     1      26.406   4.351  49.515  1.00  0.00     0.044 C 
HETATM    2  C2  UNL     1      25.641   3.263  50.271  1.00  0.00    -0.075 C 
HETATM    3  C3  UNL     1      26.340   2.383  50.887  1.00  0.00     0.004 C 
HETATM    4  C4  UNL     1      27.007   1.342  51.613  1.00  0.00     0.017 C 
HETATM    5  C5  UNL     1      26.326   0.346  52.263  1.00  0.00     0.090 C 
HETATM    6  N1  UNL     1      24.964   0.537  52.079  1.00  0.00    -0.349 N 
HETATM    7  C6  UNL     1      23.778   0.767  52.699  1.00  0.00     0.156 C 
HETATM    8  N2  UNL     1      23.573  -0.497  53.041  1.00  0.00    -0.266 NA
HETATM    9  C7  UNL     1      22.100  -0.841  53.128  1.00  0.00     0.189 C 
HETATM   10  C8  UNL     1      21.471   0.426  52.562  1.00  0.00    -0.038 C 
HETATM   11  C9  UNL     1      21.010   0.536  51.300  1.00  0.00    -0.005 C 
HETATM   12  C10 UNL     1      20.375   1.448  50.362  1.00  0.00     0.087 C 
HETATM   13  C13 UNL     1      21.164   1.898  49.151  1.00  0.00     0.136 C 
HETATM   14  C14 UNL     1      20.083   2.657  48.305  1.00  0.00     0.071 C 
HETATM   15  N4  UNL     1      22.062   2.971  49.341  1.00  0.00    -0.379 N 
HETATM   16  C15 UNL     1      22.036   3.647  50.563  1.00  0.00     0.153 C 
HETATM   17  C16 UNL     1      23.290   2.999  51.187  1.00  0.00     0.156 C 
HETATM   18  O2  UNL     1      23.310   3.028  52.525  1.00  0.00    -0.340 OA
HETATM   19  C17 UNL     1      22.756   1.791  53.042  1.00  0.00     0.115 C 
HETATM   20  C18 UNL     1      21.642   1.390  53.693  1.00  0.00     0.049 C 
HETATM   21  C19 UNL     1      24.223   3.504  50.193  1.00  0.00     0.063 C 
HETATM   22  C20 UNL     1      23.460   2.864  48.988  1.00  0.00     0.131 C 
HETATM   23  H7  UNL     1      24.938   0.423  50.999  1.00  0.00     0.167 HD
ENDROOT
BRANCH  12  24
HETATM   24  C11 UNL     1      19.229   0.634  49.798  1.00  0.00    -0.002 C 
HETATM   25  C12 UNL     1      18.019   0.634  50.270  1.00  0.00     0.051 C 
BRANCH  25  26
HETATM   26  N3  UNL     1      17.731   1.448  51.391  1.00  0.00    -0.312 NA
HETATM   27  H14 UNL     1      17.595   1.823  52.347  1.00  0.00     0.123 HD
HETATM   28  H15 UNL     1      17.880   0.997  52.309  1.00  0.00     0.123 HD
ENDBRANCH  25  26
ENDBRANCH  12  24
BRANCH  13  29
HETATM   29  O1  UNL     1      21.538   0.850  48.364  1.00  0.00    -0.370 OA
HETATM   30  H19 UNL     1      21.629  -0.026  48.801  1.00  0.00     0.212 HD
ENDBRANCH  13  29
TORSDOF 3
ENDMDL
MODEL 3
REMARK VINA RESULT:      -7.3      1.877      5.977
REMARK  3 active torsions:
REMARK  status: ('A' for Active; 'I' for Inactive)
REMARK    1  A    between atoms: C10_12  and  C11_13 
REMARK    2  A    between atoms: C12_14  and  N3_15 
REMARK    3  A    between atoms: C13_16  and  O1_18 
ROOT
HETATM    1  C1  UNL     1      21.569  -0.135  54.494  1.00  0.00     0.044 C 
HETATM    2  C2  UNL     1      21.639   0.619  53.164  1.00  0.00    -0.075 C 
HETATM    3  C3  UNL     1      20.695   0.403  52.324  1.00  0.00     0.004 C 
HETATM    4  C4  UNL     1      19.702   0.247  51.303  1.00  0.00     0.017 C 
HETATM    5  C5  UNL     1      19.780   0.894  50.097  1.00  0.00     0.090 C 
HETATM    6  N1  UNL     1      20.932   1.665  50.072  1.00  0.00    -0.349 N 
HETATM    7  C6  UNL     1      21.428   2.925  49.965  1.00  0.00     0.156 C 
HETATM    8  N2  UNL     1      21.342   2.977  48.644  1.00  0.00    -0.266 NA
HETATM    9  C7  UNL     1      22.395   3.878  48.031  1.00  0.00     0.189 C 
HETATM   10  C8  UNL     1      23.258   4.187  49.249  1.00  0.00    -0.038 C 
HETATM   11  C9  UNL     1      24.434   3.580  49.509  1.00  0.00    -0.005 C 
HETATM   12  C10 UNL     1      25.539   3.528  50.451  1.00  0.00     0.087 C 
HETATM   13  C13 UNL     1      25.740   2.260  51.254  1.00  0.00     0.136 C 
HETATM   14  C14 UNL     1      27.122   2.516  51.952  1.00  0.00     0.071 C 
HETATM   15  N4  UNL     1      24.951   2.112  52.416  1.00  0.00    -0.379 N 
HETATM   16  C15 UNL     1      24.181   3.200  52.835  1.00  0.00     0.153 C 
HETATM   17  C16 UNL     1      22.816   2.701  52.316  1.00  0.00     0.156 C 
HETATM   18  O2  UNL     1      21.926   3.677  52.097  1.00  0.00    -0.340 OA
HETATM   19  C17 UNL     1      21.991   4.084  50.707  1.00  0.00     0.115 C 
HETATM   20  C18 UNL     1      22.403   5.158  49.998  1.00  0.00     0.049 C 
HETATM   21  C19 UNL     1      22.766   1.516  53.158  1.00  0.00     0.063 C 
HETATM   22  C20 UNL     1      24.123   0.947  52.628  1.00  0.00     0.131 C 
HETATM   23  H7  UNL     1      21.657   0.861  50.159  1.00  0.00     0.167 HD
ENDROOT
BRANCH  12  24
HETATM   24  C11 UNL     1      26.765   3.624  49.565  1.00  0.00    -0.002 C 
HETATM   25  C12 UNL     1      27.296   4.736  49.157  1.00  0.00     0.051 C 
BRANCH  25  26
HETATM   26  N3  UNL     1      26.705   5.956  49.561  1.00  0.00    -0.312 NA
HETATM   27  H14 UNL     1      26.146   6.690  50.034  1.00  0.00     0.123 HD
HETATM   28  H15 UNL     1      26.033   5.880  50.342  1.00  0.00     0.123 HD
ENDBRANCH  25  26
ENDBRANCH  12  24
BRANCH  13  29
HETATM   29  O1  UNL     1      25.958   1.176  50.456  1.00  0.00    -0.370 OA
HETATM   30  H19 UNL     1      26.371   1.344  49.579  1.00  0.00     0.212 HD
ENDBRANCH  13  29
TORSDOF 3
ENDMDL
MODEL 4
REMARK VINA RESULT:      -7.2      1.593      1.993
REMARK  3 active torsions:
REMARK  status: ('A' for Active; 'I' for Inactive)
REMARK    1  A    between atoms: C10_12  and  C11_13 
REMARK    2  A    between atoms: C12_14  and  N3_15 
REMARK    3  A    between atoms: C13_16  and  O1_18 
ROOT
HETATM    1  C1  UNL     1      23.551   7.275  47.863  1.00  0.00     0.044 C 
HETATM    2  C2  UNL     1      24.025   6.052  48.653  1.00  0.00    -0.075 C 
HETATM    3  C3  UNL     1      25.275   5.776  48.600  1.00  0.00     0.004 C 
HETATM    4  C4  UNL     1      26.647   5.362  48.619  1.00  0.00     0.017 C 
HETATM    5  C5  UNL     1      27.069   4.248  49.297  1.00  0.00     0.090 C 
HETATM    6  N1  UNL     1      25.976   3.649  49.905  1.00  0.00    -0.349 N 
HETATM    7  C6  UNL     1      25.425   3.279  51.090  1.00  0.00     0.156 C 
HETATM    8  N2  UNL     1      26.126   2.160  51.206  1.00  0.00    -0.266 NA
HETATM    9  C7  UNL     1      25.384   1.090  51.981  1.00  0.00     0.189 C 
HETATM   10  C8  UNL     1      24.009   1.734  52.122  1.00  0.00    -0.038 C 
HETATM   11  C9  UNL     1      22.949   1.416  51.352  1.00  0.00    -0.005 C 
HETATM   12  C10 UNL     1      21.546   1.713  51.114  1.00  0.00     0.087 C 
HETATM   13  C13 UNL     1      21.161   2.359  49.801  1.00  0.00     0.136 C 
HETATM   14  C14 UNL     1      19.593   2.300  49.840  1.00  0.00     0.071 C 
HETATM   15  N4  UNL     1      21.308   3.761  49.715  1.00  0.00    -0.379 N 
HETATM   16  C15 UNL     1      21.626   4.465  50.878  1.00  0.00     0.153 C 
HETATM   17  C16 UNL     1      23.126   4.681  50.589  1.00  0.00     0.156 C 
HETATM   18  O2  UNL     1      23.868   4.887  51.684  1.00  0.00    -0.340 OA
HETATM   19  C17 UNL     1      24.423   3.625  52.133  1.00  0.00     0.115 C 
HETATM   20  C18 UNL     1      24.259   2.772  53.169  1.00  0.00     0.049 C 
HETATM   21  C19 UNL     1      22.927   5.479  49.389  1.00  0.00     0.063 C 
HETATM   22  C20 UNL     1      22.084   4.381  48.664  1.00  0.00     0.131 C 
HETATM   23  H7  UNL     1      25.417   3.402  49.008  1.00  0.00     0.167 HD
ENDROOT
BRANCH  12  24
HETATM   24  C11 UNL     1      20.895   0.345  51.079  1.00  0.00    -0.002 C 
HETATM   25  C12 UNL     1      20.286  -0.209  52.083  1.00  0.00     0.051 C 
BRANCH  25  26
HETATM   26  N3  UNL     1      20.211   0.501  53.305  1.00  0.00    -0.312 NA
HETATM   27  H14 UNL     1      19.912   1.085  54.107  1.00  0.00     0.123 HD
HETATM   28  H15 UNL     1      19.325   1.007  53.464  1.00  0.00     0.123 HD
ENDBRANCH  25  26
ENDBRANCH  12  24
BRANCH  13  29
HETATM   29  O1  UNL     1      21.503   1.588  48.730  1.00  0.00    -0.370 OA
HETATM   30  H19 UNL     1      20.831   1.490  48.018  1.00  0.00     0.212 HD
ENDBRANCH  13  29
TORSDOF 3
ENDMDL
MODEL 5
REMARK VINA RESULT:      -7.2      1.923      4.317
REMARK  3 active torsions:
REMARK  status: ('A' for Active; 'I' for Inactive)
REMARK    1  A    between atoms: C10_12  and  C11_13 
REMARK    2  A    between atoms: C12_14  and  N3_15 
REMARK    3  A    between atoms: C13_16  and  O1_18 
ROOT
HETATM    1  C1  UNL     1      27.730   5.858  48.325  1.00  0.00     0.044 C 
HETATM    2  C2  UNL     1      26.442   5.669  49.129  1.00  0.00    -0.075 C 
HETATM    3  C3  UNL     1      25.782   6.727  49.427  1.00  0.00     0.004 C 
HETATM    4  C4  UNL     1      24.959   7.831  49.823  1.00  0.00     0.017 C 
HETATM    5  C5  UNL     1      23.822   7.668  50.572  1.00  0.00     0.090 C 
HETATM    6  N1  UNL     1      23.655   6.319  50.851  1.00  0.00    -0.349 N 
HETATM    7  C6  UNL     1      22.843   5.242  50.697  1.00  0.00     0.156 C 
HETATM    8  N2  UNL     1      22.021   5.567  51.684  1.00  0.00    -0.266 NA
HETATM    9  C7  UNL     1      21.387   4.353  52.333  1.00  0.00     0.189 C 
HETATM   10  C8  UNL     1      22.164   3.226  51.661  1.00  0.00    -0.038 C 
HETATM   11  C9  UNL     1      23.185   2.567  52.245  1.00  0.00    -0.005 C 
HETATM   12  C10 UNL     1      24.159   1.506  52.044  1.00  0.00     0.087 C 
HETATM   13  C13 UNL     1      25.625   1.880  51.981  1.00  0.00     0.136 C 
HETATM   14  C14 UNL     1      26.332   0.480  51.989  1.00  0.00     0.071 C 
HETATM   15  N4  UNL     1      26.110   2.344  50.738  1.00  0.00    -0.379 N 
HETATM   16  C15 UNL     1      25.266   2.264  49.628  1.00  0.00     0.153 C 
HETATM   17  C16 UNL     1      24.846   3.747  49.576  1.00  0.00     0.156 C 
HETATM   18  O2  UNL     1      23.679   3.963  48.957  1.00  0.00    -0.340 OA
HETATM   19  C17 UNL     1      22.612   3.984  49.938  1.00  0.00     0.115 C 
HETATM   20  C18 UNL     1      21.563   3.208  50.292  1.00  0.00     0.049 C 
HETATM   21  C19 UNL     1      26.183   4.266  49.332  1.00  0.00     0.063 C 
HETATM   22  C20 UNL     1      26.793   3.612  50.614  1.00  0.00     0.131 C 
HETATM   23  H7  UNL     1      24.561   6.169  51.431  1.00  0.00     0.167 HD
ENDROOT
BRANCH  12  24
HETATM   24  C11 UNL     1      24.027   0.663  53.295  1.00  0.00    -0.002 C 
HETATM   25  C12 UNL     1      23.134  -0.263  53.471  1.00  0.00     0.051 C 
BRANCH  25  26
HETATM   26  N3  UNL     1      22.209  -0.517  52.431  1.00  0.00    -0.312 NA
HETATM   27  H14 UNL     1      21.356  -0.708  51.874  1.00  0.00     0.123 HD
HETATM   28  H15 UNL     1      21.228  -0.632  52.735  1.00  0.00     0.123 HD
ENDBRANCH  25  26
ENDBRANCH  12  24
BRANCH  13  29
HETATM   29  O1  UNL     1      26.051   2.482  53.127  1.00  0.00    -0.370 OA
HETATM   30  H19 UNL     1      25.687   3.375  53.323  1.00  0.00     0.212 HD
ENDBRANCH  13  29
TORSDOF 3
ENDMDL
MODEL 6
REMARK VINA RESULT:      -7.1      2.445      5.180
REMARK  3 active torsions:
REMARK  status: ('A' for Active; 'I' for Inactive)
REMARK    1  A    between atoms: C10_12  and  C11_13 
REMARK    2  A    between atoms: C12_14  and  N3_15 
REMARK    3  A    between atoms: C13_16  and  O1_18 
ROOT
HETATM    1  C1  UNL     1      28.137   5.107  48.504  1.00  0.00     0.044 C 
HETATM    2  C2  UNL     1      26.792   5.673  48.966  1.00  0.00    -0.075 C 
HETATM    3  C3  UNL     1      26.710   6.946  49.090  1.00  0.00     0.004 C 
HETATM    4  C4  UNL     1      26.492   8.351  49.269  1.00  0.00     0.017 C 
HETATM    5  C5  UNL     1      25.299   8.859  49.715  1.00  0.00     0.090 C 
HETATM    6  N1  UNL     1      24.421   7.811  49.946  1.00  0.00    -0.349 N 
HETATM    7  C6  UNL     1      23.231   7.257  49.598  1.00  0.00     0.156 C 
HETATM    8  N2  UNL     1      22.497   8.063  50.352  1.00  0.00    -0.266 NA
HETATM    9  C7  UNL     1      21.217   7.405  50.826  1.00  0.00     0.189 C 
HETATM   10  C8  UNL     1      21.442   5.968  50.369  1.00  0.00    -0.038 C 
HETATM   11  C9  UNL     1      21.842   4.974  51.188  1.00  0.00    -0.005 C 
HETATM   12  C10 UNL     1      22.166   3.557  51.235  1.00  0.00     0.087 C 
HETATM   13  C13 UNL     1      23.594   3.157  51.535  1.00  0.00     0.136 C 
HETATM   14  C14 UNL     1      23.480   1.603  51.720  1.00  0.00     0.071 C 
HETATM   15  N4  UNL     1      24.498   3.165  50.450  1.00  0.00    -0.379 N 
HETATM   16  C15 UNL     1      23.987   3.368  49.165  1.00  0.00     0.153 C 
HETATM   17  C16 UNL     1      24.394   4.848  49.010  1.00  0.00     0.156 C 
HETATM   18  O2  UNL     1      23.656   5.525  48.121  1.00  0.00    -0.340 OA
HETATM   19  C17 UNL     1      22.565   6.188  48.808  1.00  0.00     0.115 C 
HETATM   20  C18 UNL     1      21.221   6.073  48.894  1.00  0.00     0.049 C 
HETATM   21  C19 UNL     1      25.826   4.613  49.102  1.00  0.00     0.063 C 
HETATM   22  C20 UNL     1      25.735   3.912  50.496  1.00  0.00     0.131 C 
HETATM   23  H7  UNL     1      24.981   7.312  50.732  1.00  0.00     0.167 HD
ENDROOT
BRANCH  12  24
HETATM   24  C11 UNL     1      21.364   3.050  52.417  1.00  0.00    -0.002 C 
HETATM   25  C12 UNL     1      20.197   2.488  52.331  1.00  0.00     0.051 C 
BRANCH  25  26
HETATM   26  N3  UNL     1      19.616   2.327  51.051  1.00  0.00    -0.312 NA
HETATM   27  H14 UNL     1      19.409   2.056  50.073  1.00  0.00     0.123 HD
HETATM   28  H15 UNL     1      20.149   1.727  50.401  1.00  0.00     0.123 HD
ENDBRANCH  25  26
ENDBRANCH  12  24
BRANCH  13  29
HETATM   29  O1  UNL     1      24.011   3.614  52.750  1.00  0.00    -0.370 OA
HETATM   30  H19 UNL     1      24.946   3.910  52.818  1.00  0.00     0.212 HD
ENDBRANCH  13  29
TORSDOF 3
ENDMDL
MODEL 7
REMARK VINA RESULT:      -7.0      2.596      6.036
REMARK  3 active torsions:
REMARK  status: ('A' for Active; 'I' for Inactive)
REMARK    1  A    between atoms: C10_12  and  C11_13 
REMARK    2  A    between atoms: C12_14  and  N3_15 
REMARK    3  A    between atoms: C13_16  and  O1_18 
ROOT
HETATM    1  C1  UNL     1      25.297   2.246  53.275  1.00  0.00     0.044 C 
HETATM    2  C2  UNL     1      23.905   1.798  52.824  1.00  0.00    -0.075 C 
HETATM    3  C3  UNL     1      23.442   0.724  53.349  1.00  0.00     0.004 C 
HETATM    4  C4  UNL     1      22.816  -0.459  53.862  1.00  0.00     0.017 C 
HETATM    5  C5  UNL     1      21.584  -0.883  53.435  1.00  0.00     0.090 C 
HETATM    6  N1  UNL     1      21.112  -0.001  52.474  1.00  0.00    -0.349 N 
HETATM    7  C6  UNL     1      20.124   0.875  52.156  1.00  0.00     0.156 C 
HETATM    8  N2  UNL     1      19.266  -0.052  51.753  1.00  0.00    -0.266 NA
HETATM    9  C7  UNL     1      18.321   0.460  50.685  1.00  0.00     0.189 C 
HETATM   10  C8  UNL     1      18.931   1.825  50.386  1.00  0.00    -0.038 C 
HETATM   11  C9  UNL     1      19.714   2.079  49.318  1.00  0.00    -0.005 C 
HETATM   12  C10 UNL     1      20.469   3.123  48.644  1.00  0.00     0.087 C 
HETATM   13  C13 UNL     1      21.975   2.992  48.580  1.00  0.00     0.136 C 
HETATM   14  C14 UNL     1      22.376   4.154  47.605  1.00  0.00     0.071 C 
HETATM   15  N4  UNL     1      22.699   3.421  49.714  1.00  0.00    -0.379 N 
HETATM   16  C15 UNL     1      22.007   4.085  50.729  1.00  0.00     0.153 C 
HETATM   17  C16 UNL     1      21.908   2.908  51.721  1.00  0.00     0.156 C 
HETATM   18  O2  UNL     1      20.898   3.013  52.593  1.00  0.00    -0.340 OA
HETATM   19  C17 UNL     1      19.741   2.309  52.076  1.00  0.00     0.115 C 
HETATM   20  C18 UNL     1      18.519   2.618  51.585  1.00  0.00     0.049 C 
HETATM   21  C19 UNL     1      23.342   2.760  51.912  1.00  0.00     0.063 C 
HETATM   22  C20 UNL     1      23.636   2.552  50.391  1.00  0.00     0.131 C 
HETATM   23  H7  UNL     1      21.886  -0.156  51.729  1.00  0.00     0.167 HD
ENDROOT
BRANCH  12  24
HETATM   24  C11 UNL     1      20.009   3.019  47.205  1.00  0.00    -0.002 C 
HETATM   25  C12 UNL     1      19.064   3.737  46.677  1.00  0.00     0.051 C 
BRANCH  25  26
HETATM   26  N3  UNL     1      18.406   4.692  47.489  1.00  0.00    -0.312 NA
HETATM   27  H14 UNL     1      17.760   5.182  48.135  1.00  0.00     0.123 HD
HETATM   28  H15 UNL     1      17.572   4.341  47.989  1.00  0.00     0.123 HD
ENDBRANCH  25  26
ENDBRANCH  12  24
BRANCH  13  29
HETATM   29  O1  UNL     1      22.365   1.857  47.933  1.00  0.00    -0.370 OA
HETATM   30  H19 UNL     1      21.947   1.014  48.221  1.00  0.00     0.212 HD
ENDBRANCH  13  29
TORSDOF 3
ENDMDL
MODEL 8
REMARK VINA RESULT:      -7.0      2.835      7.012
REMARK  3 active torsions:
REMARK  status: ('A' for Active; 'I' for Inactive)
REMARK    1  A    between atoms: C10_12  and  C11_13 
REMARK    2  A    between atoms: C12_14  and  N3_15 
REMARK    3  A    between atoms: C13_16  and  O1_18 
ROOT
HETATM    1  C1  UNL     1      21.904  -0.545  54.542  1.00  0.00     0.044 C 
HETATM    2  C2  UNL     1      20.938   0.035  53.507  1.00  0.00    -0.075 C 
HETATM    3  C3  UNL     1      19.786  -0.520  53.414  1.00  0.00     0.004 C 
HETATM    4  C4  UNL     1      18.470  -1.052  53.213  1.00  0.00     0.017 C 
HETATM    5  C5  UNL     1      17.615  -0.557  52.263  1.00  0.00     0.090 C 
HETATM    6  N1  UNL     1      18.242   0.478  51.585  1.00  0.00    -0.349 N 
HETATM    7  C6  UNL     1      18.195   1.801  51.282  1.00  0.00     0.156 C 
HETATM    8  N2  UNL     1      17.313   1.668  50.301  1.00  0.00    -0.266 NA
HETATM    9  C7  UNL     1      17.472   2.732  49.234  1.00  0.00     0.189 C 
HETATM   10  C8  UNL     1      18.768   3.399  49.679  1.00  0.00    -0.038 C 
HETATM   11  C9  UNL     1      19.970   3.155  49.118  1.00  0.00    -0.005 C 
HETATM   12  C10 UNL     1      21.379   3.507  49.174  1.00  0.00     0.087 C 
HETATM   13  C13 UNL     1      22.370   2.442  49.594  1.00  0.00     0.136 C 
HETATM   14  C14 UNL     1      23.750   3.131  49.309  1.00  0.00     0.071 C 
HETATM   15  N4  UNL     1      22.530   2.236  50.982  1.00  0.00    -0.379 N 
HETATM   16  C15 UNL     1      21.908   3.128  51.859  1.00  0.00     0.153 C 
HETATM   17  C16 UNL     1      20.717   2.232  52.259  1.00  0.00     0.156 C 
HETATM   18  O2  UNL     1      19.651   2.909  52.701  1.00  0.00    -0.340 OA
HETATM   19  C17 UNL     1      18.741   3.147  51.598  1.00  0.00     0.115 C 
HETATM   20  C18 UNL     1      18.316   4.198  50.860  1.00  0.00     0.049 C 
HETATM   21  C19 UNL     1      21.523   1.186  52.869  1.00  0.00     0.063 C 
HETATM   22  C20 UNL     1      22.368   0.930  51.580  1.00  0.00     0.131 C 
HETATM   23  H7  UNL     1      19.058  -0.094  51.154  1.00  0.00     0.167 HD
ENDROOT
BRANCH  12  24
HETATM   24  C11 UNL     1      21.726   3.810  47.730  1.00  0.00    -0.002 C 
HETATM   25  C12 UNL     1      21.801   5.004  47.223  1.00  0.00     0.051 C 
BRANCH  25  26
HETATM   26  N3  UNL     1      21.546   6.113  48.064  1.00  0.00    -0.312 NA
HETATM   27  H14 UNL     1      21.609   6.871  48.768  1.00  0.00     0.123 HD
HETATM   28  H15 UNL     1      22.318   6.364  48.704  1.00  0.00     0.123 HD
ENDBRANCH  25  26
ENDBRANCH  12  24
BRANCH  13  29
HETATM   29  O1  UNL     1      22.349   1.364  48.760  1.00  0.00    -0.370 OA
HETATM   30  H19 UNL     1      21.644   1.344  48.074  1.00  0.00     0.212 HD
ENDBRANCH  13  29
TORSDOF 3
ENDMDL
MODEL 9
REMARK VINA RESULT:      -6.9      6.138     10.032
REMARK  3 active torsions:
REMARK  status: ('A' for Active; 'I' for Inactive)
REMARK    1  A    between atoms: C10_12  and  C11_13 
REMARK    2  A    between atoms: C12_14  and  N3_15 
REMARK    3  A    between atoms: C13_16  and  O1_18 
ROOT
HETATM    1  C1  UNL     1      23.580   7.407  47.717  1.00  0.00     0.044 C 
HETATM    2  C2  UNL     1      25.075   7.189  47.963  1.00  0.00    -0.075 C 
HETATM    3  C3  UNL     1      25.428   6.040  48.406  1.00  0.00     0.004 C 
HETATM    4  C4  UNL     1      25.948   4.800  48.902  1.00  0.00     0.017 C 
HETATM    5  C5  UNL     1      27.283   4.612  49.156  1.00  0.00     0.090 C 
HETATM    6  N1  UNL     1      27.967   5.782  48.863  1.00  0.00    -0.349 N 
HETATM    7  C6  UNL     1      28.930   6.346  48.089  1.00  0.00     0.156 C 
HETATM    8  N2  UNL     1      29.944   5.915  48.825  1.00  0.00    -0.266 NA
HETATM    9  C7  UNL     1      31.139   6.845  48.763  1.00  0.00     0.189 C 
HETATM   10  C8  UNL     1      30.550   8.026  48.002  1.00  0.00    -0.038 C 
HETATM   11  C9  UNL     1      30.137   9.167  48.590  1.00  0.00    -0.005 C 
HETATM   12  C10 UNL     1      29.558  10.475  48.327  1.00  0.00     0.087 C 
HETATM   13  C13 UNL     1      28.169  10.765  48.855  1.00  0.00     0.136 C 
HETATM   14  C14 UNL     1      28.012  12.300  48.572  1.00  0.00     0.071 C 
HETATM   15  N4  UNL     1      27.085  10.304  48.076  1.00  0.00    -0.379 N 
HETATM   16  C15 UNL     1      27.355   9.777  46.812  1.00  0.00     0.153 C 
HETATM   17  C16 UNL     1      27.224   8.283  47.174  1.00  0.00     0.156 C 
HETATM   18  O2  UNL     1      27.884   7.462  46.350  1.00  0.00    -0.340 OA
HETATM   19  C17 UNL     1      29.200   7.190  46.895  1.00  0.00     0.115 C 
HETATM   20  C18 UNL     1      30.485   7.495  46.605  1.00  0.00     0.049 C 
HETATM   21  C19 UNL     1      25.821   8.352  47.556  1.00  0.00     0.063 C 
HETATM   22  C20 UNL     1      26.053   9.459  48.635  1.00  0.00     0.131 C 
HETATM   23  H7  UNL     1      27.491   6.426  49.596  1.00  0.00     0.167 HD
ENDROOT
BRANCH  12  24
HETATM   24  C11 UNL     1      30.466  11.422  49.084  1.00  0.00    -0.002 C 
HETATM   25  C12 UNL     1      31.398  12.145  48.540  1.00  0.00     0.051 C 
BRANCH  25  26
HETATM   26  N3  UNL     1      31.593  12.056  47.141  1.00  0.00    -0.312 NA
HETATM   27  H14 UNL     1      31.918  11.804  46.190  1.00  0.00     0.123 HD
HETATM   28  H15 UNL     1      32.304  11.369  46.842  1.00  0.00     0.123 HD
ENDBRANCH  25  26
ENDBRANCH  12  24
BRANCH  13  29
HETATM   29  O1  UNL     1      28.104  10.661  50.213  1.00  0.00    -0.370 OA
HETATM   30  H19 UNL     1      28.498  11.395  50.735  1.00  0.00     0.212 HD
ENDBRANCH  13  29
TORSDOF 3
ENDMDL
