MODEL 1
REMARK VINA RESULT:      -7.9      0.000      0.000
REMARK  3 active torsions:
REMARK  status: ('A' for Active; 'I' for Inactive)
REMARK    1  A    between atoms: O1_2  and  C2_3 
REMARK    2  A    between atoms: C2_3  and  O2_4 
REMARK    3  A    between atoms: C2_3  and  C3_5 
ROOT
HETATM    1  C3  UNL     1      26.364   0.441  54.309  1.00  0.00     0.030 C 
HETATM    2  C4  UNL     1      25.441  -0.593  54.391  1.00  0.00     0.103 C 
HETATM    3  C5  UNL     1      23.982  -0.647  54.041  1.00  0.00     0.044 A 
HETATM    4  C6  UNL     1      23.222  -0.311  52.907  1.00  0.00     0.059 A 
HETATM    5  C7  UNL     1      21.897  -0.276  52.608  1.00  0.00     0.059 A 
HETATM    6  N1  UNL     1      21.188  -0.663  53.656  1.00  0.00    -0.242 NA
HETATM    7  C8  UNL     1      21.755  -1.020  54.811  1.00  0.00     0.233 A 
HETATM    8  N2  UNL     1      23.110  -1.021  55.025  1.00  0.00    -0.246 NA
HETATM    9  C9  UNL     1      21.591   0.217  51.282  1.00  0.00     0.029 C 
HETATM   10  C10 UNL     1      22.174   1.314  50.721  1.00  0.00     0.000 C 
HETATM   11  C11 UNL     1      23.199   2.385  51.061  1.00  0.00     0.135 A 
HETATM   12  C12 UNL     1      24.097   3.179  51.623  1.00  0.00     0.019 A 
HETATM   13 CL1  UNL     1      23.641   3.496  49.963  1.00  0.00    -0.174 Cl
HETATM   14  C13 UNL     1      24.391   2.781  53.075  1.00  0.00     0.215 C 
HETATM   15  O3  UNL     1      25.520   2.395  53.404  1.00  0.00    -0.386 OA
HETATM   16  C14 UNL     1      26.611   1.983  53.861  1.00  0.00     0.178 C 
ENDROOT
BRANCH   1  17
HETATM   17  C2  UNL     1      27.716  -0.026  54.796  1.00  0.00     0.263 C 
BRANCH  17  18
HETATM   18  O1  UNL     1      28.171  -0.985  53.870  1.00  0.00    -0.366 OA
HETATM   19  C1  UNL     1      29.557  -0.804  53.810  1.00  0.00     0.204 C 
ENDBRANCH  17  18
BRANCH  17  20
HETATM   20  O2  UNL     1      28.535   1.103  54.809  1.00  0.00    -0.371 OA
HETATM   21  H5  UNL     1      29.136   1.097  53.994  1.00  0.00     0.212 HD
ENDBRANCH  17  20
ENDBRANCH   1  17
TORSDOF 3
ENDMDL
MODEL 2
REMARK VINA RESULT:      -7.3      2.743      3.915
REMARK  3 active torsions:
REMARK  status: ('A' for Active; 'I' for Inactive)
REMARK    1  A    between atoms: O1_2  and  C2_3 
REMARK    2  A    between atoms: C2_3  and  O2_4 
REMARK    3  A    between atoms: C2_3  and  C3_5 
ROOT
HETATM    1  C3  UNL     1      26.981   0.684  53.927  1.00  0.00     0.030 C 
HETATM    2  C4  UNL     1      27.169   1.827  53.160  1.00  0.00     0.103 C 
HETATM    3  C5  UNL     1      26.303   2.472  52.117  1.00  0.00     0.044 A 
HETATM    4  C6  UNL     1      24.960   2.885  52.062  1.00  0.00     0.059 A 
HETATM    5  C7  UNL     1      24.144   3.391  51.100  1.00  0.00     0.059 A 
HETATM    6  N1  UNL     1      24.810   3.516  49.965  1.00  0.00    -0.242 NA
HETATM    7  C8  UNL     1      26.095   3.173  49.847  1.00  0.00     0.233 A 
HETATM    8  N2  UNL     1      26.843   2.663  50.877  1.00  0.00    -0.246 NA
HETATM    9  C9  UNL     1      22.775   3.606  51.523  1.00  0.00     0.029 C 
HETATM   10  C10 UNL     1      22.052   2.712  52.255  1.00  0.00     0.000 C 
HETATM   11  C11 UNL     1      22.203   1.334  52.881  1.00  0.00     0.135 A 
HETATM   12  C12 UNL     1      22.603   0.143  53.297  1.00  0.00     0.019 A 
HETATM   13 CL1  UNL     1      21.013   0.692  53.780  1.00  0.00    -0.174 Cl
HETATM   14  C13 UNL     1      24.011  -0.201  52.793  1.00  0.00     0.215 C 
HETATM   15  O3  UNL     1      24.944  -0.357  53.591  1.00  0.00    -0.386 OA
HETATM   16  C14 UNL     1      25.968  -0.531  54.292  1.00  0.00     0.178 C 
ENDROOT
BRANCH   1  17
HETATM   17  C2  UNL     1      28.169   0.464  54.835  1.00  0.00     0.263 C 
BRANCH  17  18
HETATM   18  O1  UNL     1      28.745  -0.764  54.456  1.00  0.00    -0.366 OA
HETATM   19  C1  UNL     1      29.846  -0.420  53.664  1.00  0.00     0.204 C 
ENDBRANCH  17  18
BRANCH  17  20
HETATM   20  O2  UNL     1      29.036   1.531  54.605  1.00  0.00    -0.371 OA
HETATM   21  H5  UNL     1      29.322   1.533  53.634  1.00  0.00     0.212 HD
ENDBRANCH  17  20
ENDBRANCH   1  17
TORSDOF 3
ENDMDL
MODEL 3
REMARK VINA RESULT:      -7.2      3.343      5.323
REMARK  3 active torsions:
REMARK  status: ('A' for Active; 'I' for Inactive)
REMARK    1  A    between atoms: O1_2  and  C2_3 
REMARK    2  A    between atoms: C2_3  and  O2_4 
REMARK    3  A    between atoms: C2_3  and  C3_5 
ROOT
HETATM    1  C3  UNL     1      26.010   3.941  50.242  1.00  0.00     0.030 C 
HETATM    2  C4  UNL     1      26.894   2.954  50.660  1.00  0.00     0.103 C 
HETATM    3  C5  UNL     1      26.820   1.976  51.796  1.00  0.00     0.044 A 
HETATM    4  C6  UNL     1      25.866   1.043  52.240  1.00  0.00     0.059 A 
HETATM    5  C7  UNL     1      25.751   0.214  53.310  1.00  0.00     0.059 A 
HETATM    6  N1  UNL     1      26.809   0.340  54.093  1.00  0.00    -0.242 NA
HETATM    7  C8  UNL     1      27.809   1.180  53.816  1.00  0.00     0.233 A 
HETATM    8  N2  UNL     1      27.839   1.986  52.706  1.00  0.00    -0.246 NA
HETATM    9  C9  UNL     1      24.511  -0.533  53.363  1.00  0.00     0.029 C 
HETATM   10  C10 UNL     1      23.283   0.004  53.118  1.00  0.00     0.000 C 
HETATM   11  C11 UNL     1      22.653   1.340  52.755  1.00  0.00     0.135 A 
HETATM   12  C12 UNL     1      22.385   2.602  52.461  1.00  0.00     0.019 A 
HETATM   13 CL1  UNL     1      21.059   1.461  52.472  1.00  0.00    -0.174 Cl
HETATM   14  C13 UNL     1      23.642   3.482  52.494  1.00  0.00     0.215 C 
HETATM   15  O3  UNL     1      24.050   4.035  51.465  1.00  0.00    -0.386 OA
HETATM   16  C14 UNL     1      24.566   4.639  50.497  1.00  0.00     0.178 C 
ENDROOT
BRANCH   1  17
HETATM   17  C2  UNL     1      26.564   4.662  49.035  1.00  0.00     0.263 C 
BRANCH  17  18
HETATM   18  O1  UNL     1      25.869   5.882  48.938  1.00  0.00    -0.366 OA
HETATM   19  C1  UNL     1      26.808   6.798  48.452  1.00  0.00     0.204 C 
ENDBRANCH  17  18
BRANCH  17  20
HETATM   20  O2  UNL     1      27.920   4.862  49.292  1.00  0.00    -0.371 OA
HETATM   21  H5  UNL     1      28.028   5.526  50.049  1.00  0.00     0.212 HD
ENDBRANCH  17  20
ENDBRANCH   1  17
TORSDOF 3
ENDMDL
MODEL 4
REMARK VINA RESULT:      -7.0      2.714      5.132
REMARK  3 active torsions:
REMARK  status: ('A' for Active; 'I' for Inactive)
REMARK    1  A    between atoms: O1_2  and  C2_3 
REMARK    2  A    between atoms: C2_3  and  O2_4 
REMARK    3  A    between atoms: C2_3  and  C3_5 
ROOT
HETATM    1  C3  UNL     1      24.842   3.448  50.894  1.00  0.00     0.030 C 
HETATM    2  C4  UNL     1      23.597   3.049  51.364  1.00  0.00     0.103 C 
HETATM    3  C5  UNL     1      23.140   1.761  51.984  1.00  0.00     0.044 A 
HETATM    4  C6  UNL     1      23.588   0.960  53.049  1.00  0.00     0.059 A 
HETATM    5  C7  UNL     1      23.235  -0.247  53.565  1.00  0.00     0.059 A 
HETATM    6  N1  UNL     1      22.222  -0.751  52.880  1.00  0.00    -0.242 NA
HETATM    7  C8  UNL     1      21.675  -0.116  51.840  1.00  0.00     0.233 A 
HETATM    8  N2  UNL     1      22.102   1.105  51.384  1.00  0.00    -0.246 NA
HETATM    9  C9  UNL     1      24.064  -0.699  54.662  1.00  0.00     0.029 C 
HETATM   10  C10 UNL     1      25.425  -0.623  54.674  1.00  0.00     0.000 C 
HETATM   11  C11 UNL     1      26.569  -0.159  53.785  1.00  0.00     0.135 A 
HETATM   12  C12 UNL     1      27.344   0.302  52.817  1.00  0.00     0.019 A 
HETATM   13 CL1  UNL     1      28.104  -0.202  54.311  1.00  0.00    -0.174 Cl
HETATM   14  C13 UNL     1      26.539   0.701  51.573  1.00  0.00     0.215 C 
HETATM   15  O3  UNL     1      26.513   1.877  51.192  1.00  0.00    -0.386 OA
HETATM   16  C14 UNL     1      26.400   3.029  50.710  1.00  0.00     0.178 C 
ENDROOT
BRANCH   1  17
HETATM   17  C2  UNL     1      24.770   4.857  50.354  1.00  0.00     0.263 C 
BRANCH  17  18
HETATM   18  O1  UNL     1      24.039   5.612  51.291  1.00  0.00    -0.366 OA
HETATM   19  C1  UNL     1      24.422   6.939  51.068  1.00  0.00     0.204 C 
ENDBRANCH  17  18
BRANCH  17  20
HETATM   20  O2  UNL     1      26.088   5.302  50.253  1.00  0.00    -0.371 OA
HETATM   21  H5  UNL     1      26.325   5.850  51.071  1.00  0.00     0.212 HD
ENDBRANCH  17  20
ENDBRANCH   1  17
TORSDOF 3
ENDMDL
MODEL 5
REMARK VINA RESULT:      -6.8      3.139      5.544
REMARK  3 active torsions:
REMARK  status: ('A' for Active; 'I' for Inactive)
REMARK    1  A    between atoms: O1_2  and  C2_3 
REMARK    2  A    between atoms: C2_3  and  O2_4 
REMARK    3  A    between atoms: C2_3  and  C3_5 
ROOT
HETATM    1  C3  UNL     1      22.865   3.893  51.815  1.00  0.00     0.030 C 
HETATM    2  C4  UNL     1      21.535   3.595  52.088  1.00  0.00     0.103 C 
HETATM    3  C5  UNL     1      20.851   2.288  52.364  1.00  0.00     0.044 A 
HETATM    4  C6  UNL     1      21.075   1.220  53.250  1.00  0.00     0.059 A 
HETATM    5  C7  UNL     1      20.515  -0.002  53.452  1.00  0.00     0.059 A 
HETATM    6  N1  UNL     1      19.524  -0.190  52.597  1.00  0.00    -0.242 NA
HETATM    7  C8  UNL     1      19.178   0.727  51.690  1.00  0.00     0.233 A 
HETATM    8  N2  UNL     1      19.806   1.939  51.556  1.00  0.00    -0.246 NA
HETATM    9  C9  UNL     1      21.157  -0.797  54.478  1.00  0.00     0.029 C 
HETATM   10  C10 UNL     1      22.507  -0.931  54.609  1.00  0.00     0.000 C 
HETATM   11  C11 UNL     1      23.789  -0.466  53.936  1.00  0.00     0.135 A 
HETATM   12  C12 UNL     1      24.717   0.069  53.159  1.00  0.00     0.019 A 
HETATM   13 CL1  UNL     1      25.241  -0.850  54.552  1.00  0.00    -0.174 Cl
HETATM   14  C13 UNL     1      24.108   0.840  51.981  1.00  0.00     0.215 C 
HETATM   15  O3  UNL     1      24.276   2.061  51.874  1.00  0.00    -0.386 OA
HETATM   16  C14 UNL     1      24.366   3.292  51.658  1.00  0.00     0.178 C 
ENDROOT
BRANCH   1  17
HETATM   17  C2  UNL     1      23.035   5.379  51.605  1.00  0.00     0.263 C 
BRANCH  17  18
HETATM   18  O1  UNL     1      21.743   5.939  51.609  1.00  0.00    -0.366 OA
HETATM   19  C1  UNL     1      21.835   7.074  50.797  1.00  0.00     0.204 C 
ENDBRANCH  17  18
BRANCH  17  20
HETATM   20  O2  UNL     1      23.797   5.838  52.678  1.00  0.00    -0.371 OA
HETATM   21  H5  UNL     1      24.583   6.375  52.332  1.00  0.00     0.212 HD
ENDBRANCH  17  20
ENDBRANCH   1  17
TORSDOF 3
ENDMDL
MODEL 6
REMARK VINA RESULT:      -6.7      9.883     11.903
REMARK  3 active torsions:
REMARK  status: ('A' for Active; 'I' for Inactive)
REMARK    1  A    between atoms: O1_2  and  C2_3 
REMARK    2  A    between atoms: C2_3  and  O2_4 
REMARK    3  A    between atoms: C2_3  and  C3_5 
ROOT
HETATM    1  C3  UNL     1      29.743   6.282  47.779  1.00  0.00     0.030 C 
HETATM    2  C4  UNL     1      30.541   5.319  48.384  1.00  0.00     0.103 C 
HETATM    3  C5  UNL     1      32.019   5.067  48.307  1.00  0.00     0.044 A 
HETATM    4  C6  UNL     1      33.169   5.856  48.482  1.00  0.00     0.059 A 
HETATM    5  C7  UNL     1      34.506   5.662  48.333  1.00  0.00     0.059 A 
HETATM    6  N1  UNL     1      34.739   4.423  47.936  1.00  0.00    -0.242 NA
HETATM    7  C8  UNL     1      33.758   3.541  47.727  1.00  0.00     0.233 A 
HETATM    8  N2  UNL     1      32.428   3.828  47.900  1.00  0.00    -0.246 NA
HETATM    9  C9  UNL     1      35.316   6.837  48.578  1.00  0.00     0.029 C 
HETATM   10  C10 UNL     1      35.022   8.081  48.108  1.00  0.00     0.000 C 
HETATM   11  C11 UNL     1      33.966   8.783  47.266  1.00  0.00     0.135 A 
HETATM   12  C12 UNL     1      32.936   9.119  46.507  1.00  0.00     0.019 A 
HETATM   13 CL1  UNL     1      34.011  10.391  47.043  1.00  0.00    -0.174 Cl
HETATM   14  C13 UNL     1      32.088   7.901  46.114  1.00  0.00     0.215 C 
HETATM   15  O3  UNL     1      30.913   7.805  46.491  1.00  0.00    -0.386 OA
HETATM   16  C14 UNL     1      29.722   7.587  46.813  1.00  0.00     0.178 C 
ENDROOT
BRANCH   1  17
HETATM   17  C2  UNL     1      28.300   6.095  48.185  1.00  0.00     0.263 C 
BRANCH  17  18
HETATM   18  O1  UNL     1      28.182   4.777  48.665  1.00  0.00    -0.366 OA
HETATM   19  C1  UNL     1      26.844   4.652  49.057  1.00  0.00     0.204 C 
ENDBRANCH  17  18
BRANCH  17  20
HETATM   20  O2  UNL     1      28.056   7.032  49.189  1.00  0.00    -0.371 OA
HETATM   21  H5  UNL     1      28.642   6.832  49.990  1.00  0.00     0.212 HD
ENDBRANCH  17  20
ENDBRANCH   1  17
TORSDOF 3
ENDMDL
MODEL 7
REMARK VINA RESULT:      -6.7      3.188      5.243
REMARK  3 active torsions:
REMARK  status: ('A' for Active; 'I' for Inactive)
REMARK    1  A    between atoms: O1_2  and  C2_3 
REMARK    2  A    between atoms: C2_3  and  O2_4 
REMARK    3  A    between atoms: C2_3  and  C3_5 
ROOT
HETATM    1  C3  UNL     1      21.705   0.344  53.222  1.00  0.00     0.030 C 
HETATM    2  C4  UNL     1      22.951   0.041  53.759  1.00  0.00     0.103 C 
HETATM    3  C5  UNL     1      24.332   0.159  53.184  1.00  0.00     0.044 A 
HETATM    4  C6  UNL     1      25.061   1.187  52.560  1.00  0.00     0.059 A 
HETATM    5  C7  UNL     1      26.277   1.282  51.961  1.00  0.00     0.059 A 
HETATM    6  N1  UNL     1      26.891   0.112  52.000  1.00  0.00    -0.242 NA
HETATM    7  C8  UNL     1      26.339  -0.968  52.560  1.00  0.00     0.233 A 
HETATM    8  N2  UNL     1      25.097  -0.972  53.141  1.00  0.00    -0.246 NA
HETATM    9  C9  UNL     1      26.568   2.581  51.391  1.00  0.00     0.029 C 
HETATM   10  C10 UNL     1      25.682   3.309  50.655  1.00  0.00     0.000 C 
HETATM   11  C11 UNL     1      24.259   3.213  50.125  1.00  0.00     0.135 A 
HETATM   12  C12 UNL     1      23.029   2.860  49.791  1.00  0.00     0.019 A 
HETATM   13 CL1  UNL     1      23.584   4.450  49.318  1.00  0.00    -0.174 Cl
HETATM   14  C13 UNL     1      22.686   1.443  50.269  1.00  0.00     0.215 C 
HETATM   15  O3  UNL     1      21.788   1.260  51.101  1.00  0.00    -0.386 OA
HETATM   16  C14 UNL     1      20.912   0.944  51.939  1.00  0.00     0.178 C 
ENDROOT
BRANCH   1  17
HETATM   17  C2  UNL     1      20.616   0.034  54.222  1.00  0.00     0.263 C 
BRANCH  17  18
HETATM   18  O1  UNL     1      19.467  -0.298  53.479  1.00  0.00    -0.366 OA
HETATM   19  C1  UNL     1      19.198  -1.633  53.801  1.00  0.00     0.204 C 
ENDBRANCH  17  18
BRANCH  17  20
HETATM   20  O2  UNL     1      21.074  -1.050  54.971  1.00  0.00    -0.371 OA
HETATM   21  H5  UNL     1      20.538  -1.876  54.735  1.00  0.00     0.212 HD
ENDBRANCH  17  20
ENDBRANCH   1  17
TORSDOF 3
ENDMDL
MODEL 8
REMARK VINA RESULT:      -6.4      4.443      7.450
REMARK  3 active torsions:
REMARK  status: ('A' for Active; 'I' for Inactive)
REMARK    1  A    between atoms: O1_2  and  C2_3 
REMARK    2  A    between atoms: C2_3  and  O2_4 
REMARK    3  A    between atoms: C2_3  and  C3_5 
ROOT
HETATM    1  C3  UNL     1      18.972   0.183  51.429  1.00  0.00     0.030 C 
HETATM    2  C4  UNL     1      19.858   0.866  50.606  1.00  0.00     0.103 C 
HETATM    3  C5  UNL     1      21.198   1.481  50.889  1.00  0.00     0.044 A 
HETATM    4  C6  UNL     1      22.391   1.028  51.479  1.00  0.00     0.059 A 
HETATM    5  C7  UNL     1      23.578   1.597  51.816  1.00  0.00     0.059 A 
HETATM    6  N1  UNL     1      23.573   2.878  51.490  1.00  0.00    -0.242 NA
HETATM    7  C8  UNL     1      22.520   3.466  50.917  1.00  0.00     0.233 A 
HETATM    8  N2  UNL     1      21.354   2.810  50.614  1.00  0.00    -0.246 NA
HETATM    9  C9  UNL     1      24.505   0.706  52.484  1.00  0.00     0.029 C 
HETATM   10  C10 UNL     1      24.155  -0.152  53.483  1.00  0.00     0.000 C 
HETATM   11  C11 UNL     1      22.928  -0.565  54.282  1.00  0.00     0.135 A 
HETATM   12  C12 UNL     1      21.726  -0.710  54.816  1.00  0.00     0.019 A 
HETATM   13 CL1  UNL     1      23.007  -1.763  55.374  1.00  0.00    -0.174 Cl
HETATM   14  C13 UNL     1      20.711   0.281  54.231  1.00  0.00     0.215 C 
HETATM   15  O3  UNL     1      19.733  -0.125  53.590  1.00  0.00    -0.386 OA
HETATM   16  C14 UNL     1      18.713  -0.406  52.920  1.00  0.00     0.178 C 
ENDROOT
BRANCH   1  17
HETATM   17  C2  UNL     1      17.746  -0.230  50.648  1.00  0.00     0.263 C 
BRANCH  17  18
HETATM   18  O1  UNL     1      16.629   0.160  51.410  1.00  0.00    -0.366 OA
HETATM   19  C1  UNL     1      15.522  -0.342  50.718  1.00  0.00     0.204 C 
ENDBRANCH  17  18
BRANCH  17  20
HETATM   20  O2  UNL     1      17.807   0.459  49.437  1.00  0.00    -0.371 OA
HETATM   21  H5  UNL     1      16.870   0.678  49.123  1.00  0.00     0.212 HD
ENDBRANCH  17  20
ENDBRANCH   1  17
TORSDOF 3
ENDMDL
MODEL 9
REMARK VINA RESULT:      -6.4      3.622      6.262
REMARK  3 active torsions:
REMARK  status: ('A' for Active; 'I' for Inactive)
REMARK    1  A    between atoms: O1_2  and  C2_3 
REMARK    2  A    between atoms: C2_3  and  O2_4 
REMARK    3  A    between atoms: C2_3  and  C3_5 
ROOT
HETATM    1  C3  UNL     1      21.067   0.511  52.306  1.00  0.00     0.030 C 
HETATM    2  C4  UNL     1      21.163   1.724  51.635  1.00  0.00     0.103 C 
HETATM    3  C5  UNL     1      22.294   2.704  51.518  1.00  0.00     0.044 A 
HETATM    4  C6  UNL     1      23.649   2.613  51.157  1.00  0.00     0.059 A 
HETATM    5  C7  UNL     1      24.701   3.473  51.127  1.00  0.00     0.059 A 
HETATM    6  N1  UNL     1      24.316   4.670  51.537  1.00  0.00    -0.242 NA
HETATM    7  C8  UNL     1      23.060   4.928  51.914  1.00  0.00     0.233 A 
HETATM    8  N2  UNL     1      22.059   3.990  51.914  1.00  0.00    -0.246 NA
HETATM    9  C9  UNL     1      25.958   2.875  50.727  1.00  0.00     0.029 C 
HETATM   10  C10 UNL     1      26.414   1.676  51.184  1.00  0.00     0.000 C 
HETATM   11  C11 UNL     1      25.998   0.562  52.134  1.00  0.00     0.135 A 
HETATM   12  C12 UNL     1      25.404  -0.228  53.014  1.00  0.00     0.019 A 
HETATM   13 CL1  UNL     1      26.894  -0.783  52.285  1.00  0.00    -0.174 Cl
HETATM   14  C13 UNL     1      24.114   0.393  53.567  1.00  0.00     0.215 C 
HETATM   15  O3  UNL     1      23.019  -0.144  53.359  1.00  0.00    -0.386 OA
HETATM   16  C14 UNL     1      21.854  -0.582  53.212  1.00  0.00     0.178 C 
ENDROOT
BRANCH   1  17
HETATM   17  C2  UNL     1      19.694  -0.087  52.109  1.00  0.00     0.263 C 
BRANCH  17  18
HETATM   18  O1  UNL     1      19.350  -0.718  53.321  1.00  0.00    -0.366 OA
HETATM   19  C1  UNL     1      18.053  -1.205  53.122  1.00  0.00     0.204 C 
ENDBRANCH  17  18
BRANCH  17  20
HETATM   20  O2  UNL     1      18.842   0.980  51.826  1.00  0.00    -0.371 OA
HETATM   21  H5  UNL     1      18.976   1.276  50.868  1.00  0.00     0.212 HD
ENDBRANCH  17  20
ENDBRANCH   1  17
TORSDOF 3
ENDMDL
