MODEL 1
REMARK VINA RESULT:      -8.0      0.000      0.000
REMARK  3 active torsions:
REMARK  status: ('A' for Active; 'I' for Inactive)
REMARK    1  A    between atoms: C2_2  and  C3_3 
REMARK    2  A    between atoms: C3_3  and  N1_4 
REMARK    3  A    between atoms: C8_10  and  C9_11 
ROOT
HETATM    1  N1  UNL     1      25.701   0.080  52.871  1.00  0.00    -0.368 N 
HETATM    2  C4  UNL     1      25.430  -0.409  54.200  1.00  0.00     0.493 A 
HETATM    3  O1  UNL     1      25.541  -1.045  55.302  1.00  0.00    -0.413 OA
HETATM    4  C5  UNL     1      24.483   0.654  53.374  1.00  0.00     0.187 A 
HETATM    5  C6  UNL     1      23.383   0.365  52.446  1.00  0.00     0.007 A 
HETATM    6  C7  UNL     1      22.877   1.497  52.007  1.00  0.00     0.012 A 
HETATM    7  C8  UNL     1      23.570   2.648  52.583  1.00  0.00     0.028 A 
HETATM    8  C17 UNL     1      24.501   2.154  53.376  1.00  0.00     0.132 A 
HETATM    9  F2  UNL     1      25.436   2.746  54.161  1.00  0.00    -0.207 F 
ENDROOT
BRANCH   7  10
HETATM   10  C9  UNL     1      23.353   4.103  52.387  1.00  0.00     0.195 A 
HETATM   11  F1  UNL     1      23.839   4.886  53.388  1.00  0.00    -0.226 F 
HETATM   12  C10 UNL     1      21.922   4.430  52.174  1.00  0.00     0.045 A 
HETATM   13  C11 UNL     1      21.668   4.971  50.981  1.00  0.00     0.091 A 
HETATM   14  N2  UNL     1      22.893   5.067  50.264  1.00  0.00    -0.353 N 
HETATM   15  C12 UNL     1      23.018   5.606  48.924  1.00  0.00     0.157 A 
HETATM   16  C16 UNL     1      23.942   4.551  51.077  1.00  0.00     0.062 A 
HETATM   17  C13 UNL     1      24.438   5.548  48.495  1.00  0.00     0.017 A 
HETATM   18  C14 UNL     1      25.480   5.084  49.191  1.00  0.00     0.033 A 
HETATM   19 CL1  UNL     1      27.158   5.034  48.641  1.00  0.00    -0.085 Cl
HETATM   20  C15 UNL     1      25.159   4.575  50.535  1.00  0.00     0.053 A 
ENDBRANCH   7  10
BRANCH   1  21
HETATM   21  C3  UNL     1      26.886  -0.400  52.228  1.00  0.00     0.120 C 
BRANCH  21  22
HETATM   22  C2  UNL     1      28.134  -0.143  53.050  1.00  0.00     0.015 C 
HETATM   23  C1  UNL     1      28.934  -1.387  53.280  1.00  0.00     0.006 C 
ENDBRANCH  21  22
ENDBRANCH   1  21
TORSDOF 3
ENDMDL
MODEL 2
REMARK VINA RESULT:      -7.7      3.435      6.368
REMARK  3 active torsions:
REMARK  status: ('A' for Active; 'I' for Inactive)
REMARK    1  A    between atoms: C2_2  and  C3_3 
REMARK    2  A    between atoms: C3_3  and  N1_4 
REMARK    3  A    between atoms: C8_10  and  C9_11 
ROOT
HETATM    1  N1  UNL     1      23.411   4.141  48.649  1.00  0.00    -0.368 N 
HETATM    2  C4  UNL     1      23.764   5.533  48.531  1.00  0.00     0.493 A 
HETATM    3  O1  UNL     1      23.791   6.746  48.129  1.00  0.00    -0.413 OA
HETATM    4  C5  UNL     1      24.427   4.479  49.607  1.00  0.00     0.187 A 
HETATM    5  C6  UNL     1      25.588   3.600  49.425  1.00  0.00     0.007 A 
HETATM    6  C7  UNL     1      25.798   2.924  50.534  1.00  0.00     0.012 A 
HETATM    7  C8  UNL     1      24.818   3.270  51.562  1.00  0.00     0.028 A 
HETATM    8  C17 UNL     1      24.024   4.173  51.020  1.00  0.00     0.132 A 
HETATM    9  F2  UNL     1      22.948   4.846  51.501  1.00  0.00    -0.207 F 
ENDROOT
BRANCH   7  10
HETATM   10  C9  UNL     1      24.659   2.772  52.950  1.00  0.00     0.195 A 
HETATM   11  F1  UNL     1      24.257   3.716  53.845  1.00  0.00    -0.226 F 
HETATM   12  C10 UNL     1      25.894   2.126  53.457  1.00  0.00     0.045 A 
HETATM   13  C11 UNL     1      25.741   0.833  53.751  1.00  0.00     0.091 A 
HETATM   14  N2  UNL     1      24.393   0.470  53.477  1.00  0.00    -0.353 N 
HETATM   15  C12 UNL     1      23.847  -0.859  53.672  1.00  0.00     0.157 A 
HETATM   16  C16 UNL     1      23.700   1.613  52.989  1.00  0.00     0.062 A 
HETATM   17  C13 UNL     1      22.414  -0.870  53.283  1.00  0.00     0.017 A 
HETATM   18  C14 UNL     1      21.690   0.151  52.819  1.00  0.00     0.033 A 
HETATM   19 CL1  UNL     1      19.983   0.094  52.366  1.00  0.00    -0.085 Cl
HETATM   20  C15 UNL     1      22.416   1.426  52.686  1.00  0.00     0.053 A 
ENDBRANCH   7  10
BRANCH   1  21
HETATM   21  C3  UNL     1      22.406   3.644  47.759  1.00  0.00     0.120 C 
BRANCH  21  22
HETATM   22  C2  UNL     1      22.365   2.129  47.722  1.00  0.00     0.015 C 
HETATM   23  C1  UNL     1      21.960   1.535  49.035  1.00  0.00     0.006 C 
ENDBRANCH  21  22
ENDBRANCH   1  21
TORSDOF 3
ENDMDL
MODEL 3
REMARK VINA RESULT:      -7.5      2.647      3.689
REMARK  3 active torsions:
REMARK  status: ('A' for Active; 'I' for Inactive)
REMARK    1  A    between atoms: C2_2  and  C3_3 
REMARK    2  A    between atoms: C3_3  and  N1_4 
REMARK    3  A    between atoms: C8_10  and  C9_11 
ROOT
HETATM    1  N1  UNL     1      24.912   0.696  53.378  1.00  0.00    -0.368 N 
HETATM    2  C4  UNL     1      26.043   0.891  54.250  1.00  0.00     0.493 A 
HETATM    3  O1  UNL     1      26.933   0.688  55.143  1.00  0.00    -0.413 OA
HETATM    4  C5  UNL     1      25.502   1.985  53.145  1.00  0.00     0.187 A 
HETATM    5  C6  UNL     1      24.486   3.031  53.320  1.00  0.00     0.007 A 
HETATM    6  C7  UNL     1      24.353   3.699  52.194  1.00  0.00     0.012 A 
HETATM    7  C8  UNL     1      25.250   3.184  51.161  1.00  0.00     0.028 A 
HETATM    8  C17 UNL     1      25.915   2.189  51.717  1.00  0.00     0.132 A 
HETATM    9  F2  UNL     1      26.870   1.352  51.239  1.00  0.00    -0.207 F 
ENDROOT
BRANCH   7  10
HETATM   10  C9  UNL     1      25.451   3.613  49.756  1.00  0.00     0.195 A 
HETATM   11  F1  UNL     1      26.206   2.763  49.008  1.00  0.00    -0.226 F 
HETATM   12  C10 UNL     1      26.032   4.975  49.666  1.00  0.00     0.045 A 
HETATM   13  C11 UNL     1      25.237   5.858  49.057  1.00  0.00     0.091 A 
HETATM   14  N2  UNL     1      24.042   5.190  48.672  1.00  0.00    -0.353 N 
HETATM   15  C12 UNL     1      22.935   5.824  47.982  1.00  0.00     0.157 A 
HETATM   16  C16 UNL     1      24.126   3.828  49.076  1.00  0.00     0.062 A 
HETATM   17  C13 UNL     1      21.861   4.828  47.743  1.00  0.00     0.017 A 
HETATM   18  C14 UNL     1      21.859   3.537  48.086  1.00  0.00     0.033 A 
HETATM   19 CL1  UNL     1      20.556   2.383  47.781  1.00  0.00    -0.085 Cl
HETATM   20  C15 UNL     1      23.070   3.070  48.781  1.00  0.00     0.053 A 
ENDBRANCH   7  10
BRANCH   1  21
HETATM   21  C3  UNL     1      24.211  -0.547  53.489  1.00  0.00     0.120 C 
BRANCH  21  22
HETATM   22  C2  UNL     1      22.708  -0.373  53.402  1.00  0.00     0.015 C 
HETATM   23  C1  UNL     1      22.285   0.345  52.158  1.00  0.00     0.006 C 
ENDBRANCH  21  22
ENDBRANCH   1  21
TORSDOF 3
ENDMDL
MODEL 4
REMARK VINA RESULT:      -7.5      3.536      5.012
REMARK  3 active torsions:
REMARK  status: ('A' for Active; 'I' for Inactive)
REMARK    1  A    between atoms: C2_2  and  C3_3 
REMARK    2  A    between atoms: C3_3  and  N1_4 
REMARK    3  A    between atoms: C8_10  and  C9_11 
ROOT
HETATM    1  N1  UNL     1      20.026  -0.080  52.584  1.00  0.00    -0.368 N 
HETATM    2  C4  UNL     1      18.741   0.350  52.094  1.00  0.00     0.493 A 
HETATM    3  O1  UNL     1      17.477   0.451  51.935  1.00  0.00    -0.413 OA
HETATM    4  C5  UNL     1      20.191   0.932  51.576  1.00  0.00     0.187 A 
HETATM    5  C6  UNL     1      21.047   0.420  50.499  1.00  0.00     0.007 A 
HETATM    6  C7  UNL     1      22.116   1.178  50.397  1.00  0.00     0.012 A 
HETATM    7  C8  UNL     1      22.095   2.263  51.378  1.00  0.00     0.028 A 
HETATM    8  C17 UNL     1      20.976   2.116  52.060  1.00  0.00     0.132 A 
HETATM    9  F2  UNL     1      20.434   2.823  53.083  1.00  0.00    -0.207 F 
ENDROOT
BRANCH   7  10
HETATM   10  C9  UNL     1      23.071   3.350  51.636  1.00  0.00     0.195 A 
HETATM   11  F1  UNL     1      22.661   4.270  52.552  1.00  0.00    -0.226 F 
HETATM   12  C10 UNL     1      23.465   4.054  50.392  1.00  0.00     0.045 A 
HETATM   13  C11 UNL     1      24.764   3.946  50.103  1.00  0.00     0.091 A 
HETATM   14  N2  UNL     1      25.382   3.163  51.117  1.00  0.00    -0.353 N 
HETATM   15  C12 UNL     1      26.793   2.827  51.146  1.00  0.00     0.157 A 
HETATM   16  C16 UNL     1      24.395   2.778  52.067  1.00  0.00     0.062 A 
HETATM   17  C13 UNL     1      27.082   2.000  52.344  1.00  0.00     0.017 A 
HETATM   18  C14 UNL     1      26.221   1.596  53.281  1.00  0.00     0.033 A 
HETATM   19 CL1  UNL     1      26.609   0.609  54.694  1.00  0.00    -0.085 Cl
HETATM   20  C15 UNL     1      24.829   2.034  53.083  1.00  0.00     0.053 A 
ENDBRANCH   7  10
BRANCH   1  21
HETATM   21  C3  UNL     1      20.033  -1.090  53.597  1.00  0.00     0.120 C 
BRANCH  21  22
HETATM   22  C2  UNL     1      21.172  -0.913  54.582  1.00  0.00     0.015 C 
HETATM   23  C1  UNL     1      22.509  -0.873  53.910  1.00  0.00     0.006 C 
ENDBRANCH  21  22
ENDBRANCH   1  21
TORSDOF 3
ENDMDL
MODEL 5
REMARK VINA RESULT:      -7.3      2.571      3.702
REMARK  3 active torsions:
REMARK  status: ('A' for Active; 'I' for Inactive)
REMARK    1  A    between atoms: C2_2  and  C3_3 
REMARK    2  A    between atoms: C3_3  and  N1_4 
REMARK    3  A    between atoms: C8_10  and  C9_11 
ROOT
HETATM    1  N1  UNL     1      24.966   0.639  53.433  1.00  0.00    -0.368 N 
HETATM    2  C4  UNL     1      26.124   0.883  54.255  1.00  0.00     0.493 A 
HETATM    3  O1  UNL     1      27.057   0.720  55.112  1.00  0.00    -0.413 OA
HETATM    4  C5  UNL     1      25.498   1.948  53.167  1.00  0.00     0.187 A 
HETATM    5  C6  UNL     1      24.452   2.957  53.377  1.00  0.00     0.007 A 
HETATM    6  C7  UNL     1      24.249   3.610  52.254  1.00  0.00     0.012 A 
HETATM    7  C8  UNL     1      25.121   3.120  51.187  1.00  0.00     0.028 A 
HETATM    8  C17 UNL     1      25.844   2.155  51.722  1.00  0.00     0.132 A 
HETATM    9  F2  UNL     1      26.809   1.350  51.210  1.00  0.00    -0.207 F 
ENDROOT
BRANCH   7  10
HETATM   10  C9  UNL     1      25.248   3.546  49.772  1.00  0.00     0.195 A 
HETATM   11  F1  UNL     1      24.476   2.842  48.900  1.00  0.00    -0.226 F 
HETATM   12  C10 UNL     1      26.654   3.512  49.303  1.00  0.00     0.045 A 
HETATM   13  C11 UNL     1      27.129   4.707  48.944  1.00  0.00     0.091 A 
HETATM   14  N2  UNL     1      26.099   5.670  49.132  1.00  0.00    -0.353 N 
HETATM   15  C12 UNL     1      26.240   7.086  48.850  1.00  0.00     0.157 A 
HETATM   16  C16 UNL     1      24.941   5.012  49.633  1.00  0.00     0.062 A 
HETATM   17  C13 UNL     1      24.969   7.785  49.164  1.00  0.00     0.017 A 
HETATM   18  C14 UNL     1      23.840   7.247  49.634  1.00  0.00     0.033 A 
HETATM   19 CL1  UNL     1      22.345   8.119  49.995  1.00  0.00    -0.085 Cl
HETATM   20  C15 UNL     1      23.885   5.793  49.860  1.00  0.00     0.053 A 
ENDBRANCH   7  10
BRANCH   1  21
HETATM   21  C3  UNL     1      24.317  -0.628  53.580  1.00  0.00     0.120 C 
BRANCH  21  22
HETATM   22  C2  UNL     1      22.822  -0.542  53.340  1.00  0.00     0.015 C 
HETATM   23  C1  UNL     1      22.028  -0.782  54.586  1.00  0.00     0.006 C 
ENDBRANCH  21  22
ENDBRANCH   1  21
TORSDOF 3
ENDMDL
MODEL 6
REMARK VINA RESULT:      -7.0      3.741      6.333
REMARK  3 active torsions:
REMARK  status: ('A' for Active; 'I' for Inactive)
REMARK    1  A    between atoms: C2_2  and  C3_3 
REMARK    2  A    between atoms: C3_3  and  N1_4 
REMARK    3  A    between atoms: C8_10  and  C9_11 
ROOT
HETATM    1  N1  UNL     1      20.109   2.541  49.541  1.00  0.00    -0.368 N 
HETATM    2  C4  UNL     1      19.546   3.811  49.156  1.00  0.00     0.493 A 
HETATM    3  O1  UNL     1      18.700   4.720  48.857  1.00  0.00    -0.413 OA
HETATM    4  C5  UNL     1      21.155   3.504  49.326  1.00  0.00     0.187 A 
HETATM    5  C6  UNL     1      22.096   2.993  48.322  1.00  0.00     0.007 A 
HETATM    6  C7  UNL     1      23.293   2.899  48.859  1.00  0.00     0.012 A 
HETATM    7  C8  UNL     1      23.285   3.329  50.256  1.00  0.00     0.028 A 
HETATM    8  C17 UNL     1      22.042   3.679  50.523  1.00  0.00     0.132 A 
HETATM    9  F2  UNL     1      21.451   4.152  51.649  1.00  0.00    -0.207 F 
ENDROOT
BRANCH   7  10
HETATM   10  C9  UNL     1      24.384   3.398  51.251  1.00  0.00     0.195 A 
HETATM   11  F1  UNL     1      24.247   4.389  52.174  1.00  0.00    -0.226 F 
HETATM   12  C10 UNL     1      25.714   3.523  50.607  1.00  0.00     0.045 A 
HETATM   13  C11 UNL     1      26.530   2.497  50.859  1.00  0.00     0.091 A 
HETATM   14  N2  UNL     1      25.842   1.575  51.696  1.00  0.00    -0.353 N 
HETATM   15  C12 UNL     1      26.407   0.332  52.183  1.00  0.00     0.157 A 
HETATM   16  C16 UNL     1      24.537   2.079  51.959  1.00  0.00     0.062 A 
HETATM   17  C13 UNL     1      25.408  -0.373  53.025  1.00  0.00     0.017 A 
HETATM   18  C14 UNL     1      24.168   0.027  53.322  1.00  0.00     0.033 A 
HETATM   19 CL1  UNL     1      23.009  -0.845  54.331  1.00  0.00    -0.085 Cl
HETATM   20  C15 UNL     1      23.768   1.318  52.736  1.00  0.00     0.053 A 
ENDBRANCH   7  10
BRANCH   1  21
HETATM   21  C3  UNL     1      19.193   1.471  49.792  1.00  0.00     0.120 C 
BRANCH  21  22
HETATM   22  C2  UNL     1      19.479   0.761  51.101  1.00  0.00     0.015 C 
HETATM   23  C1  UNL     1      20.883   0.246  51.178  1.00  0.00     0.006 C 
ENDBRANCH  21  22
ENDBRANCH   1  21
TORSDOF 3
ENDMDL
MODEL 7
REMARK VINA RESULT:      -7.0      2.017      2.792
REMARK  3 active torsions:
REMARK  status: ('A' for Active; 'I' for Inactive)
REMARK    1  A    between atoms: C2_2  and  C3_3 
REMARK    2  A    between atoms: C3_3  and  N1_4 
REMARK    3  A    between atoms: C8_10  and  C9_11 
ROOT
HETATM    1  N1  UNL     1      24.193   1.562  52.087  1.00  0.00    -0.368 N 
HETATM    2  C4  UNL     1      23.049   1.211  52.890  1.00  0.00     0.493 A 
HETATM    3  O1  UNL     1      22.290   0.595  53.713  1.00  0.00    -0.413 OA
HETATM    4  C5  UNL     1      23.128   2.502  51.873  1.00  0.00     0.187 A 
HETATM    5  C6  UNL     1      22.800   2.558  50.443  1.00  0.00     0.007 A 
HETATM    6  C7  UNL     1      22.988   3.783  50.002  1.00  0.00     0.012 A 
HETATM    7  C8  UNL     1      23.453   4.667  51.070  1.00  0.00     0.028 A 
HETATM    8  C17 UNL     1      23.533   3.919  52.154  1.00  0.00     0.132 A 
HETATM    9  F2  UNL     1      23.904   4.200  53.428  1.00  0.00    -0.207 F 
ENDROOT
BRANCH   7  10
HETATM   10  C9  UNL     1      23.793   6.111  51.048  1.00  0.00     0.195 A 
HETATM   11  F1  UNL     1      24.287   6.592  52.221  1.00  0.00    -0.226 F 
HETATM   12  C10 UNL     1      22.642   6.949  50.633  1.00  0.00     0.045 A 
HETATM   13  C11 UNL     1      22.852   7.627  49.503  1.00  0.00     0.091 A 
HETATM   14  N2  UNL     1      24.161   7.322  49.037  1.00  0.00    -0.353 N 
HETATM   15  C12 UNL     1      24.750   7.872  47.831  1.00  0.00     0.157 A 
HETATM   16  C16 UNL     1      24.769   6.406  49.941  1.00  0.00     0.062 A 
HETATM   17  C13 UNL     1      26.123   7.333  47.658  1.00  0.00     0.017 A 
HETATM   18  C14 UNL     1      26.766   6.476  48.454  1.00  0.00     0.033 A 
HETATM   19 CL1  UNL     1      28.404   5.859  48.210  1.00  0.00    -0.085 Cl
HETATM   20  C15 UNL     1      26.008   6.025  49.634  1.00  0.00     0.053 A 
ENDBRANCH   7  10
BRANCH   1  21
HETATM   21  C3  UNL     1      25.345   0.718  52.187  1.00  0.00     0.120 C 
BRANCH  21  22
HETATM   22  C2  UNL     1      26.640   1.484  52.001  1.00  0.00     0.015 C 
HETATM   23  C1  UNL     1      26.606   2.384  50.805  1.00  0.00     0.006 C 
ENDBRANCH  21  22
ENDBRANCH   1  21
TORSDOF 3
ENDMDL
MODEL 8
REMARK VINA RESULT:      -6.9      3.258      4.624
REMARK  3 active torsions:
REMARK  status: ('A' for Active; 'I' for Inactive)
REMARK    1  A    between atoms: C2_2  and  C3_3 
REMARK    2  A    between atoms: C3_3  and  N1_4 
REMARK    3  A    between atoms: C8_10  and  C9_11 
ROOT
HETATM    1  N1  UNL     1      21.795   1.209  52.753  1.00  0.00    -0.368 N 
HETATM    2  C4  UNL     1      22.281  -0.148  52.771  1.00  0.00     0.493 A 
HETATM    3  O1  UNL     1      22.330  -1.415  52.929  1.00  0.00    -0.413 OA
HETATM    4  C5  UNL     1      23.153   1.160  52.285  1.00  0.00     0.187 A 
HETATM    5  C6  UNL     1      23.987   2.053  53.099  1.00  0.00     0.007 A 
HETATM    6  C7  UNL     1      24.523   2.972  52.324  1.00  0.00     0.012 A 
HETATM    7  C8  UNL     1      24.114   2.798  50.931  1.00  0.00     0.028 A 
HETATM    8  C17 UNL     1      23.319   1.745  50.913  1.00  0.00     0.132 A 
HETATM    9  F2  UNL     1      22.652   1.125  49.907  1.00  0.00    -0.207 F 
ENDROOT
BRANCH   7  10
HETATM   10  C9  UNL     1      24.460   3.579  49.719  1.00  0.00     0.195 A 
HETATM   11  F1  UNL     1      23.893   3.119  48.570  1.00  0.00    -0.226 F 
HETATM   12  C10 UNL     1      25.926   3.683  49.521  1.00  0.00     0.045 A 
HETATM   13  C11 UNL     1      26.386   4.935  49.572  1.00  0.00     0.091 A 
HETATM   14  N2  UNL     1      25.286   5.806  49.808  1.00  0.00    -0.353 N 
HETATM   15  C12 UNL     1      25.392   7.247  49.927  1.00  0.00     0.157 A 
HETATM   16  C16 UNL     1      24.098   5.028  49.905  1.00  0.00     0.062 A 
HETATM   17  C13 UNL     1      24.048   7.827  50.170  1.00  0.00     0.017 A 
HETATM   18  C14 UNL     1      22.887   7.174  50.274  1.00  0.00     0.033 A 
HETATM   19 CL1  UNL     1      21.305   7.905  50.565  1.00  0.00    -0.085 Cl
HETATM   20  C15 UNL     1      22.975   5.711  50.126  1.00  0.00     0.053 A 
ENDBRANCH   7  10
BRANCH   1  21
HETATM   21  C3  UNL     1      20.451   1.426  53.194  1.00  0.00     0.120 C 
BRANCH  21  22
HETATM   22  C2  UNL     1      19.687   2.363  52.280  1.00  0.00     0.015 C 
HETATM   23  C1  UNL     1      20.427   3.639  52.021  1.00  0.00     0.006 C 
ENDBRANCH  21  22
ENDBRANCH   1  21
TORSDOF 3
ENDMDL
MODEL 9
REMARK VINA RESULT:      -6.8      4.439      6.214
REMARK  3 active torsions:
REMARK  status: ('A' for Active; 'I' for Inactive)
REMARK    1  A    between atoms: C2_2  and  C3_3 
REMARK    2  A    between atoms: C3_3  and  N1_4 
REMARK    3  A    between atoms: C8_10  and  C9_11 
ROOT
HETATM    1  N1  UNL     1      24.794   3.884  50.307  1.00  0.00    -0.368 N 
HETATM    2  C4  UNL     1      24.599   4.960  49.368  1.00  0.00     0.493 A 
HETATM    3  O1  UNL     1      24.836   5.930  48.571  1.00  0.00    -0.413 OA
HETATM    4  C5  UNL     1      23.397   4.037  50.010  1.00  0.00     0.187 A 
HETATM    5  C6  UNL     1      22.649   4.251  51.256  1.00  0.00     0.007 A 
HETATM    6  C7  UNL     1      21.765   3.289  51.401  1.00  0.00     0.012 A 
HETATM    7  C8  UNL     1      21.821   2.341  50.289  1.00  0.00     0.028 A 
HETATM    8  C17 UNL     1      22.769   2.780  49.484  1.00  0.00     0.132 A 
HETATM    9  F2  UNL     1      23.256   2.308  48.309  1.00  0.00    -0.207 F 
ENDROOT
BRANCH   7  10
HETATM   10  C9  UNL     1      21.027   1.117  50.024  1.00  0.00     0.195 A 
HETATM   11  F1  UNL     1      21.608   0.245  49.155  1.00  0.00    -0.226 F 
HETATM   12  C10 UNL     1      19.659   1.431  49.544  1.00  0.00     0.045 A 
HETATM   13  C11 UNL     1      18.693   1.002  50.360  1.00  0.00     0.091 A 
HETATM   14  N2  UNL     1      19.303   0.355  51.470  1.00  0.00    -0.353 N 
HETATM   15  C12 UNL     1      18.572  -0.243  52.571  1.00  0.00     0.157 A 
HETATM   16  C16 UNL     1      20.716   0.401  51.310  1.00  0.00     0.062 A 
HETATM   17  C13 UNL     1      19.530  -0.824  53.546  1.00  0.00     0.017 A 
HETATM   18  C14 UNL     1      20.863  -0.826  53.474  1.00  0.00     0.033 A 
HETATM   19 CL1  UNL     1      21.968  -1.530  54.660  1.00  0.00    -0.085 Cl
HETATM   20  C15 UNL     1      21.428  -0.170  52.282  1.00  0.00     0.053 A 
ENDBRANCH   7  10
BRANCH   1  21
HETATM   21  C3  UNL     1      26.140   3.603  50.706  1.00  0.00     0.120 C 
BRANCH  21  22
HETATM   22  C2  UNL     1      26.376   2.124  50.939  1.00  0.00     0.015 C 
HETATM   23  C1  UNL     1      25.384   1.528  51.889  1.00  0.00     0.006 C 
ENDBRANCH  21  22
ENDBRANCH   1  21
TORSDOF 3
ENDMDL
