MODEL 1
REMARK VINA RESULT:      -8.3      0.000      0.000
REMARK  4 active torsions:
REMARK  status: ('A' for Active; 'I' for Inactive)
REMARK    1  A    between atoms: O1_2  and  C2_3 
REMARK    2  A    between atoms: C5_6  and  C6_7 
REMARK    3  A    between atoms: C6_7  and  N1_8 
REMARK    4  A    between atoms: C14_19  and  O2_20 
ROOT
HETATM    1  N1  UNL     1      24.388   3.525  51.309  1.00  0.00    -0.237 N 
HETATM    2  N2  UNL     1      25.497   3.656  50.479  1.00  0.00    -0.165 NA
HETATM    3  C7  UNL     1      25.823   4.771  49.994  1.00  0.00     0.089 A 
HETATM    4  C8  UNL     1      27.010   4.286  49.245  1.00  0.00     0.048 A 
HETATM    5  C9  UNL     1      27.958   4.857  48.502  1.00  0.00    -0.000 A 
HETATM    6  C10 UNL     1      27.733   6.147  48.309  1.00  0.00     0.046 A 
HETATM    7 CL1  UNL     1      28.800   7.036  47.255  1.00  0.00    -0.083 Cl
HETATM    8  C11 UNL     1      26.603   6.765  48.987  1.00  0.00     0.039 A 
HETATM    9  C12 UNL     1      25.701   6.195  49.764  1.00  0.00     0.006 A 
HETATM   10  C13 UNL     1      24.664   7.059  50.316  1.00  0.00     0.078 C 
HETATM   11  N3  UNL     1      23.549   6.372  50.230  1.00  0.00    -0.234 NA
HETATM   12  C14 UNL     1      22.305   6.838  50.652  1.00  0.00     0.195 A 
HETATM   13  C15 UNL     1      22.590   5.795  51.445  1.00  0.00     0.205 A 
HETATM   14  S1  UNL     1      23.248   4.410  52.304  1.00  0.00    -0.009 SA
ENDROOT
BRANCH   1  15
HETATM   15  C6  UNL     1      24.276   2.088  51.202  1.00  0.00     0.198 C 
BRANCH  15  16
HETATM   16  C5  UNL     1      25.270   1.494  52.156  1.00  0.00    -0.038 A 
HETATM   17  C4  UNL     1      25.298   1.854  53.468  1.00  0.00     0.011 A 
HETATM   18  C3  UNL     1      26.253   1.237  54.277  1.00  0.00     0.037 A 
HETATM   19  C2  UNL     1      27.122   0.305  53.755  1.00  0.00     0.068 A 
HETATM   20  C17 UNL     1      27.103  -0.065  52.434  1.00  0.00     0.037 A 
HETATM   21  C16 UNL     1      26.144   0.560  51.639  1.00  0.00     0.011 A 
BRANCH  19  22
HETATM   22  O1  UNL     1      28.046  -0.270  54.606  1.00  0.00    -0.356 OA
HETATM   23  C1  UNL     1      29.303  -0.656  54.059  1.00  0.00     0.210 C 
ENDBRANCH  19  22
ENDBRANCH  15  16
ENDBRANCH   1  15
BRANCH  12  24
HETATM   24  O2  UNL     1      21.102   7.495  50.864  1.00  0.00    -0.369 OA
HETATM   25  H11 UNL     1      20.564   7.351  51.713  1.00  0.00     0.212 HD
ENDBRANCH  12  24
TORSDOF 4
ENDMDL
MODEL 2
REMARK VINA RESULT:      -7.9      3.752      7.724
REMARK  4 active torsions:
REMARK  status: ('A' for Active; 'I' for Inactive)
REMARK    1  A    between atoms: O1_2  and  C2_3 
REMARK    2  A    between atoms: C5_6  and  C6_7 
REMARK    3  A    between atoms: C6_7  and  N1_8 
REMARK    4  A    between atoms: C14_19  and  O2_20 
ROOT
HETATM    1  N1  UNL     1      25.245   2.330  51.102  1.00  0.00    -0.237 N 
HETATM    2  N2  UNL     1      23.950   1.856  51.285  1.00  0.00    -0.165 NA
HETATM    3  C7  UNL     1      23.687   0.998  52.169  1.00  0.00     0.089 A 
HETATM    4  C8  UNL     1      22.232   0.908  51.884  1.00  0.00     0.048 A 
HETATM    5  C9  UNL     1      21.201   0.255  52.422  1.00  0.00    -0.000 A 
HETATM    6  C10 UNL     1      21.581  -0.583  53.373  1.00  0.00     0.046 A 
HETATM    7 CL1  UNL     1      20.386  -1.619  54.105  1.00  0.00    -0.083 Cl
HETATM    8  C11 UNL     1      22.983  -0.601  53.764  1.00  0.00     0.039 A 
HETATM    9  C12 UNL     1      23.985   0.092  53.258  1.00  0.00     0.006 A 
HETATM   10  C13 UNL     1      25.303  -0.126  53.845  1.00  0.00     0.078 C 
HETATM   11  N3  UNL     1      26.139  -0.156  52.833  1.00  0.00    -0.234 NA
HETATM   12  C14 UNL     1      27.515  -0.345  52.957  1.00  0.00     0.195 A 
HETATM   13  C15 UNL     1      27.362   0.894  52.466  1.00  0.00     0.205 A 
HETATM   14  S1  UNL     1      26.830   2.447  51.839  1.00  0.00    -0.009 SA
ENDROOT
BRANCH   1  15
HETATM   15  C6  UNL     1      25.023   2.899  49.793  1.00  0.00     0.198 C 
BRANCH  15  16
HETATM   16  C5  UNL     1      25.179   4.386  49.923  1.00  0.00    -0.038 A 
HETATM   17  C4  UNL     1      24.397   5.111  50.769  1.00  0.00     0.011 A 
HETATM   18  C3  UNL     1      24.627   6.486  50.826  1.00  0.00     0.037 A 
HETATM   19  C2  UNL     1      25.606   7.069  50.054  1.00  0.00     0.068 A 
HETATM   20  C17 UNL     1      26.400   6.348  49.198  1.00  0.00     0.037 A 
HETATM   21  C16 UNL     1      26.159   4.976  49.152  1.00  0.00     0.011 A 
BRANCH  19  22
HETATM   22  O1  UNL     1      25.785   8.435  50.155  1.00  0.00    -0.356 OA
HETATM   23  C1  UNL     1      27.120   8.932  50.146  1.00  0.00     0.210 C 
ENDBRANCH  19  22
ENDBRANCH  15  16
ENDBRANCH   1  15
BRANCH  12  24
HETATM   24  O2  UNL     1      28.809  -0.792  53.179  1.00  0.00    -0.369 OA
HETATM   25  H11 UNL     1      29.562  -0.144  53.387  1.00  0.00     0.212 HD
ENDBRANCH  12  24
TORSDOF 4
ENDMDL
MODEL 3
REMARK VINA RESULT:      -7.8      4.491      6.149
REMARK  4 active torsions:
REMARK  status: ('A' for Active; 'I' for Inactive)
REMARK    1  A    between atoms: O1_2  and  C2_3 
REMARK    2  A    between atoms: C5_6  and  C6_7 
REMARK    3  A    between atoms: C6_7  and  N1_8 
REMARK    4  A    between atoms: C14_19  and  O2_20 
ROOT
HETATM    1  N1  UNL     1      23.572   2.246  52.041  1.00  0.00    -0.237 N 
HETATM    2  N2  UNL     1      22.837   1.338  52.797  1.00  0.00    -0.165 NA
HETATM    3  C7  UNL     1      21.683   0.977  52.445  1.00  0.00     0.089 A 
HETATM    4  C8  UNL     1      21.442   0.058  53.587  1.00  0.00     0.048 A 
HETATM    5  C9  UNL     1      20.463  -0.775  53.941  1.00  0.00    -0.000 A 
HETATM    6  C10 UNL     1      19.418  -0.691  53.133  1.00  0.00     0.046 A 
HETATM    7 CL1  UNL     1      17.988  -1.613  53.512  1.00  0.00    -0.083 Cl
HETATM    8  C11 UNL     1      19.512   0.170  51.963  1.00  0.00     0.039 A 
HETATM    9  C12 UNL     1      20.512   0.950  51.596  1.00  0.00     0.006 A 
HETATM   10  C13 UNL     1      20.336   1.714  50.366  1.00  0.00     0.078 C 
HETATM   11  N3  UNL     1      20.830   2.904  50.617  1.00  0.00    -0.234 NA
HETATM   12  C14 UNL     1      20.861   3.952  49.698  1.00  0.00     0.195 A 
HETATM   13  C15 UNL     1      22.144   3.646  49.942  1.00  0.00     0.205 A 
HETATM   14  S1  UNL     1      23.695   3.011  50.469  1.00  0.00    -0.009 SA
ENDROOT
BRANCH   1  15
HETATM   15  C6  UNL     1      24.530   2.573  53.071  1.00  0.00     0.198 C 
BRANCH  15  16
HETATM   16  C5  UNL     1      25.530   1.455  53.117  1.00  0.00    -0.038 A 
HETATM   17  C4  UNL     1      25.814   0.710  52.014  1.00  0.00     0.011 A 
HETATM   18  C3  UNL     1      26.765  -0.301  52.157  1.00  0.00     0.037 A 
HETATM   19  C2  UNL     1      27.382  -0.521  53.368  1.00  0.00     0.068 A 
HETATM   20  C17 UNL     1      27.103   0.224  54.486  1.00  0.00     0.037 A 
HETATM   21  C16 UNL     1      26.151   1.229  54.328  1.00  0.00     0.011 A 
BRANCH  19  22
HETATM   22  O1  UNL     1      28.315  -1.538  53.446  1.00  0.00    -0.356 OA
HETATM   23  C1  UNL     1      29.681  -1.172  53.617  1.00  0.00     0.210 C 
ENDBRANCH  19  22
ENDBRANCH  15  16
ENDBRANCH   1  15
BRANCH  12  24
HETATM   24  O2  UNL     1      20.605   4.979  48.801  1.00  0.00    -0.369 OA
HETATM   25  H11 UNL     1      21.076   5.875  48.878  1.00  0.00     0.212 HD
ENDBRANCH  12  24
TORSDOF 4
ENDMDL
MODEL 4
REMARK VINA RESULT:      -7.5      4.525      8.087
REMARK  4 active torsions:
REMARK  status: ('A' for Active; 'I' for Inactive)
REMARK    1  A    between atoms: O1_2  and  C2_3 
REMARK    2  A    between atoms: C5_6  and  C6_7 
REMARK    3  A    between atoms: C6_7  and  N1_8 
REMARK    4  A    between atoms: C14_19  and  O2_20 
ROOT
HETATM    1  N1  UNL     1      23.227   1.922  51.417  1.00  0.00    -0.237 N 
HETATM    2  N2  UNL     1      21.908   1.484  51.356  1.00  0.00    -0.165 NA
HETATM    3  C7  UNL     1      21.446   0.678  52.207  1.00  0.00     0.089 A 
HETATM    4  C8  UNL     1      20.077   0.602  51.638  1.00  0.00     0.048 A 
HETATM    5  C9  UNL     1      18.940  -0.002  51.986  1.00  0.00    -0.000 A 
HETATM    6  C10 UNL     1      19.095  -0.797  53.031  1.00  0.00     0.046 A 
HETATM    7 CL1  UNL     1      17.746  -1.770  53.554  1.00  0.00    -0.083 Cl
HETATM    8  C11 UNL     1      20.389  -0.823  53.698  1.00  0.00     0.039 A 
HETATM    9  C12 UNL     1      21.493  -0.177  53.374  1.00  0.00     0.006 A 
HETATM   10  C13 UNL     1      22.658  -0.391  54.225  1.00  0.00     0.078 C 
HETATM   11  N3  UNL     1      23.679  -0.490  53.406  1.00  0.00    -0.234 NA
HETATM   12  C14 UNL     1      24.996  -0.700  53.814  1.00  0.00     0.195 A 
HETATM   13  C15 UNL     1      24.982   0.515  53.246  1.00  0.00     0.205 A 
HETATM   14  S1  UNL     1      24.635   2.044  52.454  1.00  0.00    -0.009 SA
ENDROOT
BRANCH   1  15
HETATM   15  C6  UNL     1      23.290   2.427  50.065  1.00  0.00     0.198 C 
BRANCH  15  16
HETATM   16  C5  UNL     1      23.954   3.772  50.125  1.00  0.00    -0.038 A 
HETATM   17  C4  UNL     1      25.138   4.008  49.497  1.00  0.00     0.011 A 
HETATM   18  C3  UNL     1      25.669   5.293  49.604  1.00  0.00     0.037 A 
HETATM   19  C2  UNL     1      25.012   6.270  50.319  1.00  0.00     0.068 A 
HETATM   20  C17 UNL     1      23.819   6.042  50.957  1.00  0.00     0.037 A 
HETATM   21  C16 UNL     1      23.301   4.754  50.840  1.00  0.00     0.011 A 
BRANCH  19  22
HETATM   22  O1  UNL     1      25.590   7.523  50.389  1.00  0.00    -0.356 OA
HETATM   23  C1  UNL     1      26.690   7.795  49.525  1.00  0.00     0.210 C 
ENDBRANCH  19  22
ENDBRANCH  15  16
ENDBRANCH   1  15
BRANCH  12  24
HETATM   24  O2  UNL     1      26.205  -1.161  54.313  1.00  0.00    -0.369 OA
HETATM   25  H11 UNL     1      26.313  -1.402  55.294  1.00  0.00     0.212 HD
ENDBRANCH  12  24
TORSDOF 4
ENDMDL
MODEL 5
REMARK VINA RESULT:      -7.5      3.652      6.746
REMARK  4 active torsions:
REMARK  status: ('A' for Active; 'I' for Inactive)
REMARK    1  A    between atoms: O1_2  and  C2_3 
REMARK    2  A    between atoms: C5_6  and  C6_7 
REMARK    3  A    between atoms: C6_7  and  N1_8 
REMARK    4  A    between atoms: C14_19  and  O2_20 
ROOT
HETATM    1  N1  UNL     1      22.564   2.823  52.175  1.00  0.00    -0.237 N 
HETATM    2  N2  UNL     1      23.886   2.820  52.604  1.00  0.00    -0.165 NA
HETATM    3  C7  UNL     1      24.421   1.779  53.070  1.00  0.00     0.089 A 
HETATM    4  C8  UNL     1      25.754   2.380  53.332  1.00  0.00     0.048 A 
HETATM    5  C9  UNL     1      26.925   1.925  53.778  1.00  0.00    -0.000 A 
HETATM    6  C10 UNL     1      26.856   0.663  54.169  1.00  0.00     0.046 A 
HETATM    7 CL1  UNL     1      28.259  -0.066  54.902  1.00  0.00    -0.083 Cl
HETATM    8  C11 UNL     1      25.608  -0.059  53.969  1.00  0.00     0.039 A 
HETATM    9  C12 UNL     1      24.470   0.390  53.475  1.00  0.00     0.006 A 
HETATM   10  C13 UNL     1      23.366  -0.559  53.388  1.00  0.00     0.078 C 
HETATM   11  N3  UNL     1      22.298   0.106  53.763  1.00  0.00    -0.234 NA
HETATM   12  C14 UNL     1      21.016  -0.438  53.823  1.00  0.00     0.195 A 
HETATM   13  C15 UNL     1      20.963   0.510  52.876  1.00  0.00     0.205 A 
HETATM   14  S1  UNL     1      21.221   1.797  51.708  1.00  0.00    -0.009 SA
ENDROOT
BRANCH   1  15
HETATM   15  C6  UNL     1      22.403   4.259  52.161  1.00  0.00     0.198 C 
BRANCH  15  16
HETATM   16  C5  UNL     1      23.410   4.809  51.194  1.00  0.00    -0.038 A 
HETATM   17  C4  UNL     1      23.790   4.109  50.090  1.00  0.00     0.011 A 
HETATM   18  C3  UNL     1      24.725   4.711  49.247  1.00  0.00     0.037 A 
HETATM   19  C2  UNL     1      25.231   5.959  49.533  1.00  0.00     0.068 A 
HETATM   20  C17 UNL     1      24.855   6.672  50.643  1.00  0.00     0.037 A 
HETATM   21  C16 UNL     1      23.920   6.059  51.475  1.00  0.00     0.011 A 
BRANCH  19  22
HETATM   22  O1  UNL     1      26.154   6.501  48.660  1.00  0.00    -0.356 OA
HETATM   23  C1  UNL     1      27.381   5.801  48.473  1.00  0.00     0.210 C 
ENDBRANCH  19  22
ENDBRANCH  15  16
ENDBRANCH   1  15
BRANCH  12  24
HETATM   24  O2  UNL     1      19.853  -1.145  54.089  1.00  0.00    -0.369 OA
HETATM   25  H11 UNL     1      19.252  -1.473  53.339  1.00  0.00     0.212 HD
ENDBRANCH  12  24
TORSDOF 4
ENDMDL
MODEL 6
REMARK VINA RESULT:      -7.4      3.606      7.269
REMARK  4 active torsions:
REMARK  status: ('A' for Active; 'I' for Inactive)
REMARK    1  A    between atoms: O1_2  and  C2_3 
REMARK    2  A    between atoms: C5_6  and  C6_7 
REMARK    3  A    between atoms: C6_7  and  N1_8 
REMARK    4  A    between atoms: C14_19  and  O2_20 
ROOT
HETATM    1  N1  UNL     1      23.645   2.624  52.689  1.00  0.00    -0.237 N 
HETATM    2  N2  UNL     1      25.026   2.486  52.780  1.00  0.00    -0.165 NA
HETATM    3  C7  UNL     1      25.557   1.371  53.027  1.00  0.00     0.089 A 
HETATM    4  C8  UNL     1      26.964   1.848  52.996  1.00  0.00     0.048 A 
HETATM    5  C9  UNL     1      28.161   1.271  53.109  1.00  0.00    -0.000 A 
HETATM    6  C10 UNL     1      28.071  -0.012  53.417  1.00  0.00     0.046 A 
HETATM    7 CL1  UNL     1      29.535  -0.905  53.732  1.00  0.00    -0.083 Cl
HETATM    8  C11 UNL     1      26.749  -0.621  53.479  1.00  0.00     0.039 A 
HETATM    9  C12 UNL     1      25.573  -0.048  53.311  1.00  0.00     0.006 A 
HETATM   10  C13 UNL     1      24.398  -0.903  53.432  1.00  0.00     0.078 C 
HETATM   11  N3  UNL     1      23.516  -0.198  54.102  1.00  0.00    -0.234 NA
HETATM   12  C14 UNL     1      22.241  -0.650  54.438  1.00  0.00     0.195 A 
HETATM   13  C15 UNL     1      22.051   0.379  53.600  1.00  0.00     0.205 A 
HETATM   14  S1  UNL     1      22.141   1.743  52.496  1.00  0.00    -0.009 SA
ENDROOT
BRANCH   1  15
HETATM   15  C6  UNL     1      23.618   4.062  52.814  1.00  0.00     0.198 C 
BRANCH  15  16
HETATM   16  C5  UNL     1      23.135   4.613  51.504  1.00  0.00    -0.038 A 
HETATM   17  C4  UNL     1      23.783   4.343  50.339  1.00  0.00     0.011 A 
HETATM   18  C3  UNL     1      23.249   4.893  49.173  1.00  0.00     0.037 A 
HETATM   19  C2  UNL     1      22.116   5.674  49.217  1.00  0.00     0.068 A 
HETATM   20  C17 UNL     1      21.456   5.952  50.386  1.00  0.00     0.037 A 
HETATM   21  C16 UNL     1      22.000   5.395  51.542  1.00  0.00     0.011 A 
BRANCH  19  22
HETATM   22  O1  UNL     1      21.637   6.190  48.028  1.00  0.00    -0.356 OA
HETATM   23  C1  UNL     1      22.590   6.618  47.059  1.00  0.00     0.210 C 
ENDBRANCH  19  22
ENDBRANCH  15  16
ENDBRANCH   1  15
BRANCH  12  24
HETATM   24  O2  UNL     1      21.114  -1.292  54.931  1.00  0.00    -0.369 OA
HETATM   25  H11 UNL     1      21.176  -2.212  55.359  1.00  0.00     0.212 HD
ENDBRANCH  12  24
TORSDOF 4
ENDMDL
MODEL 7
REMARK VINA RESULT:      -7.4      2.673      3.198
REMARK  4 active torsions:
REMARK  status: ('A' for Active; 'I' for Inactive)
REMARK    1  A    between atoms: O1_2  and  C2_3 
REMARK    2  A    between atoms: C5_6  and  C6_7 
REMARK    3  A    between atoms: C6_7  and  N1_8 
REMARK    4  A    between atoms: C14_19  and  O2_20 
ROOT
HETATM    1  N1  UNL     1      22.361   2.957  50.712  1.00  0.00    -0.237 N 
HETATM    2  N2  UNL     1      23.664   2.908  50.230  1.00  0.00    -0.165 NA
HETATM    3  C7  UNL     1      24.313   3.960  49.988  1.00  0.00     0.089 A 
HETATM    4  C8  UNL     1      25.555   3.288  49.529  1.00  0.00     0.048 A 
HETATM    5  C9  UNL     1      26.763   3.696  49.141  1.00  0.00    -0.000 A 
HETATM    6  C10 UNL     1      26.842   5.013  49.053  1.00  0.00     0.046 A 
HETATM    7 CL1  UNL     1      28.308   5.727  48.436  1.00  0.00    -0.083 Cl
HETATM    8  C11 UNL     1      25.697   5.808  49.475  1.00  0.00     0.039 A 
HETATM    9  C12 UNL     1      24.523   5.390  49.909  1.00  0.00     0.006 A 
HETATM   10  C13 UNL     1      23.548   6.413  50.266  1.00  0.00     0.078 C 
HETATM   11  N3  UNL     1      22.398   5.981  49.803  1.00  0.00    -0.234 NA
HETATM   12  C14 UNL     1      21.191   6.668  49.932  1.00  0.00     0.195 A 
HETATM   13  C15 UNL     1      21.043   5.538  50.639  1.00  0.00     0.205 A 
HETATM   14  S1  UNL     1      21.166   3.994  51.467  1.00  0.00    -0.009 SA
ENDROOT
BRANCH   1  15
HETATM   15  C6  UNL     1      22.024   1.586  50.406  1.00  0.00     0.198 C 
BRANCH  15  16
HETATM   16  C5  UNL     1      22.113   0.810  51.688  1.00  0.00    -0.038 A 
HETATM   17  C4  UNL     1      23.286   0.694  52.367  1.00  0.00     0.011 A 
HETATM   18  C3  UNL     1      23.263  -0.040  53.554  1.00  0.00     0.037 A 
HETATM   19  C2  UNL     1      22.096  -0.615  54.004  1.00  0.00     0.068 A 
HETATM   20  C17 UNL     1      20.909  -0.505  53.326  1.00  0.00     0.037 A 
HETATM   21  C16 UNL     1      20.947   0.231  52.144  1.00  0.00     0.011 A 
BRANCH  19  22
HETATM   22  O1  UNL     1      22.139  -1.330  55.186  1.00  0.00    -0.356 OA
HETATM   23  C1  UNL     1      23.411  -1.531  55.794  1.00  0.00     0.210 C 
ENDBRANCH  19  22
ENDBRANCH  15  16
ENDBRANCH   1  15
BRANCH  12  24
HETATM   24  O2  UNL     1      20.119   7.547  49.893  1.00  0.00    -0.369 OA
HETATM   25  H11 UNL     1      19.304   7.411  50.484  1.00  0.00     0.212 HD
ENDBRANCH  12  24
TORSDOF 4
ENDMDL
MODEL 8
REMARK VINA RESULT:      -7.3      3.801      7.937
REMARK  4 active torsions:
REMARK  status: ('A' for Active; 'I' for Inactive)
REMARK    1  A    between atoms: O1_2  and  C2_3 
REMARK    2  A    between atoms: C5_6  and  C6_7 
REMARK    3  A    between atoms: C6_7  and  N1_8 
REMARK    4  A    between atoms: C14_19  and  O2_20 
ROOT
HETATM    1  N1  UNL     1      25.642   2.050  51.555  1.00  0.00    -0.237 N 
HETATM    2  N2  UNL     1      24.318   1.629  51.621  1.00  0.00    -0.165 NA
HETATM    3  C7  UNL     1      23.944   0.777  52.469  1.00  0.00     0.089 A 
HETATM    4  C8  UNL     1      22.516   0.750  52.058  1.00  0.00     0.048 A 
HETATM    5  C9  UNL     1      21.417   0.137  52.497  1.00  0.00    -0.000 A 
HETATM    6  C10 UNL     1      21.678  -0.724  53.468  1.00  0.00     0.046 A 
HETATM    7 CL1  UNL     1      20.382  -1.714  54.082  1.00  0.00    -0.083 Cl
HETATM    8  C11 UNL     1      23.039  -0.804  53.979  1.00  0.00     0.039 A 
HETATM    9  C12 UNL     1      24.109  -0.149  53.569  1.00  0.00     0.006 A 
HETATM   10  C13 UNL     1      25.360  -0.426  54.265  1.00  0.00     0.078 C 
HETATM   11  N3  UNL     1      26.279  -0.484  53.330  1.00  0.00    -0.234 NA
HETATM   12  C14 UNL     1      27.630  -0.732  53.570  1.00  0.00     0.195 A 
HETATM   13  C15 UNL     1      27.571   0.516  53.082  1.00  0.00     0.205 A 
HETATM   14  S1  UNL     1      27.161   2.095  52.429  1.00  0.00    -0.009 SA
ENDROOT
BRANCH   1  15
HETATM   15  C6  UNL     1      25.559   2.638  50.238  1.00  0.00     0.198 C 
BRANCH  15  16
HETATM   16  C5  UNL     1      24.422   3.617  50.261  1.00  0.00    -0.038 A 
HETATM   17  C4  UNL     1      24.280   4.517  51.271  1.00  0.00     0.011 A 
HETATM   18  C3  UNL     1      23.196   5.392  51.196  1.00  0.00     0.037 A 
HETATM   19  C2  UNL     1      22.316   5.334  50.139  1.00  0.00     0.068 A 
HETATM   20  C17 UNL     1      22.449   4.431  49.115  1.00  0.00     0.037 A 
HETATM   21  C16 UNL     1      23.537   3.564  49.204  1.00  0.00     0.011 A 
BRANCH  19  22
HETATM   22  O1  UNL     1      21.262   6.227  50.122  1.00  0.00    -0.356 OA
HETATM   23  C1  UNL     1      21.488   7.531  50.651  1.00  0.00     0.210 C 
ENDBRANCH  19  22
ENDBRANCH  15  16
ENDBRANCH   1  15
BRANCH  12  24
HETATM   24  O2  UNL     1      28.880  -1.234  53.898  1.00  0.00    -0.369 OA
HETATM   25  H11 UNL     1      29.704  -0.640  53.899  1.00  0.00     0.212 HD
ENDBRANCH  12  24
TORSDOF 4
ENDMDL
MODEL 9
REMARK VINA RESULT:      -7.2      4.204      6.869
REMARK  4 active torsions:
REMARK  status: ('A' for Active; 'I' for Inactive)
REMARK    1  A    between atoms: O1_2  and  C2_3 
REMARK    2  A    between atoms: C5_6  and  C6_7 
REMARK    3  A    between atoms: C6_7  and  N1_8 
REMARK    4  A    between atoms: C14_19  and  O2_20 
ROOT
HETATM    1  N1  UNL     1      22.456   1.479  52.330  1.00  0.00    -0.237 N 
HETATM    2  N2  UNL     1      22.972   2.439  51.465  1.00  0.00    -0.165 NA
HETATM    3  C7  UNL     1      24.193   2.456  51.159  1.00  0.00     0.089 A 
HETATM    4  C8  UNL     1      24.123   3.637  50.262  1.00  0.00     0.048 A 
HETATM    5  C9  UNL     1      24.989   4.285  49.482  1.00  0.00    -0.000 A 
HETATM    6  C10 UNL     1      26.222   3.824  49.612  1.00  0.00     0.046 A 
HETATM    7 CL1  UNL     1      27.514   4.632  48.765  1.00  0.00    -0.083 Cl
HETATM    8  C11 UNL     1      26.443   2.661  50.459  1.00  0.00     0.039 A 
HETATM    9  C12 UNL     1      25.565   1.995  51.185  1.00  0.00     0.006 A 
HETATM   10  C13 UNL     1      26.065   0.858  51.949  1.00  0.00     0.078 C 
HETATM   11  N3  UNL     1      25.465   0.924  53.114  1.00  0.00    -0.234 NA
HETATM   12  C14 UNL     1      25.663   0.015  54.152  1.00  0.00     0.195 A 
HETATM   13  C15 UNL     1      24.381  -0.128  53.784  1.00  0.00     0.205 A 
HETATM   14  S1  UNL     1      22.774  -0.075  53.076  1.00  0.00    -0.009 SA
ENDROOT
BRANCH   1  15
HETATM   15  C6  UNL     1      21.219   2.168  52.616  1.00  0.00     0.198 C 
BRANCH  15  16
HETATM   16  C5  UNL     1      20.127   1.437  51.892  1.00  0.00    -0.038 A 
HETATM   17  C4  UNL     1      19.478   0.385  52.463  1.00  0.00     0.011 A 
HETATM   18  C3  UNL     1      18.470  -0.222  51.713  1.00  0.00     0.037 A 
HETATM   19  C2  UNL     1      18.158   0.234  50.452  1.00  0.00     0.068 A 
HETATM   20  C17 UNL     1      18.805   1.293  49.868  1.00  0.00     0.037 A 
HETATM   21  C16 UNL     1      19.809   1.889  50.629  1.00  0.00     0.011 A 
BRANCH  19  22
HETATM   22  O1  UNL     1      17.150  -0.410  49.760  1.00  0.00    -0.356 OA
HETATM   23  C1  UNL     1      15.806  -0.168  50.167  1.00  0.00     0.210 C 
ENDBRANCH  19  22
ENDBRANCH  15  16
ENDBRANCH   1  15
BRANCH  12  24
HETATM   24  O2  UNL     1      26.128  -0.786  55.185  1.00  0.00    -0.369 OA
HETATM   25  H11 UNL     1      25.902  -1.776  55.227  1.00  0.00     0.212 HD
ENDBRANCH  12  24
TORSDOF 4
ENDMDL
