MODEL 1
REMARK VINA RESULT:      -9.0      0.000      0.000
REMARK  4 active torsions:
REMARK  status: ('A' for Active; 'I' for Inactive)
REMARK    1  A    between atoms: O1_2  and  C2_3 
REMARK    2  A    between atoms: C10_12  and  N2_13 
REMARK    3  A    between atoms: N2_13  and  P1_14 
REMARK    4  A    between atoms: P1_14  and  C11_15 
ROOT
HETATM    1  C2  UNL     1      27.818  -0.792  53.107  1.00  0.00     0.069 A 
HETATM    2  C3  UNL     1      26.756  -1.664  52.949  1.00  0.00     0.039 A 
HETATM    3  C4  UNL     1      25.439  -1.211  52.976  1.00  0.00     0.040 A 
HETATM    4  C5  UNL     1      25.259   0.144  53.168  1.00  0.00     0.086 A 
HETATM    5  C6  UNL     1      26.274   1.054  53.331  1.00  0.00    -0.004 A 
HETATM    6  C7  UNL     1      27.566   0.557  53.295  1.00  0.00     0.048 A 
HETATM    7  C8  UNL     1      26.351   2.499  53.542  1.00  0.00     0.161 C 
HETATM    8  N1  UNL     1      25.199   3.243  53.127  1.00  0.00    -0.379 N 
HETATM    9  C9  UNL     1      23.850   2.937  52.824  1.00  0.00     0.128 A 
HETATM   10  C10 UNL     1      23.069   4.020  52.476  1.00  0.00     0.159 A 
HETATM   11  N3  UNL     1      21.772   3.837  52.168  1.00  0.00    -0.222 NA
HETATM   12  C17 UNL     1      21.213   2.596  52.194  1.00  0.00     0.238 A 
HETATM   13  N4  UNL     1      21.988   1.550  52.535  1.00  0.00    -0.215 NA
HETATM   14  C18 UNL     1      23.292   1.674  52.851  1.00  0.00     0.202 A 
HETATM   15  O2  UNL     1      23.904   0.455  53.174  1.00  0.00    -0.289 OA
HETATM   16  H9  UNL     1      25.389   4.270  53.017  1.00  0.00     0.160 HD
ENDROOT
BRANCH  10  17
HETATM   17  N2  UNL     1      23.656   5.311  52.451  1.00  0.00    -0.346 N 
HETATM   18  H10 UNL     1      24.068   5.832  53.247  1.00  0.00     0.166 HD
BRANCH  17  19
HETATM   19  P1  UNL     1      23.782   6.305  50.948  1.00  0.00     0.006 P 
HETATM   20  H11 UNL     1      22.639   6.049  50.073  1.00  0.00     0.085 HD
BRANCH  19  21
HETATM   21  C11 UNL     1      25.287   5.827  50.044  1.00  0.00    -0.012 A 
HETATM   22  C12 UNL     1      25.727   4.507  49.963  1.00  0.00     0.017 A 
HETATM   23  C13 UNL     1      26.866   4.110  49.285  1.00  0.00     0.045 A 
HETATM   24  C14 UNL     1      27.622   5.081  48.643  1.00  0.00     0.138 A 
HETATM   25  F1  UNL     1      28.723   4.619  47.998  1.00  0.00    -0.204 F 
HETATM   26  C15 UNL     1      27.229   6.408  48.691  1.00  0.00     0.073 A 
HETATM   27 CL1  UNL     1      28.226   7.583  47.860  1.00  0.00    -0.081 Cl
HETATM   28  C16 UNL     1      26.080   6.760  49.383  1.00  0.00     0.040 A 
ENDBRANCH  19  21
ENDBRANCH  17  19
ENDBRANCH  10  17
BRANCH   1  29
HETATM   29  O1  UNL     1      29.033  -1.415  53.052  1.00  0.00    -0.356 OA
HETATM   30  C1  UNL     1      30.165  -1.019  53.804  1.00  0.00     0.210 C 
ENDBRANCH   1  29
TORSDOF 4
ENDMDL
MODEL 2
REMARK VINA RESULT:      -8.5      1.793      2.594
REMARK  4 active torsions:
REMARK  status: ('A' for Active; 'I' for Inactive)
REMARK    1  A    between atoms: O1_2  and  C2_3 
REMARK    2  A    between atoms: C10_12  and  N2_13 
REMARK    3  A    between atoms: N2_13  and  P1_14 
REMARK    4  A    between atoms: P1_14  and  C11_15 
ROOT
HETATM    1  C2  UNL     1      25.132   0.042  53.455  1.00  0.00     0.069 A 
HETATM    2  C3  UNL     1      23.942  -0.562  53.090  1.00  0.00     0.039 A 
HETATM    3  C4  UNL     1      22.823   0.194  52.750  1.00  0.00     0.040 A 
HETATM    4  C5  UNL     1      22.971   1.566  52.798  1.00  0.00     0.086 A 
HETATM    5  C6  UNL     1      24.125   2.218  53.153  1.00  0.00    -0.004 A 
HETATM    6  C7  UNL     1      25.211   1.423  53.483  1.00  0.00     0.048 A 
HETATM    7  C8  UNL     1      24.533   3.617  53.280  1.00  0.00     0.161 C 
HETATM    8  N1  UNL     1      23.747   4.556  52.536  1.00  0.00    -0.379 N 
HETATM    9  C9  UNL     1      22.473   4.546  51.919  1.00  0.00     0.128 A 
HETATM   10  C10 UNL     1      22.109   5.731  51.312  1.00  0.00     0.159 A 
HETATM   11  N3  UNL     1      20.917   5.828  50.696  1.00  0.00    -0.222 NA
HETATM   12  C17 UNL     1      20.057   4.772  50.661  1.00  0.00     0.238 A 
HETATM   13  N4  UNL     1      20.427   3.624  51.258  1.00  0.00    -0.215 NA
HETATM   14  C18 UNL     1      21.608   3.470  51.888  1.00  0.00     0.202 A 
HETATM   15  O2  UNL     1      21.784   2.193  52.437  1.00  0.00    -0.289 OA
HETATM   16  H9  UNL     1      24.224   5.483  52.409  1.00  0.00     0.160 HD
ENDROOT
BRANCH  10  17
HETATM   17  N2  UNL     1      23.008   6.828  51.351  1.00  0.00    -0.346 N 
HETATM   18  H10 UNL     1      23.370   7.316  52.191  1.00  0.00     0.166 HD
BRANCH  17  19
HETATM   19  P1  UNL     1      23.696   7.589  49.865  1.00  0.00     0.006 P 
HETATM   20  H11 UNL     1      22.738   7.509  48.763  1.00  0.00     0.085 HD
BRANCH  19  21
HETATM   21  C11 UNL     1      25.189   6.674  49.365  1.00  0.00    -0.012 A 
HETATM   22  C12 UNL     1      26.268   7.288  48.732  1.00  0.00     0.017 A 
HETATM   23  C13 UNL     1      27.415   6.623  48.340  1.00  0.00     0.045 A 
HETATM   24  C14 UNL     1      27.505   5.260  48.588  1.00  0.00     0.138 A 
HETATM   25  F1  UNL     1      28.658   4.675  48.176  1.00  0.00    -0.204 F 
HETATM   26  C15 UNL     1      26.461   4.601  49.214  1.00  0.00     0.073 A 
HETATM   27 CL1  UNL     1      26.636   2.883  49.498  1.00  0.00    -0.081 Cl
HETATM   28  C16 UNL     1      25.329   5.308  49.590  1.00  0.00     0.040 A 
ENDBRANCH  19  21
ENDBRANCH  17  19
ENDBRANCH  10  17
BRANCH   1  29
HETATM   29  O1  UNL     1      26.117  -0.858  53.754  1.00  0.00    -0.356 OA
HETATM   30  C1  UNL     1      27.248  -1.099  52.939  1.00  0.00     0.210 C 
ENDBRANCH   1  29
TORSDOF 4
ENDMDL
MODEL 3
REMARK VINA RESULT:      -8.5      3.904      6.828
REMARK  4 active torsions:
REMARK  status: ('A' for Active; 'I' for Inactive)
REMARK    1  A    between atoms: O1_2  and  C2_3 
REMARK    2  A    between atoms: C10_12  and  N2_13 
REMARK    3  A    between atoms: N2_13  and  P1_14 
REMARK    4  A    between atoms: P1_14  and  C11_15 
ROOT
HETATM    1  C2  UNL     1      28.425   6.423  48.318  1.00  0.00     0.069 A 
HETATM    2  C3  UNL     1      27.611   7.499  48.624  1.00  0.00     0.039 A 
HETATM    3  C4  UNL     1      26.339   7.313  49.162  1.00  0.00     0.040 A 
HETATM    4  C5  UNL     1      25.945   6.006  49.368  1.00  0.00     0.086 A 
HETATM    5  C6  UNL     1      26.709   4.902  49.083  1.00  0.00    -0.004 A 
HETATM    6  C7  UNL     1      27.966   5.137  48.550  1.00  0.00     0.048 A 
HETATM    7  C8  UNL     1      26.532   3.456  49.203  1.00  0.00     0.161 C 
HETATM    8  N1  UNL     1      25.546   3.034  50.154  1.00  0.00    -0.379 N 
HETATM    9  C9  UNL     1      24.460   3.645  50.825  1.00  0.00     0.128 A 
HETATM   10  C10 UNL     1      23.749   2.812  51.666  1.00  0.00     0.159 A 
HETATM   11  N3  UNL     1      22.697   3.295  52.352  1.00  0.00    -0.222 NA
HETATM   12  C17 UNL     1      22.318   4.597  52.231  1.00  0.00     0.238 A 
HETATM   13  N4  UNL     1      23.021   5.396  51.407  1.00  0.00    -0.215 NA
HETATM   14  C18 UNL     1      24.083   4.968  50.697  1.00  0.00     0.202 A 
HETATM   15  O2  UNL     1      24.663   5.969  49.906  1.00  0.00    -0.289 OA
HETATM   16  H9  UNL     1      25.644   2.026  50.430  1.00  0.00     0.160 HD
ENDROOT
BRANCH  10  17
HETATM   17  N2  UNL     1      24.148   1.456  51.789  1.00  0.00    -0.346 N 
HETATM   18  H10 UNL     1      24.223   0.751  51.033  1.00  0.00     0.166 HD
BRANCH  17  19
HETATM   19  P1  UNL     1      24.610   0.706  53.365  1.00  0.00     0.006 P 
HETATM   20  H11 UNL     1      24.267   1.599  54.472  1.00  0.00     0.085 HD
BRANCH  19  21
HETATM   21  C11 UNL     1      26.412   0.452  53.398  1.00  0.00    -0.012 A 
HETATM   22  C12 UNL     1      27.315   1.504  53.542  1.00  0.00     0.017 A 
HETATM   23  C13 UNL     1      28.689   1.346  53.571  1.00  0.00     0.045 A 
HETATM   24  C14 UNL     1      29.207   0.064  53.450  1.00  0.00     0.138 A 
HETATM   25  F1  UNL     1      30.561  -0.014  53.487  1.00  0.00    -0.204 F 
HETATM   26  C15 UNL     1      28.354  -1.017  53.304  1.00  0.00     0.073 A 
HETATM   27 CL1  UNL     1      29.071  -2.607  53.156  1.00  0.00    -0.081 Cl
HETATM   28  C16 UNL     1      26.982  -0.811  53.281  1.00  0.00     0.040 A 
ENDBRANCH  19  21
ENDBRANCH  17  19
ENDBRANCH  10  17
BRANCH   1  29
HETATM   29  O1  UNL     1      29.633   6.798  47.800  1.00  0.00    -0.356 OA
HETATM   30  C1  UNL     1      30.248   8.049  48.042  1.00  0.00     0.210 C 
ENDBRANCH   1  29
TORSDOF 4
ENDMDL
MODEL 4
REMARK VINA RESULT:      -8.2      1.807      2.048
REMARK  4 active torsions:
REMARK  status: ('A' for Active; 'I' for Inactive)
REMARK    1  A    between atoms: O1_2  and  C2_3 
REMARK    2  A    between atoms: C10_12  and  N2_13 
REMARK    3  A    between atoms: N2_13  and  P1_14 
REMARK    4  A    between atoms: P1_14  and  C11_15 
ROOT
HETATM    1  C2  UNL     1      26.874  -0.699  53.211  1.00  0.00     0.069 A 
HETATM    2  C3  UNL     1      25.663  -0.904  53.849  1.00  0.00     0.039 A 
HETATM    3  C4  UNL     1      24.607  -0.007  53.700  1.00  0.00     0.040 A 
HETATM    4  C5  UNL     1      24.839   1.085  52.888  1.00  0.00     0.086 A 
HETATM    5  C6  UNL     1      26.018   1.339  52.233  1.00  0.00    -0.004 A 
HETATM    6  C7  UNL     1      27.039   0.418  52.411  1.00  0.00     0.048 A 
HETATM    7  C8  UNL     1      26.508   2.389  51.341  1.00  0.00     0.161 C 
HETATM    8  N1  UNL     1      25.493   3.137  50.659  1.00  0.00    -0.379 N 
HETATM    9  C9  UNL     1      24.103   3.345  50.825  1.00  0.00     0.128 A 
HETATM   10  C10 UNL     1      23.525   4.195  49.905  1.00  0.00     0.159 A 
HETATM   11  N3  UNL     1      22.208   4.460  49.974  1.00  0.00    -0.222 NA
HETATM   12  C17 UNL     1      21.430   3.900  50.942  1.00  0.00     0.238 A 
HETATM   13  N4  UNL     1      22.009   3.073  51.832  1.00  0.00    -0.215 NA
HETATM   14  C18 UNL     1      23.322   2.772  51.810  1.00  0.00     0.202 A 
HETATM   15  O2  UNL     1      23.708   1.891  52.829  1.00  0.00    -0.289 OA
HETATM   16  H9  UNL     1      25.859   3.666  49.829  1.00  0.00     0.160 HD
ENDROOT
BRANCH  10  17
HETATM   17  N2  UNL     1      24.339   4.776  48.899  1.00  0.00    -0.346 N 
HETATM   18  H10 UNL     1      24.698   4.323  48.039  1.00  0.00     0.166 HD
BRANCH  17  19
HETATM   19  P1  UNL     1      24.910   6.489  48.964  1.00  0.00     0.006 P 
HETATM   20  H11 UNL     1      24.293   7.270  47.892  1.00  0.00     0.085 HD
BRANCH  19  21
HETATM   21  C11 UNL     1      26.711   6.526  48.708  1.00  0.00    -0.012 A 
HETATM   22  C12 UNL     1      27.467   5.369  48.527  1.00  0.00     0.017 A 
HETATM   23  C13 UNL     1      28.836   5.362  48.331  1.00  0.00     0.045 A 
HETATM   24  C14 UNL     1      29.506   6.578  48.311  1.00  0.00     0.138 A 
HETATM   25  F1  UNL     1      30.845   6.494  48.114  1.00  0.00    -0.204 F 
HETATM   26  C15 UNL     1      28.802   7.758  48.486  1.00  0.00     0.073 A 
HETATM   27 CL1  UNL     1      29.705   9.257  48.451  1.00  0.00    -0.081 Cl
HETATM   28  C16 UNL     1      27.429   7.717  48.680  1.00  0.00     0.040 A 
ENDBRANCH  19  21
ENDBRANCH  17  19
ENDBRANCH  10  17
BRANCH   1  29
HETATM   29  O1  UNL     1      27.788  -1.681  53.475  1.00  0.00    -0.356 OA
HETATM   30  C1  UNL     1      29.181  -1.547  53.264  1.00  0.00     0.210 C 
ENDBRANCH   1  29
TORSDOF 4
ENDMDL
MODEL 5
REMARK VINA RESULT:      -8.1      3.272      5.529
REMARK  4 active torsions:
REMARK  status: ('A' for Active; 'I' for Inactive)
REMARK    1  A    between atoms: O1_2  and  C2_3 
REMARK    2  A    between atoms: C10_12  and  N2_13 
REMARK    3  A    between atoms: N2_13  and  P1_14 
REMARK    4  A    between atoms: P1_14  and  C11_15 
ROOT
HETATM    1  C2  UNL     1      19.525  -0.652  53.057  1.00  0.00     0.069 A 
HETATM    2  C3  UNL     1      19.978  -1.552  54.006  1.00  0.00     0.039 A 
HETATM    3  C4  UNL     1      21.334  -1.666  54.305  1.00  0.00     0.040 A 
HETATM    4  C5  UNL     1      22.188  -0.837  53.606  1.00  0.00     0.086 A 
HETATM    5  C6  UNL     1      21.796   0.072  52.656  1.00  0.00    -0.004 A 
HETATM    6  C7  UNL     1      20.438   0.149  52.392  1.00  0.00     0.048 A 
HETATM    7  C8  UNL     1      22.479   1.039  51.797  1.00  0.00     0.161 C 
HETATM    8  N1  UNL     1      23.774   1.455  52.249  1.00  0.00    -0.379 N 
HETATM    9  C9  UNL     1      24.731   0.966  53.170  1.00  0.00     0.128 A 
HETATM   10  C10 UNL     1      25.886   1.714  53.265  1.00  0.00     0.159 A 
HETATM   11  N3  UNL     1      26.860   1.336  54.112  1.00  0.00    -0.222 NA
HETATM   12  C17 UNL     1      26.726   0.220  54.883  1.00  0.00     0.238 A 
HETATM   13  N4  UNL     1      25.593  -0.498  54.778  1.00  0.00    -0.215 NA
HETATM   14  C18 UNL     1      24.585  -0.166  53.948  1.00  0.00     0.202 A 
HETATM   15  O2  UNL     1      23.503  -1.055  54.003  1.00  0.00    -0.289 OA
HETATM   16  H9  UNL     1      24.105   2.340  51.792  1.00  0.00     0.160 HD
ENDROOT
BRANCH  10  17
HETATM   17  N2  UNL     1      26.022   2.875  52.460  1.00  0.00    -0.346 N 
HETATM   18  H10 UNL     1      25.861   3.859  52.741  1.00  0.00     0.166 HD
BRANCH  17  19
HETATM   19  P1  UNL     1      26.523   2.814  50.726  1.00  0.00     0.006 P 
HETATM   20  H11 UNL     1      27.940   3.149  50.595  1.00  0.00     0.085 HD
BRANCH  19  21
HETATM   21  C11 UNL     1      25.574   4.053  49.789  1.00  0.00    -0.012 A 
HETATM   22  C12 UNL     1      26.116   5.278  49.402  1.00  0.00     0.017 A 
HETATM   23  C13 UNL     1      25.423   6.241  48.691  1.00  0.00     0.045 A 
HETATM   24  C14 UNL     1      24.107   5.978  48.337  1.00  0.00     0.138 A 
HETATM   25  F1  UNL     1      23.491   6.967  47.640  1.00  0.00    -0.204 F 
HETATM   26  C15 UNL     1      23.520   4.776  48.695  1.00  0.00     0.073 A 
HETATM   27 CL1  UNL     1      21.858   4.507  48.219  1.00  0.00    -0.081 Cl
HETATM   28  C16 UNL     1      24.253   3.840  49.409  1.00  0.00     0.040 A 
ENDBRANCH  19  21
ENDBRANCH  17  19
ENDBRANCH  10  17
BRANCH   1  29
HETATM   29  O1  UNL     1      18.168  -0.682  52.898  1.00  0.00    -0.356 OA
HETATM   30  C1  UNL     1      17.506  -0.438  51.671  1.00  0.00     0.210 C 
ENDBRANCH   1  29
TORSDOF 4
ENDMDL
MODEL 6
REMARK VINA RESULT:      -7.9      4.542      7.667
REMARK  4 active torsions:
REMARK  status: ('A' for Active; 'I' for Inactive)
REMARK    1  A    between atoms: O1_2  and  C2_3 
REMARK    2  A    between atoms: C10_12  and  N2_13 
REMARK    3  A    between atoms: N2_13  and  P1_14 
REMARK    4  A    between atoms: P1_14  and  C11_15 
ROOT
HETATM    1  C2  UNL     1      29.887   6.392  47.476  1.00  0.00     0.069 A 
HETATM    2  C3  UNL     1      29.332   7.589  47.059  1.00  0.00     0.039 A 
HETATM    3  C4  UNL     1      28.001   7.900  47.328  1.00  0.00     0.040 A 
HETATM    4  C5  UNL     1      27.278   6.953  48.026  1.00  0.00     0.086 A 
HETATM    5  C6  UNL     1      27.776   5.752  48.463  1.00  0.00    -0.004 A 
HETATM    6  C7  UNL     1      29.105   5.487  48.172  1.00  0.00     0.048 A 
HETATM    7  C8  UNL     1      27.238   4.609  49.200  1.00  0.00     0.161 C 
HETATM    8  N1  UNL     1      26.078   4.882  49.995  1.00  0.00    -0.379 N 
HETATM    9  C9  UNL     1      25.105   5.909  50.048  1.00  0.00     0.128 A 
HETATM   10  C10 UNL     1      24.121   5.733  51.000  1.00  0.00     0.159 A 
HETATM   11  N3  UNL     1      23.148   6.653  51.133  1.00  0.00    -0.222 NA
HETATM   12  C17 UNL     1      23.115   7.760  50.340  1.00  0.00     0.238 A 
HETATM   13  N4  UNL     1      24.081   7.915  49.416  1.00  0.00    -0.215 NA
HETATM   14  C18 UNL     1      25.080   7.028  49.240  1.00  0.00     0.202 A 
HETATM   15  O2  UNL     1      25.974   7.392  48.223  1.00  0.00    -0.289 OA
HETATM   16  H9  UNL     1      25.894   4.147  50.722  1.00  0.00     0.160 HD
ENDROOT
BRANCH  10  17
HETATM   17  N2  UNL     1      24.159   4.579  51.824  1.00  0.00    -0.346 N 
HETATM   18  H10 UNL     1      24.857   4.349  52.555  1.00  0.00     0.166 HD
BRANCH  17  19
HETATM   19  P1  UNL     1      22.933   3.256  51.719  1.00  0.00     0.006 P 
HETATM   20  H11 UNL     1      21.670   3.688  52.316  1.00  0.00     0.085 HD
BRANCH  19  21
HETATM   21  C11 UNL     1      23.528   1.818  52.663  1.00  0.00    -0.012 A 
HETATM   22  C12 UNL     1      24.876   1.613  52.947  1.00  0.00     0.017 A 
HETATM   23  C13 UNL     1      25.361   0.531  53.661  1.00  0.00     0.045 A 
HETATM   24  C14 UNL     1      24.455  -0.411  54.125  1.00  0.00     0.138 A 
HETATM   25  F1  UNL     1      25.001  -1.443  54.817  1.00  0.00    -0.204 F 
HETATM   26  C15 UNL     1      23.102  -0.255  53.871  1.00  0.00     0.073 A 
HETATM   27 CL1  UNL     1      22.012  -1.479  54.484  1.00  0.00    -0.081 Cl
HETATM   28  C16 UNL     1      22.661   0.845  53.151  1.00  0.00     0.040 A 
ENDBRANCH  19  21
ENDBRANCH  17  19
ENDBRANCH  10  17
BRANCH   1  29
HETATM   29  O1  UNL     1      31.201   6.262  47.123  1.00  0.00    -0.356 OA
HETATM   30  C1  UNL     1      32.094   7.349  46.964  1.00  0.00     0.210 C 
ENDBRANCH   1  29
TORSDOF 4
ENDMDL
MODEL 7
REMARK VINA RESULT:      -7.9      3.901      6.862
REMARK  4 active torsions:
REMARK  status: ('A' for Active; 'I' for Inactive)
REMARK    1  A    between atoms: O1_2  and  C2_3 
REMARK    2  A    between atoms: C10_12  and  N2_13 
REMARK    3  A    between atoms: N2_13  and  P1_14 
REMARK    4  A    between atoms: P1_14  and  C11_15 
ROOT
HETATM    1  C2  UNL     1      24.831   5.078  49.543  1.00  0.00     0.069 A 
HETATM    2  C3  UNL     1      26.043   4.581  49.098  1.00  0.00     0.039 A 
HETATM    3  C4  UNL     1      26.683   3.537  49.762  1.00  0.00     0.040 A 
HETATM    4  C5  UNL     1      26.044   3.035  50.878  1.00  0.00     0.086 A 
HETATM    5  C6  UNL     1      24.844   3.489  51.364  1.00  0.00    -0.004 A 
HETATM    6  C7  UNL     1      24.245   4.528  50.670  1.00  0.00     0.048 A 
HETATM    7  C8  UNL     1      23.979   3.141  52.491  1.00  0.00     0.161 C 
HETATM    8  N1  UNL     1      24.158   1.820  53.018  1.00  0.00    -0.379 N 
HETATM    9  C9  UNL     1      25.164   0.826  52.940  1.00  0.00     0.128 A 
HETATM   10  C10 UNL     1      24.903  -0.325  53.654  1.00  0.00     0.159 A 
HETATM   11  N3  UNL     1      25.795  -1.333  53.647  1.00  0.00    -0.222 NA
HETATM   12  C17 UNL     1      26.957  -1.236  52.942  1.00  0.00     0.238 A 
HETATM   13  N4  UNL     1      27.195  -0.106  52.251  1.00  0.00    -0.215 NA
HETATM   14  C18 UNL     1      26.338   0.933  52.222  1.00  0.00     0.202 A 
HETATM   15  O2  UNL     1      26.790   2.004  51.439  1.00  0.00    -0.289 OA
HETATM   16  H9  UNL     1      23.352   1.499  53.609  1.00  0.00     0.160 HD
ENDROOT
BRANCH  10  17
HETATM   17  N2  UNL     1      23.692  -0.421  54.387  1.00  0.00    -0.346 N 
HETATM   18  H10 UNL     1      23.527  -0.139  55.371  1.00  0.00     0.166 HD
BRANCH  17  19
HETATM   19  P1  UNL     1      22.168  -1.086  53.683  1.00  0.00     0.006 P 
HETATM   20  H11 UNL     1      22.460  -2.249  52.846  1.00  0.00     0.085 HD
BRANCH  19  21
HETATM   21  C11 UNL     1      21.401   0.178  52.622  1.00  0.00    -0.012 A 
HETATM   22  C12 UNL     1      20.599   1.198  53.131  1.00  0.00     0.017 A 
HETATM   23  C13 UNL     1      20.001   2.174  52.353  1.00  0.00     0.045 A 
HETATM   24  C14 UNL     1      20.209   2.142  50.981  1.00  0.00     0.138 A 
HETATM   25  F1  UNL     1      19.593   3.129  50.283  1.00  0.00    -0.204 F 
HETATM   26  C15 UNL     1      20.998   1.150  50.424  1.00  0.00     0.073 A 
HETATM   27 CL1  UNL     1      21.220   1.165  48.688  1.00  0.00    -0.081 Cl
HETATM   28  C16 UNL     1      21.577   0.191  51.242  1.00  0.00     0.040 A 
ENDBRANCH  19  21
ENDBRANCH  17  19
ENDBRANCH  10  17
BRANCH   1  29
HETATM   29  O1  UNL     1      24.356   6.098  48.768  1.00  0.00    -0.356 OA
HETATM   30  C1  UNL     1      23.024   6.185  48.296  1.00  0.00     0.210 C 
ENDBRANCH   1  29
TORSDOF 4
ENDMDL
MODEL 8
REMARK VINA RESULT:      -7.9      2.223      2.587
REMARK  4 active torsions:
REMARK  status: ('A' for Active; 'I' for Inactive)
REMARK    1  A    between atoms: O1_2  and  C2_3 
REMARK    2  A    between atoms: C10_12  and  N2_13 
REMARK    3  A    between atoms: N2_13  and  P1_14 
REMARK    4  A    between atoms: P1_14  and  C11_15 
ROOT
HETATM    1  C2  UNL     1      26.327   0.157  54.307  1.00  0.00     0.069 A 
HETATM    2  C3  UNL     1      25.280  -0.731  54.478  1.00  0.00     0.039 A 
HETATM    3  C4  UNL     1      24.069  -0.556  53.812  1.00  0.00     0.040 A 
HETATM    4  C5  UNL     1      23.977   0.544  52.982  1.00  0.00     0.086 A 
HETATM    5  C6  UNL     1      24.982   1.456  52.776  1.00  0.00    -0.004 A 
HETATM    6  C7  UNL     1      26.168   1.240  53.459  1.00  0.00     0.048 A 
HETATM    7  C8  UNL     1      25.137   2.669  51.974  1.00  0.00     0.161 C 
HETATM    8  N1  UNL     1      24.245   2.786  50.858  1.00  0.00    -0.379 N 
HETATM    9  C9  UNL     1      23.027   2.179  50.467  1.00  0.00     0.128 A 
HETATM   10  C10 UNL     1      22.501   2.639  49.277  1.00  0.00     0.159 A 
HETATM   11  N3  UNL     1      21.346   2.128  48.815  1.00  0.00    -0.222 NA
HETATM   12  C17 UNL     1      20.682   1.158  49.503  1.00  0.00     0.238 A 
HETATM   13  N4  UNL     1      21.209   0.720  50.662  1.00  0.00    -0.215 NA
HETATM   14  C18 UNL     1      22.362   1.195  51.171  1.00  0.00     0.202 A 
HETATM   15  O2  UNL     1      22.722   0.595  52.386  1.00  0.00    -0.289 OA
HETATM   16  H9  UNL     1      24.562   3.492  50.149  1.00  0.00     0.160 HD
ENDROOT
BRANCH  10  17
HETATM   17  N2  UNL     1      23.195   3.650  48.563  1.00  0.00    -0.346 N 
HETATM   18  H10 UNL     1      23.911   3.522  47.825  1.00  0.00     0.166 HD
BRANCH  17  19
HETATM   19  P1  UNL     1      22.925   5.414  48.845  1.00  0.00     0.006 P 
HETATM   20  H11 UNL     1      22.188   6.000  47.726  1.00  0.00     0.085 HD
BRANCH  19  21
HETATM   21  C11 UNL     1      24.537   6.254  48.945  1.00  0.00    -0.012 A 
HETATM   22  C12 UNL     1      24.662   7.598  49.291  1.00  0.00     0.017 A 
HETATM   23  C13 UNL     1      25.870   8.266  49.376  1.00  0.00     0.045 A 
HETATM   24  C14 UNL     1      27.034   7.561  49.101  1.00  0.00     0.138 A 
HETATM   25  F1  UNL     1      28.180   8.280  49.205  1.00  0.00    -0.204 F 
HETATM   26  C15 UNL     1      26.966   6.223  48.753  1.00  0.00     0.073 A 
HETATM   27 CL1  UNL     1      28.469   5.391  48.418  1.00  0.00    -0.081 Cl
HETATM   28  C16 UNL     1      25.732   5.593  48.680  1.00  0.00     0.040 A 
ENDBRANCH  19  21
ENDBRANCH  17  19
ENDBRANCH  10  17
BRANCH   1  29
HETATM   29  O1  UNL     1      27.433  -0.175  55.038  1.00  0.00    -0.356 OA
HETATM   30  C1  UNL     1      28.747   0.253  54.733  1.00  0.00     0.210 C 
ENDBRANCH   1  29
TORSDOF 4
ENDMDL
MODEL 9
REMARK VINA RESULT:      -7.8      3.130      4.214
REMARK  4 active torsions:
REMARK  status: ('A' for Active; 'I' for Inactive)
REMARK    1  A    between atoms: O1_2  and  C2_3 
REMARK    2  A    between atoms: C10_12  and  N2_13 
REMARK    3  A    between atoms: N2_13  and  P1_14 
REMARK    4  A    between atoms: P1_14  and  C11_15 
ROOT
HETATM    1  C2  UNL     1      25.490  -0.407  54.059  1.00  0.00     0.069 A 
HETATM    2  C3  UNL     1      24.666  -1.015  54.990  1.00  0.00     0.039 A 
HETATM    3  C4  UNL     1      23.279  -0.920  54.898  1.00  0.00     0.040 A 
HETATM    4  C5  UNL     1      22.782  -0.192  53.835  1.00  0.00     0.086 A 
HETATM    5  C6  UNL     1      23.550   0.432  52.885  1.00  0.00    -0.004 A 
HETATM    6  C7  UNL     1      24.924   0.309  53.018  1.00  0.00     0.048 A 
HETATM    7  C8  UNL     1      23.282   1.239  51.696  1.00  0.00     0.161 C 
HETATM    8  N1  UNL     1      21.979   1.072  51.121  1.00  0.00    -0.379 N 
HETATM    9  C9  UNL     1      20.740   0.545  51.557  1.00  0.00     0.128 A 
HETATM   10  C10 UNL     1      19.717   0.617  50.633  1.00  0.00     0.159 A 
HETATM   11  N3  UNL     1      18.498   0.143  50.948  1.00  0.00    -0.222 NA
HETATM   12  C17 UNL     1      18.253  -0.410  52.169  1.00  0.00     0.238 A 
HETATM   13  N4  UNL     1      19.261  -0.471  53.058  1.00  0.00    -0.215 NA
HETATM   14  C18 UNL     1      20.501  -0.014  52.797  1.00  0.00     0.202 A 
HETATM   15  O2  UNL     1      21.392  -0.181  53.867  1.00  0.00    -0.289 OA
HETATM   16  H9  UNL     1      21.916   1.424  50.134  1.00  0.00     0.160 HD
ENDROOT
BRANCH  10  17
HETATM   17  N2  UNL     1      19.977   1.193  49.363  1.00  0.00    -0.346 N 
HETATM   18  H10 UNL     1      20.320   0.713  48.512  1.00  0.00     0.166 HD
BRANCH  17  19
HETATM   19  P1  UNL     1      19.737   2.949  49.014  1.00  0.00     0.006 P 
HETATM   20  H11 UNL     1      19.810   3.194  47.574  1.00  0.00     0.085 HD
BRANCH  19  21
HETATM   21  C11 UNL     1      21.073   3.900  49.804  1.00  0.00    -0.012 A 
HETATM   22  C12 UNL     1      20.944   4.462  51.073  1.00  0.00     0.017 A 
HETATM   23  C13 UNL     1      21.938   5.190  51.702  1.00  0.00     0.045 A 
HETATM   24  C14 UNL     1      23.140   5.377  51.033  1.00  0.00     0.138 A 
HETATM   25  F1  UNL     1      24.068   6.100  51.711  1.00  0.00    -0.204 F 
HETATM   26  C15 UNL     1      23.321   4.840  49.770  1.00  0.00     0.073 A 
HETATM   27 CL1  UNL     1      24.859   5.113  48.981  1.00  0.00    -0.081 Cl
HETATM   28  C16 UNL     1      22.296   4.117  49.178  1.00  0.00     0.040 A 
ENDBRANCH  19  21
ENDBRANCH  17  19
ENDBRANCH  10  17
BRANCH   1  29
HETATM   29  O1  UNL     1      26.818  -0.607  54.311  1.00  0.00    -0.356 OA
HETATM   30  C1  UNL     1      27.803  -0.763  53.307  1.00  0.00     0.210 C 
ENDBRANCH   1  29
TORSDOF 4
ENDMDL
