MODEL 1
REMARK VINA RESULT:      -8.5      0.000      0.000
REMARK  6 active torsions:
REMARK  status: ('A' for Active; 'I' for Inactive)
REMARK    1  A    between atoms: N1_2  and  C2_3 
REMARK    2  A    between atoms: N1_2  and  C3_5 
REMARK    3  A    between atoms: C3_5  and  C4_6 
REMARK    4  A    between atoms: C5_7  and  C6_8 
REMARK    5  A    between atoms: C11_15  and  N4_16 
REMARK    6  A    between atoms: N4_16  and  C12_17 
ROOT
HETATM    1  C6  UNL     1      24.023   0.012  53.472  1.00  0.00    -0.035 A 
HETATM    2  C7  UNL     1      22.974  -0.872  53.368  1.00  0.00     0.014 A 
HETATM    3  C8  UNL     1      21.827  -0.448  52.731  1.00  0.00     0.033 A 
HETATM    4  C9  UNL     1      21.784   0.817  52.238  1.00  0.00     0.072 A 
HETATM    5  N2  UNL     1      20.629   1.167  51.626  1.00  0.00    -0.241 NA
HETATM    6  C10 UNL     1      20.478   2.400  51.100  1.00  0.00     0.236 A 
HETATM    7  N3  UNL     1      21.486   3.271  51.192  1.00  0.00    -0.224 NA
HETATM    8  C11 UNL     1      22.660   3.018  51.776  1.00  0.00     0.142 A 
HETATM    9  C18 UNL     1      22.794   1.753  52.307  1.00  0.00     0.040 A 
HETATM   10  C19 UNL     1      23.915   1.283  52.951  1.00  0.00     0.029 A 
ENDROOT
BRANCH   8  11
HETATM   11  N4  UNL     1      23.743   3.918  51.889  1.00  0.00    -0.340 N 
HETATM   12  H12 UNL     1      23.890   4.487  52.720  1.00  0.00     0.167 HD
BRANCH  11  13
HETATM   13  C12 UNL     1      24.756   4.180  50.936  1.00  0.00     0.035 A 
HETATM   14  C13 UNL     1      25.712   3.265  50.570  1.00  0.00     0.032 A 
HETATM   15  C14 UNL     1      26.716   3.457  49.648  1.00  0.00     0.046 A 
HETATM   16  C15 UNL     1      26.796   4.680  49.010  1.00  0.00     0.138 A 
HETATM   17  F1  UNL     1      27.733   4.987  48.089  1.00  0.00    -0.204 F 
HETATM   18  C16 UNL     1      25.865   5.640  49.334  1.00  0.00     0.074 A 
HETATM   19 CL1  UNL     1      25.911   7.210  48.562  1.00  0.00    -0.081 Cl
HETATM   20  C17 UNL     1      24.887   5.382  50.266  1.00  0.00     0.056 A 
ENDBRANCH  11  13
ENDBRANCH   8  11
BRANCH   1  21
HETATM   21  C5  UNL     1      25.253  -0.389  54.137  1.00  0.00     0.009 C 
HETATM   22  C4  UNL     1      26.266   0.437  54.323  1.00  0.00    -0.006 C 
BRANCH  22  23
HETATM   23  C3  UNL     1      27.545   0.094  54.990  1.00  0.00     0.152 C 
BRANCH  23  24
HETATM   24  N1  UNL     1      28.703   0.369  54.172  1.00  0.00    -0.360 N 
HETATM   25  C1  UNL     1      29.583  -0.639  53.620  1.00  0.00     0.152 C 
BRANCH  24  26
HETATM   26  C2  UNL     1      29.009   1.748  53.881  1.00  0.00     0.350 C 
HETATM   27  O1  UNL     1      29.415   2.285  54.949  1.00  0.00    -0.284 OA
ENDBRANCH  24  26
ENDBRANCH  23  24
ENDBRANCH  22  23
ENDBRANCH   1  21
TORSDOF 6
ENDMDL
MODEL 2
REMARK VINA RESULT:      -8.4      1.860      2.591
REMARK  6 active torsions:
REMARK  status: ('A' for Active; 'I' for Inactive)
REMARK    1  A    between atoms: N1_2  and  C2_3 
REMARK    2  A    between atoms: N1_2  and  C3_5 
REMARK    3  A    between atoms: C3_5  and  C4_6 
REMARK    4  A    between atoms: C5_7  and  C6_8 
REMARK    5  A    between atoms: C11_15  and  N4_16 
REMARK    6  A    between atoms: N4_16  and  C12_17 
ROOT
HETATM    1  C6  UNL     1      23.651  -0.570  53.986  1.00  0.00    -0.035 A 
HETATM    2  C7  UNL     1      22.818  -1.167  54.905  1.00  0.00     0.014 A 
HETATM    3  C8  UNL     1      21.463  -1.161  54.653  1.00  0.00     0.033 A 
HETATM    4  C9  UNL     1      21.012  -0.569  53.516  1.00  0.00     0.072 A 
HETATM    5  N2  UNL     1      19.672  -0.599  53.333  1.00  0.00    -0.241 NA
HETATM    6  C10 UNL     1      19.116  -0.041  52.237  1.00  0.00     0.236 A 
HETATM    7  N3  UNL     1      19.910   0.542  51.336  1.00  0.00    -0.224 NA
HETATM    8  C11 UNL     1      21.240   0.621  51.429  1.00  0.00     0.142 A 
HETATM    9  C18 UNL     1      21.787   0.046  52.556  1.00  0.00     0.040 A 
HETATM   10  C19 UNL     1      23.130   0.013  52.852  1.00  0.00     0.029 A 
ENDROOT
BRANCH   8  11
HETATM   11  N4  UNL     1      22.104   1.231  50.493  1.00  0.00    -0.340 N 
HETATM   12  H12 UNL     1      22.323   0.800  49.598  1.00  0.00     0.167 HD
BRANCH  11  13
HETATM   13  C12 UNL     1      22.779   2.469  50.614  1.00  0.00     0.035 A 
HETATM   14  C13 UNL     1      22.275   3.549  51.295  1.00  0.00     0.032 A 
HETATM   15  C14 UNL     1      22.884   4.774  51.453  1.00  0.00     0.046 A 
HETATM   16  C15 UNL     1      24.126   4.965  50.882  1.00  0.00     0.138 A 
HETATM   17  F1  UNL     1      24.822   6.119  50.968  1.00  0.00    -0.204 F 
HETATM   18  C16 UNL     1      24.687   3.920  50.185  1.00  0.00     0.074 A 
HETATM   19 CL1  UNL     1      26.260   4.099  49.438  1.00  0.00    -0.081 Cl
HETATM   20  C17 UNL     1      24.022   2.722  50.065  1.00  0.00     0.056 A 
ENDBRANCH  11  13
ENDBRANCH   8  11
BRANCH   1  21
HETATM   21  C5  UNL     1      25.088  -0.550  54.208  1.00  0.00     0.009 C 
HETATM   22  C4  UNL     1      25.962  -0.464  53.222  1.00  0.00    -0.006 C 
BRANCH  22  23
HETATM   23  C3  UNL     1      27.436  -0.440  53.378  1.00  0.00     0.152 C 
BRANCH  23  24
HETATM   24  N1  UNL     1      27.975   0.898  53.463  1.00  0.00    -0.360 N 
HETATM   25  C1  UNL     1      27.491   2.033  52.707  1.00  0.00     0.152 C 
BRANCH  24  26
HETATM   26  C2  UNL     1      29.077   1.123  54.365  1.00  0.00     0.350 C 
HETATM   27  O1  UNL     1      29.172   2.368  54.555  1.00  0.00    -0.284 OA
ENDBRANCH  24  26
ENDBRANCH  23  24
ENDBRANCH  22  23
ENDBRANCH   1  21
TORSDOF 6
ENDMDL
MODEL 3
REMARK VINA RESULT:      -8.2      3.002      5.638
REMARK  6 active torsions:
REMARK  status: ('A' for Active; 'I' for Inactive)
REMARK    1  A    between atoms: N1_2  and  C2_3 
REMARK    2  A    between atoms: N1_2  and  C3_5 
REMARK    3  A    between atoms: C3_5  and  C4_6 
REMARK    4  A    between atoms: C5_7  and  C6_8 
REMARK    5  A    between atoms: C11_15  and  N4_16 
REMARK    6  A    between atoms: N4_16  and  C12_17 
ROOT
HETATM    1  C6  UNL     1      24.308  -0.291  53.694  1.00  0.00    -0.035 A 
HETATM    2  C7  UNL     1      25.001  -0.658  54.825  1.00  0.00     0.014 A 
HETATM    3  C8  UNL     1      26.254  -0.117  55.024  1.00  0.00     0.033 A 
HETATM    4  C9  UNL     1      26.746   0.748  54.099  1.00  0.00     0.072 A 
HETATM    5  N2  UNL     1      27.980   1.239  54.357  1.00  0.00    -0.241 NA
HETATM    6  C10 UNL     1      28.565   2.106  53.504  1.00  0.00     0.236 A 
HETATM    7  N3  UNL     1      27.907   2.472  52.401  1.00  0.00    -0.224 NA
HETATM    8  C11 UNL     1      26.689   2.042  52.063  1.00  0.00     0.142 A 
HETATM    9  C18 UNL     1      26.109   1.157  52.946  1.00  0.00     0.040 A 
HETATM   10  C19 UNL     1      24.865   0.592  52.794  1.00  0.00     0.029 A 
ENDROOT
BRANCH   8  11
HETATM   11  N4  UNL     1      25.969   2.411  50.905  1.00  0.00    -0.340 N 
HETATM   12  H12 UNL     1      25.394   1.748  50.390  1.00  0.00     0.167 HD
BRANCH  11  13
HETATM   13  C12 UNL     1      25.915   3.682  50.286  1.00  0.00     0.035 A 
HETATM   14  C13 UNL     1      26.806   4.103  49.329  1.00  0.00     0.032 A 
HETATM   15  C14 UNL     1      26.803   5.320  48.687  1.00  0.00     0.046 A 
HETATM   16  C15 UNL     1      25.818   6.231  49.016  1.00  0.00     0.138 A 
HETATM   17  F1  UNL     1      25.710   7.455  48.456  1.00  0.00    -0.204 F 
HETATM   18  C16 UNL     1      24.894   5.870  49.969  1.00  0.00     0.074 A 
HETATM   19 CL1  UNL     1      23.621   6.980  50.429  1.00  0.00    -0.081 Cl
HETATM   20  C17 UNL     1      24.956   4.636  50.572  1.00  0.00     0.056 A 
ENDBRANCH  11  13
ENDBRANCH   8  11
BRANCH   1  21
HETATM   21  C5  UNL     1      22.983  -0.835  53.441  1.00  0.00     0.009 C 
HETATM   22  C4  UNL     1      21.899  -0.384  54.043  1.00  0.00    -0.006 C 
BRANCH  22  23
HETATM   23  C3  UNL     1      20.523  -0.893  53.832  1.00  0.00     0.152 C 
BRANCH  23  24
HETATM   24  N1  UNL     1      19.717  -0.022  53.008  1.00  0.00    -0.360 N 
HETATM   25  C1  UNL     1      20.094   1.316  52.604  1.00  0.00     0.152 C 
BRANCH  24  26
HETATM   26  C2  UNL     1      18.441  -0.517  52.553  1.00  0.00     0.350 C 
HETATM   27  O1  UNL     1      18.094  -1.453  53.327  1.00  0.00    -0.284 OA
ENDBRANCH  24  26
ENDBRANCH  23  24
ENDBRANCH  22  23
ENDBRANCH   1  21
TORSDOF 6
ENDMDL
MODEL 4
REMARK VINA RESULT:      -8.0      1.563      1.971
REMARK  6 active torsions:
REMARK  status: ('A' for Active; 'I' for Inactive)
REMARK    1  A    between atoms: N1_2  and  C2_3 
REMARK    2  A    between atoms: N1_2  and  C3_5 
REMARK    3  A    between atoms: C3_5  and  C4_6 
REMARK    4  A    between atoms: C5_7  and  C6_8 
REMARK    5  A    between atoms: C11_15  and  N4_16 
REMARK    6  A    between atoms: N4_16  and  C12_17 
ROOT
HETATM    1  C6  UNL     1      24.288   0.684  52.395  1.00  0.00    -0.035 A 
HETATM    2  C7  UNL     1      23.497   0.141  53.381  1.00  0.00     0.014 A 
HETATM    3  C8  UNL     1      22.207   0.611  53.513  1.00  0.00     0.033 A 
HETATM    4  C9  UNL     1      21.779   1.586  52.669  1.00  0.00     0.072 A 
HETATM    5  N2  UNL     1      20.504   2.001  52.855  1.00  0.00    -0.241 NA
HETATM    6  C10 UNL     1      19.975   2.965  52.072  1.00  0.00     0.236 A 
HETATM    7  N3  UNL     1      20.730   3.504  51.111  1.00  0.00    -0.224 NA
HETATM    8  C11 UNL     1      21.994   3.160  50.852  1.00  0.00     0.142 A 
HETATM    9  C18 UNL     1      22.515   2.175  51.663  1.00  0.00     0.040 A 
HETATM   10  C19 UNL     1      23.792   1.672  51.572  1.00  0.00     0.029 A 
ENDROOT
BRANCH   8  11
HETATM   11  N4  UNL     1      22.815   3.712  49.844  1.00  0.00    -0.340 N 
HETATM   12  H12 UNL     1      22.799   3.370  48.885  1.00  0.00     0.167 HD
BRANCH  11  13
HETATM   13  C12 UNL     1      23.748   4.768  49.966  1.00  0.00     0.035 A 
HETATM   14  C13 UNL     1      23.553   5.869  50.764  1.00  0.00     0.032 A 
HETATM   15  C14 UNL     1      24.422   6.923  50.930  1.00  0.00     0.046 A 
HETATM   16  C15 UNL     1      25.618   6.900  50.240  1.00  0.00     0.138 A 
HETATM   17  F1  UNL     1      26.551   7.874  50.321  1.00  0.00    -0.204 F 
HETATM   18  C16 UNL     1      25.875   5.823  49.423  1.00  0.00     0.074 A 
HETATM   19 CL1  UNL     1      27.372   5.735  48.522  1.00  0.00    -0.081 Cl
HETATM   20  C17 UNL     1      24.960   4.803  49.302  1.00  0.00     0.056 A 
ENDBRANCH  11  13
ENDBRANCH   8  11
BRANCH   1  21
HETATM   21  C5  UNL     1      25.655   0.221  52.217  1.00  0.00     0.009 C 
HETATM   22  C4  UNL     1      26.207  -0.688  52.998  1.00  0.00    -0.006 C 
BRANCH  22  23
HETATM   23  C3  UNL     1      27.592  -1.203  52.873  1.00  0.00     0.152 C 
BRANCH  23  24
HETATM   24  N1  UNL     1      28.525  -0.544  53.758  1.00  0.00    -0.360 N 
HETATM   25  C1  UNL     1      29.962  -0.534  53.586  1.00  0.00     0.152 C 
BRANCH  24  26
HETATM   26  C2  UNL     1      27.989   0.158  54.898  1.00  0.00     0.350 C 
HETATM   27  O1  UNL     1      28.705   1.179  55.094  1.00  0.00    -0.284 OA
ENDBRANCH  24  26
ENDBRANCH  23  24
ENDBRANCH  22  23
ENDBRANCH   1  21
TORSDOF 6
ENDMDL
MODEL 5
REMARK VINA RESULT:      -8.0      4.055      6.532
REMARK  6 active torsions:
REMARK  status: ('A' for Active; 'I' for Inactive)
REMARK    1  A    between atoms: N1_2  and  C2_3 
REMARK    2  A    between atoms: N1_2  and  C3_5 
REMARK    3  A    between atoms: C3_5  and  C4_6 
REMARK    4  A    between atoms: C5_7  and  C6_8 
REMARK    5  A    between atoms: C11_15  and  N4_16 
REMARK    6  A    between atoms: N4_16  and  C12_17 
ROOT
HETATM    1  C6  UNL     1      20.438   0.432  51.406  1.00  0.00    -0.035 A 
HETATM    2  C7  UNL     1      19.451  -0.106  52.200  1.00  0.00     0.014 A 
HETATM    3  C8  UNL     1      19.824  -0.690  53.393  1.00  0.00     0.033 A 
HETATM    4  C9  UNL     1      21.140  -0.708  53.727  1.00  0.00     0.072 A 
HETATM    5  N2  UNL     1      21.434  -1.297  54.909  1.00  0.00    -0.241 NA
HETATM    6  C10 UNL     1      22.711  -1.371  55.340  1.00  0.00     0.236 A 
HETATM    7  N3  UNL     1      23.681  -0.855  54.581  1.00  0.00    -0.224 NA
HETATM    8  C11 UNL     1      23.489  -0.256  53.403  1.00  0.00     0.142 A 
HETATM    9  C18 UNL     1      22.178  -0.191  52.981  1.00  0.00     0.040 A 
HETATM   10  C19 UNL     1      21.756   0.380  51.803  1.00  0.00     0.029 A 
ENDROOT
BRANCH   8  11
HETATM   11  N4  UNL     1      24.493   0.299  52.579  1.00  0.00    -0.340 N 
HETATM   12  H12 UNL     1      24.296   0.643  51.642  1.00  0.00     0.167 HD
BRANCH  11  13
HETATM   13  C12 UNL     1      25.865   0.469  52.880  1.00  0.00     0.035 A 
HETATM   14  C13 UNL     1      26.438   1.684  53.165  1.00  0.00     0.032 A 
HETATM   15  C14 UNL     1      27.761   1.913  53.471  1.00  0.00     0.046 A 
HETATM   16  C15 UNL     1      28.622   0.834  53.501  1.00  0.00     0.138 A 
HETATM   17  F1  UNL     1      29.938   0.931  53.788  1.00  0.00    -0.204 F 
HETATM   18  C16 UNL     1      28.109  -0.412  53.224  1.00  0.00     0.074 A 
HETATM   19 CL1  UNL     1      29.148  -1.820  53.247  1.00  0.00    -0.081 Cl
HETATM   20  C17 UNL     1      26.776  -0.570  52.925  1.00  0.00     0.056 A 
ENDBRANCH  11  13
ENDBRANCH   8  11
BRANCH   1  21
HETATM   21  C5  UNL     1      20.094   1.058  50.139  1.00  0.00     0.009 C 
HETATM   22  C4  UNL     1      20.944   1.804  49.457  1.00  0.00    -0.006 C 
BRANCH  22  23
HETATM   23  C3  UNL     1      20.659   2.469  48.164  1.00  0.00     0.152 C 
BRANCH  23  24
HETATM   24  N1  UNL     1      21.801   3.172  47.624  1.00  0.00    -0.360 N 
HETATM   25  C1  UNL     1      21.950   3.564  46.239  1.00  0.00     0.152 C 
BRANCH  24  26
HETATM   26  C2  UNL     1      22.872   3.509  48.528  1.00  0.00     0.350 C 
HETATM   27  O1  UNL     1      23.267   4.673  48.240  1.00  0.00    -0.284 OA
ENDBRANCH  24  26
ENDBRANCH  23  24
ENDBRANCH  22  23
ENDBRANCH   1  21
TORSDOF 6
ENDMDL
MODEL 6
REMARK VINA RESULT:      -7.9      4.200      6.889
REMARK  6 active torsions:
REMARK  status: ('A' for Active; 'I' for Inactive)
REMARK    1  A    between atoms: N1_2  and  C2_3 
REMARK    2  A    between atoms: N1_2  and  C3_5 
REMARK    3  A    between atoms: C3_5  and  C4_6 
REMARK    4  A    between atoms: C5_7  and  C6_8 
REMARK    5  A    between atoms: C11_15  and  N4_16 
REMARK    6  A    between atoms: N4_16  and  C12_17 
ROOT
HETATM    1  C6  UNL     1      26.191   4.387  49.447  1.00  0.00    -0.035 A 
HETATM    2  C7  UNL     1      24.999   4.800  48.897  1.00  0.00     0.014 A 
HETATM    3  C8  UNL     1      23.830   4.437  49.532  1.00  0.00     0.033 A 
HETATM    4  C9  UNL     1      23.906   3.693  50.665  1.00  0.00     0.072 A 
HETATM    5  N2  UNL     1      22.722   3.373  51.235  1.00  0.00    -0.241 NA
HETATM    6  C10 UNL     1      22.681   2.636  52.366  1.00  0.00     0.236 A 
HETATM    7  N3  UNL     1      23.828   2.227  52.912  1.00  0.00    -0.224 NA
HETATM    8  C11 UNL     1      25.042   2.493  52.424  1.00  0.00     0.142 A 
HETATM    9  C18 UNL     1      25.062   3.246  51.270  1.00  0.00     0.040 A 
HETATM   10  C19 UNL     1      26.199   3.633  50.600  1.00  0.00     0.029 A 
ENDROOT
BRANCH   8  11
HETATM   11  N4  UNL     1      26.272   2.074  52.981  1.00  0.00    -0.340 N 
HETATM   12  H12 UNL     1      26.888   2.715  53.475  1.00  0.00     0.167 HD
BRANCH  11  13
HETATM   13  C12 UNL     1      26.837   0.778  52.958  1.00  0.00     0.035 A 
HETATM   14  C13 UNL     1      26.173  -0.336  52.507  1.00  0.00     0.032 A 
HETATM   15  C14 UNL     1      26.669  -1.619  52.453  1.00  0.00     0.046 A 
HETATM   16  C15 UNL     1      27.960  -1.840  52.889  1.00  0.00     0.138 A 
HETATM   17  F1  UNL     1      28.557  -3.051  52.885  1.00  0.00    -0.204 F 
HETATM   18  C16 UNL     1      28.680  -0.764  53.354  1.00  0.00     0.074 A 
HETATM   19 CL1  UNL     1      30.323  -0.978  53.920  1.00  0.00    -0.081 Cl
HETATM   20  C17 UNL     1      28.122   0.493  53.381  1.00  0.00     0.056 A 
ENDBRANCH  11  13
ENDBRANCH   8  11
BRANCH   1  21
HETATM   21  C5  UNL     1      27.450   4.744  48.814  1.00  0.00     0.009 C 
HETATM   22  C4  UNL     1      27.735   5.976  48.435  1.00  0.00    -0.006 C 
BRANCH  22  23
HETATM   23  C3  UNL     1      28.996   6.407  47.785  1.00  0.00     0.152 C 
BRANCH  23  24
HETATM   24  N1  UNL     1      29.589   7.566  48.410  1.00  0.00    -0.360 N 
HETATM   25  C1  UNL     1      28.868   8.764  48.783  1.00  0.00     0.152 C 
BRANCH  24  26
HETATM   26  C2  UNL     1      31.005   7.531  48.684  1.00  0.00     0.350 C 
HETATM   27  O1  UNL     1      31.574   8.312  47.872  1.00  0.00    -0.284 OA
ENDBRANCH  24  26
ENDBRANCH  23  24
ENDBRANCH  22  23
ENDBRANCH   1  21
TORSDOF 6
ENDMDL
MODEL 7
REMARK VINA RESULT:      -7.8      4.977      7.356
REMARK  6 active torsions:
REMARK  status: ('A' for Active; 'I' for Inactive)
REMARK    1  A    between atoms: N1_2  and  C2_3 
REMARK    2  A    between atoms: N1_2  and  C3_5 
REMARK    3  A    between atoms: C3_5  and  C4_6 
REMARK    4  A    between atoms: C5_7  and  C6_8 
REMARK    5  A    between atoms: C11_15  and  N4_16 
REMARK    6  A    between atoms: N4_16  and  C12_17 
ROOT
HETATM    1  C6  UNL     1      26.276   4.482  49.333  1.00  0.00    -0.035 A 
HETATM    2  C7  UNL     1      25.274   5.409  49.150  1.00  0.00     0.014 A 
HETATM    3  C8  UNL     1      25.591   6.590  48.514  1.00  0.00     0.033 A 
HETATM    4  C9  UNL     1      26.870   6.786  48.099  1.00  0.00     0.072 A 
HETATM    5  N2  UNL     1      27.109   7.967  47.483  1.00  0.00    -0.241 NA
HETATM    6  C10 UNL     1      28.345   8.266  47.030  1.00  0.00     0.236 A 
HETATM    7  N3  UNL     1      29.328   7.379  47.201  1.00  0.00    -0.224 NA
HETATM    8  C11 UNL     1      29.188   6.191  47.794  1.00  0.00     0.142 A 
HETATM    9  C18 UNL     1      27.919   5.905  48.250  1.00  0.00     0.040 A 
HETATM   10  C19 UNL     1      27.554   4.744  48.889  1.00  0.00     0.029 A 
ENDROOT
BRANCH   8  11
HETATM   11  N4  UNL     1      30.209   5.233  47.988  1.00  0.00    -0.340 N 
HETATM   12  H12 UNL     1      30.011   4.237  48.048  1.00  0.00     0.167 HD
BRANCH  11  13
HETATM   13  C12 UNL     1      31.598   5.462  48.125  1.00  0.00     0.035 A 
HETATM   14  C13 UNL     1      32.135   6.626  48.617  1.00  0.00     0.032 A 
HETATM   15  C14 UNL     1      33.472   6.906  48.780  1.00  0.00     0.046 A 
HETATM   16  C15 UNL     1      34.392   5.940  48.421  1.00  0.00     0.138 A 
HETATM   17  F1  UNL     1      35.728   6.096  48.534  1.00  0.00    -0.204 F 
HETATM   18  C16 UNL     1      33.918   4.749  47.920  1.00  0.00     0.074 A 
HETATM   19 CL1  UNL     1      35.031   3.484  47.448  1.00  0.00    -0.081 Cl
HETATM   20  C17 UNL     1      32.566   4.536  47.783  1.00  0.00     0.056 A 
ENDBRANCH  11  13
ENDBRANCH   8  11
BRANCH   1  21
HETATM   21  C5  UNL     1      25.991   3.222  50.000  1.00  0.00     0.009 C 
HETATM   22  C4  UNL     1      26.651   2.814  51.068  1.00  0.00    -0.006 C 
BRANCH  22  23
HETATM   23  C3  UNL     1      26.412   1.544  51.794  1.00  0.00     0.152 C 
BRANCH  23  24
HETATM   24  N1  UNL     1      27.492   1.189  52.686  1.00  0.00    -0.360 N 
HETATM   25  C1  UNL     1      27.751  -0.147  53.179  1.00  0.00     0.152 C 
BRANCH  24  26
HETATM   26  C2  UNL     1      28.379   2.240  53.120  1.00  0.00     0.350 C 
HETATM   27  O1  UNL     1      27.992   2.623  54.259  1.00  0.00    -0.284 OA
ENDBRANCH  24  26
ENDBRANCH  23  24
ENDBRANCH  22  23
ENDBRANCH   1  21
TORSDOF 6
ENDMDL
MODEL 8
REMARK VINA RESULT:      -7.8      3.418      6.163
REMARK  6 active torsions:
REMARK  status: ('A' for Active; 'I' for Inactive)
REMARK    1  A    between atoms: N1_2  and  C2_3 
REMARK    2  A    between atoms: N1_2  and  C3_5 
REMARK    3  A    between atoms: C3_5  and  C4_6 
REMARK    4  A    between atoms: C5_7  and  C6_8 
REMARK    5  A    between atoms: C11_15  and  N4_16 
REMARK    6  A    between atoms: N4_16  and  C12_17 
ROOT
HETATM    1  C6  UNL     1      22.592  -0.879  54.392  1.00  0.00    -0.035 A 
HETATM    2  C7  UNL     1      23.178  -1.473  55.487  1.00  0.00     0.014 A 
HETATM    3  C8  UNL     1      24.533  -1.299  55.672  1.00  0.00     0.033 A 
HETATM    4  C9  UNL     1      25.225  -0.556  54.771  1.00  0.00     0.072 A 
HETATM    5  N2  UNL     1      26.550  -0.428  55.013  1.00  0.00    -0.241 NA
HETATM    6  C10 UNL     1      27.334   0.290  54.182  1.00  0.00     0.236 A 
HETATM    7  N3  UNL     1      26.782   0.872  53.114  1.00  0.00    -0.224 NA
HETATM    8  C11 UNL     1      25.488   0.803  52.793  1.00  0.00     0.142 A 
HETATM    9  C18 UNL     1      24.705   0.065  53.655  1.00  0.00     0.040 A 
HETATM   10  C19 UNL     1      23.352  -0.137  53.514  1.00  0.00     0.029 A 
ENDROOT
BRANCH   8  11
HETATM   11  N4  UNL     1      24.876   1.407  51.672  1.00  0.00    -0.340 N 
HETATM   12  H12 UNL     1      24.689   0.893  50.815  1.00  0.00     0.167 HD
BRANCH  11  13
HETATM   13  C12 UNL     1      24.439   2.746  51.540  1.00  0.00     0.035 A 
HETATM   14  C13 UNL     1      23.871   3.467  52.562  1.00  0.00     0.032 A 
HETATM   15  C14 UNL     1      23.432   4.771  52.498  1.00  0.00     0.046 A 
HETATM   16  C15 UNL     1      23.564   5.448  51.302  1.00  0.00     0.138 A 
HETATM   17  F1  UNL     1      23.173   6.727  51.116  1.00  0.00    -0.204 F 
HETATM   18  C16 UNL     1      24.126   4.780  50.238  1.00  0.00     0.074 A 
HETATM   19 CL1  UNL     1      24.321   5.583  48.695  1.00  0.00    -0.081 Cl
HETATM   20  C17 UNL     1      24.542   3.476  50.371  1.00  0.00     0.056 A 
ENDBRANCH  11  13
ENDBRANCH   8  11
BRANCH   1  21
HETATM   21  C5  UNL     1      21.165  -1.033  54.154  1.00  0.00     0.009 C 
HETATM   22  C4  UNL     1      20.525  -0.379  53.203  1.00  0.00    -0.006 C 
BRANCH  22  23
HETATM   23  C3  UNL     1      19.077  -0.489  52.908  1.00  0.00     0.152 C 
BRANCH  23  24
HETATM   24  N1  UNL     1      18.704   0.133  51.658  1.00  0.00    -0.360 N 
HETATM   25  C1  UNL     1      19.623   0.795  50.758  1.00  0.00     0.152 C 
BRANCH  24  26
HETATM   26  C2  UNL     1      17.314   0.093  51.276  1.00  0.00     0.350 C 
HETATM   27  O1  UNL     1      17.255  -0.309  50.080  1.00  0.00    -0.284 OA
ENDBRANCH  24  26
ENDBRANCH  23  24
ENDBRANCH  22  23
ENDBRANCH   1  21
TORSDOF 6
ENDMDL
MODEL 9
REMARK VINA RESULT:      -7.8      3.636      5.711
REMARK  6 active torsions:
REMARK  status: ('A' for Active; 'I' for Inactive)
REMARK    1  A    between atoms: N1_2  and  C2_3 
REMARK    2  A    between atoms: N1_2  and  C3_5 
REMARK    3  A    between atoms: C3_5  and  C4_6 
REMARK    4  A    between atoms: C5_7  and  C6_8 
REMARK    5  A    between atoms: C11_15  and  N4_16 
REMARK    6  A    between atoms: N4_16  and  C12_17 
ROOT
HETATM    1  C6  UNL     1      25.949   2.671  51.056  1.00  0.00    -0.035 A 
HETATM    2  C7  UNL     1      26.448   3.306  49.942  1.00  0.00     0.014 A 
HETATM    3  C8  UNL     1      25.603   4.131  49.231  1.00  0.00     0.033 A 
HETATM    4  C9  UNL     1      24.322   4.280  49.660  1.00  0.00     0.072 A 
HETATM    5  N2  UNL     1      23.549   5.104  48.916  1.00  0.00    -0.241 NA
HETATM    6  C10 UNL     1      22.260   5.323  49.251  1.00  0.00     0.236 A 
HETATM    7  N3  UNL     1      21.760   4.715  50.329  1.00  0.00    -0.224 NA
HETATM    8  C11 UNL     1      22.444   3.887  51.123  1.00  0.00     0.142 A 
HETATM    9  C18 UNL     1      23.757   3.675  50.763  1.00  0.00     0.040 A 
HETATM   10  C19 UNL     1      24.639   2.864  51.437  1.00  0.00     0.029 A 
ENDROOT
BRANCH   8  11
HETATM   11  N4  UNL     1      21.941   3.230  52.268  1.00  0.00    -0.340 N 
HETATM   12  H12 UNL     1      22.194   3.517  53.211  1.00  0.00     0.167 HD
BRANCH  11  13
HETATM   13  C12 UNL     1      21.056   2.127  52.317  1.00  0.00     0.035 A 
HETATM   14  C13 UNL     1      19.893   2.051  51.591  1.00  0.00     0.032 A 
HETATM   15  C14 UNL     1      18.996   1.007  51.590  1.00  0.00     0.046 A 
HETATM   16  C15 UNL     1      19.265  -0.088  52.388  1.00  0.00     0.138 A 
HETATM   17  F1  UNL     1      18.463  -1.171  52.472  1.00  0.00    -0.204 F 
HETATM   18  C16 UNL     1      20.416  -0.073  53.142  1.00  0.00     0.074 A 
HETATM   19 CL1  UNL     1      20.814  -1.430  54.173  1.00  0.00    -0.081 Cl
HETATM   20  C17 UNL     1      21.269   1.005  53.095  1.00  0.00     0.056 A 
ENDBRANCH  11  13
ENDBRANCH   8  11
BRANCH   1  21
HETATM   21  C5  UNL     1      26.802   1.789  51.838  1.00  0.00     0.009 C 
HETATM   22  C4  UNL     1      26.542   0.505  52.001  1.00  0.00    -0.006 C 
BRANCH  22  23
HETATM   23  C3  UNL     1      27.367  -0.447  52.783  1.00  0.00     0.152 C 
BRANCH  23  24
HETATM   24  N1  UNL     1      27.477  -0.088  54.179  1.00  0.00    -0.360 N 
HETATM   25  C1  UNL     1      26.359   0.049  55.087  1.00  0.00     0.152 C 
BRANCH  24  26
HETATM   26  C2  UNL     1      28.796   0.151  54.709  1.00  0.00     0.350 C 
HETATM   27  O1  UNL     1      28.901   1.389  54.935  1.00  0.00    -0.284 OA
ENDBRANCH  24  26
ENDBRANCH  23  24
ENDBRANCH  22  23
ENDBRANCH   1  21
TORSDOF 6
ENDMDL
