MODEL 1
REMARK VINA RESULT:      -8.5      0.000      0.000
REMARK  3 active torsions:
REMARK  status: ('A' for Active; 'I' for Inactive)
REMARK    1  A    between atoms: N1_1  and  C1_2 
REMARK    2  A    between atoms: C5_8  and  N4_9 
REMARK       I    between atoms: N4_9  and  C6_10 
REMARK    3  A    between atoms: C6_10  and  C7_12 
ROOT
HETATM    1  C1  UNL     1      27.435   2.027  53.497  1.00  0.00     0.270 C 
HETATM    2  C2  UNL     1      28.933   2.346  53.675  1.00  0.00     0.189 C 
HETATM    3  N2  UNL     1      29.773   1.129  53.982  1.00  0.00    -0.290 NA
HETATM    4  C3  UNL     1      29.170  -0.012  53.951  1.00  0.00     0.050 C 
HETATM    5  C4  UNL     1      28.901  -1.354  53.413  1.00  0.00     0.145 C 
HETATM    6  N3  UNL     1      27.645  -1.575  53.028  1.00  0.00    -0.241 NA
HETATM    7  C5  UNL     1      26.716  -0.509  53.168  1.00  0.00     0.135 C 
HETATM    8  C13 UNL     1      27.207   0.590  53.685  1.00  0.00     0.006 C 
HETATM    9  C14 UNL     1      28.053   0.323  54.977  1.00  0.00     0.100 C 
ENDROOT
BRANCH   7  10
HETATM   10  N4  UNL     1      25.399  -0.130  52.839  1.00  0.00    -0.307 N 
HETATM   11  C6  UNL     1      24.554  -0.581  53.871  1.00  0.00     0.257 C 
HETATM   12  O1  UNL     1      25.077  -1.194  54.835  1.00  0.00    -0.267 OA
HETATM   13  H7  UNL     1      24.932   0.357  52.076  1.00  0.00     0.170 HD
BRANCH  11  14
HETATM   14  C7  UNL     1      23.119  -0.344  53.822  1.00  0.00     0.033 A 
HETATM   15  C8  UNL     1      22.386  -1.334  54.427  1.00  0.00     0.017 A 
HETATM   16  C9  UNL     1      20.996  -1.220  54.444  1.00  0.00     0.002 A 
HETATM   17  C10 UNL     1      20.318  -0.159  53.883  1.00  0.00     0.019 A 
HETATM   18  C11 UNL     1      21.084   0.818  53.285  1.00  0.00     0.011 A 
HETATM   19 BR1  UNL     1      20.295   2.360  52.460  1.00  0.00    -0.051 Br
HETATM   20  C12 UNL     1      22.458   0.720  53.259  1.00  0.00     0.036 A 
ENDBRANCH  11  14
ENDBRANCH   7  10
BRANCH   1  21
HETATM   21  N1  UNL     1      26.940   2.529  52.242  1.00  0.00     0.088 N 
HETATM   22  H1  UNL     1      27.653   2.604  51.503  1.00  0.00     0.313 HD
HETATM   23  H2  UNL     1      26.061   2.075  51.953  1.00  0.00     0.313 HD
ENDBRANCH   1  21
TORSDOF 3
ENDMDL
MODEL 2
REMARK VINA RESULT:      -7.3      4.552      5.811
REMARK  3 active torsions:
REMARK  status: ('A' for Active; 'I' for Inactive)
REMARK    1  A    between atoms: N1_1  and  C1_2 
REMARK    2  A    between atoms: C5_8  and  N4_9 
REMARK       I    between atoms: N4_9  and  C6_10 
REMARK    3  A    between atoms: C6_10  and  C7_12 
ROOT
HETATM    1  C1  UNL     1      24.703   0.512  52.766  1.00  0.00     0.270 C 
HETATM    2  C2  UNL     1      25.103  -0.687  53.650  1.00  0.00     0.189 C 
HETATM    3  N2  UNL     1      26.598  -0.865  53.778  1.00  0.00    -0.290 NA
HETATM    4  C3  UNL     1      27.337   0.046  53.238  1.00  0.00     0.050 C 
HETATM    5  C4  UNL     1      28.298   1.157  53.261  1.00  0.00     0.145 C 
HETATM    6  N3  UNL     1      27.876   2.291  52.703  1.00  0.00    -0.241 NA
HETATM    7  C5  UNL     1      26.563   2.309  52.161  1.00  0.00     0.135 C 
HETATM    8  C13 UNL     1      25.908   1.180  52.259  1.00  0.00     0.006 C 
HETATM    9  C14 UNL     1      26.758  -0.054  51.800  1.00  0.00     0.100 C 
ENDROOT
BRANCH   7  10
HETATM   10  N4  UNL     1      25.597   3.177  51.613  1.00  0.00    -0.307 N 
HETATM   11  C6  UNL     1      26.049   3.570  50.339  1.00  0.00     0.257 C 
HETATM   12  O1  UNL     1      27.148   3.114  49.937  1.00  0.00    -0.267 OA
HETATM   13  H7  UNL     1      24.705   3.575  51.900  1.00  0.00     0.170 HD
BRANCH  11  14
HETATM   14  C7  UNL     1      25.265   4.477  49.512  1.00  0.00     0.033 A 
HETATM   15  C8  UNL     1      24.002   4.011  49.246  1.00  0.00     0.017 A 
HETATM   16  C9  UNL     1      23.154   4.792  48.462  1.00  0.00     0.002 A 
HETATM   17  C10 UNL     1      23.521   6.014  47.939  1.00  0.00     0.019 A 
HETATM   18  C11 UNL     1      24.795   6.452  48.226  1.00  0.00     0.011 A 
HETATM   19 BR1  UNL     1      25.460   8.131  47.576  1.00  0.00    -0.051 Br
HETATM   20  C12 UNL     1      25.645   5.692  48.999  1.00  0.00     0.036 A 
ENDBRANCH  11  14
ENDBRANCH   7  10
BRANCH   1  21
HETATM   21  N1  UNL     1      23.804   1.395  53.461  1.00  0.00     0.088 N 
HETATM   22  H1  UNL     1      23.775   1.257  54.481  1.00  0.00     0.313 HD
HETATM   23  H2  UNL     1      23.901   2.376  53.159  1.00  0.00     0.313 HD
ENDBRANCH   1  21
TORSDOF 3
ENDMDL
MODEL 3
REMARK VINA RESULT:      -7.3      4.264      6.886
REMARK  3 active torsions:
REMARK  status: ('A' for Active; 'I' for Inactive)
REMARK    1  A    between atoms: N1_1  and  C1_2 
REMARK    2  A    between atoms: C5_8  and  N4_9 
REMARK       I    between atoms: N4_9  and  C6_10 
REMARK    3  A    between atoms: C6_10  and  C7_12 
ROOT
HETATM    1  C1  UNL     1      25.153   4.703  49.453  1.00  0.00     0.270 C 
HETATM    2  C2  UNL     1      24.144   5.442  48.550  1.00  0.00     0.189 C 
HETATM    3  N2  UNL     1      22.714   5.002  48.762  1.00  0.00    -0.290 NA
HETATM    4  C3  UNL     1      22.504   4.164  49.722  1.00  0.00     0.050 C 
HETATM    5  C4  UNL     1      21.956   3.748  51.021  1.00  0.00     0.145 C 
HETATM    6  N3  UNL     1      22.852   3.322  51.910  1.00  0.00    -0.241 NA
HETATM    7  C5  UNL     1      24.219   3.321  51.520  1.00  0.00     0.135 C 
HETATM    8  C13 UNL     1      24.446   3.734  50.298  1.00  0.00     0.006 C 
HETATM    9  C14 UNL     1      23.494   3.065  49.248  1.00  0.00     0.100 C 
ENDROOT
BRANCH   7  10
HETATM   10  N4  UNL     1      25.520   3.129  52.025  1.00  0.00    -0.307 N 
HETATM   11  C6  UNL     1      25.687   1.751  52.263  1.00  0.00     0.257 C 
HETATM   12  O1  UNL     1      24.725   0.988  52.003  1.00  0.00    -0.267 OA
HETATM   13  H7  UNL     1      26.323   3.711  52.255  1.00  0.00     0.170 HD
BRANCH  11  14
HETATM   14  C7  UNL     1      26.938   1.229  52.795  1.00  0.00     0.033 A 
HETATM   15  C8  UNL     1      27.721   2.192  53.381  1.00  0.00     0.017 A 
HETATM   16  C9  UNL     1      28.946   1.813  53.927  1.00  0.00     0.002 A 
HETATM   17  C10 UNL     1      29.413   0.516  53.910  1.00  0.00     0.019 A 
HETATM   18  C11 UNL     1      28.602  -0.425  53.315  1.00  0.00     0.011 A 
HETATM   19 BR1  UNL     1      29.105  -2.274  53.209  1.00  0.00    -0.051 Br
HETATM   20  C12 UNL     1      27.389  -0.068  52.770  1.00  0.00     0.036 A 
ENDBRANCH  11  14
ENDBRANCH   7  10
BRANCH   1  21
HETATM   21  N1  UNL     1      25.965   5.631  50.196  1.00  0.00     0.088 N 
HETATM   22  H1  UNL     1      25.653   6.610  50.139  1.00  0.00     0.313 HD
HETATM   23  H2  UNL     1      26.177   5.296  51.147  1.00  0.00     0.313 HD
ENDBRANCH   1  21
TORSDOF 3
ENDMDL
MODEL 4
REMARK VINA RESULT:      -6.9      3.748      5.187
REMARK  3 active torsions:
REMARK  status: ('A' for Active; 'I' for Inactive)
REMARK    1  A    between atoms: N1_1  and  C1_2 
REMARK    2  A    between atoms: C5_8  and  N4_9 
REMARK       I    between atoms: N4_9  and  C6_10 
REMARK    3  A    between atoms: C6_10  and  C7_12 
ROOT
HETATM    1  C1  UNL     1      26.016   3.139  50.364  1.00  0.00     0.270 C 
HETATM    2  C2  UNL     1      26.862   4.106  49.512  1.00  0.00     0.189 C 
HETATM    3  N2  UNL     1      26.187   5.435  49.263  1.00  0.00    -0.290 NA
HETATM    4  C3  UNL     1      25.063   5.634  49.868  1.00  0.00     0.050 C 
HETATM    5  C4  UNL     1      24.180   6.301  50.836  1.00  0.00     0.145 C 
HETATM    6  N3  UNL     1      23.616   5.502  51.741  1.00  0.00    -0.241 NA
HETATM    7  C5  UNL     1      23.927   4.116  51.682  1.00  0.00     0.135 C 
HETATM    8  C13 UNL     1      24.739   3.772  50.713  1.00  0.00     0.006 C 
HETATM    9  C14 UNL     1      24.321   4.380  49.330  1.00  0.00     0.100 C 
ENDROOT
BRANCH   7  10
HETATM   10  N4  UNL     1      23.761   2.908  52.386  1.00  0.00    -0.307 N 
HETATM   11  C6  UNL     1      22.449   2.453  52.153  1.00  0.00     0.257 C 
HETATM   12  O1  UNL     1      21.708   3.147  51.412  1.00  0.00    -0.267 OA
HETATM   13  H7  UNL     1      24.323   2.318  52.996  1.00  0.00     0.170 HD
BRANCH  11  14
HETATM   14  C7  UNL     1      21.966   1.218  52.752  1.00  0.00     0.033 A 
HETATM   15  C8  UNL     1      22.947   0.512  53.402  1.00  0.00     0.017 A 
HETATM   16  C9  UNL     1      22.606  -0.692  54.017  1.00  0.00     0.002 A 
HETATM   17  C10 UNL     1      21.329  -1.212  54.006  1.00  0.00     0.019 A 
HETATM   18  C11 UNL     1      20.368  -0.478  53.345  1.00  0.00     0.011 A 
HETATM   19 BR1  UNL     1      18.543  -1.062  53.238  1.00  0.00    -0.051 Br
HETATM   20  C12 UNL     1      20.688   0.713  52.732  1.00  0.00     0.036 A 
ENDBRANCH  11  14
ENDBRANCH   7  10
BRANCH   1  21
HETATM   21  N1  UNL     1      26.755   2.665  51.504  1.00  0.00     0.088 N 
HETATM   22  H1  UNL     1      27.470   3.320  51.849  1.00  0.00     0.313 HD
HETATM   23  H2  UNL     1      26.145   2.263  52.231  1.00  0.00     0.313 HD
ENDBRANCH   1  21
TORSDOF 3
ENDMDL
MODEL 5
REMARK VINA RESULT:      -6.9      3.058      3.668
REMARK  3 active torsions:
REMARK  status: ('A' for Active; 'I' for Inactive)
REMARK    1  A    between atoms: N1_1  and  C1_2 
REMARK    2  A    between atoms: C5_8  and  N4_9 
REMARK       I    between atoms: N4_9  and  C6_10 
REMARK    3  A    between atoms: C6_10  and  C7_12 
ROOT
HETATM    1  C1  UNL     1      28.145   1.985  53.999  1.00  0.00     0.270 C 
HETATM    2  C2  UNL     1      29.228   1.056  54.585  1.00  0.00     0.189 C 
HETATM    3  N2  UNL     1      28.899  -0.412  54.446  1.00  0.00    -0.290 NA
HETATM    4  C3  UNL     1      27.835  -0.705  53.777  1.00  0.00     0.050 C 
HETATM    5  C4  UNL     1      27.101  -1.279  52.640  1.00  0.00     0.145 C 
HETATM    6  N3  UNL     1      26.330  -0.426  51.967  1.00  0.00    -0.241 NA
HETATM    7  C5  UNL     1      26.303   0.925  52.406  1.00  0.00     0.135 C 
HETATM    8  C13 UNL     1      27.044   1.181  53.455  1.00  0.00     0.006 C 
HETATM    9  C14 UNL     1      26.835   0.144  54.610  1.00  0.00     0.100 C 
ENDROOT
BRANCH   7  10
HETATM   10  N4  UNL     1      25.827   2.202  52.048  1.00  0.00    -0.307 N 
HETATM   11  C6  UNL     1      24.436   2.216  52.263  1.00  0.00     0.257 C 
HETATM   12  O1  UNL     1      23.898   1.171  52.707  1.00  0.00    -0.267 OA
HETATM   13  H7  UNL     1      26.220   3.068  51.683  1.00  0.00     0.170 HD
BRANCH  11  14
HETATM   14  C7  UNL     1      23.646   3.406  51.982  1.00  0.00     0.033 A 
HETATM   15  C8  UNL     1      22.298   3.214  52.155  1.00  0.00     0.017 A 
HETATM   16  C9  UNL     1      21.435   4.283  51.915  1.00  0.00     0.002 A 
HETATM   17  C10 UNL     1      21.869   5.528  51.511  1.00  0.00     0.019 A 
HETATM   18  C11 UNL     1      23.227   5.686  51.347  1.00  0.00     0.011 A 
HETATM   19 BR1  UNL     1      23.993   7.356  50.791  1.00  0.00    -0.051 Br
HETATM   20  C12 UNL     1      24.093   4.641  51.580  1.00  0.00     0.036 A 
ENDBRANCH  11  14
ENDBRANCH   7  10
BRANCH   1  21
HETATM   21  N1  UNL     1      28.707   2.910  53.051  1.00  0.00     0.088 N 
HETATM   22  H1  UNL     1      28.915   2.501  52.130  1.00  0.00     0.313 HD
HETATM   23  H2  UNL     1      28.200   3.806  53.025  1.00  0.00     0.313 HD
ENDBRANCH   1  21
TORSDOF 3
ENDMDL
MODEL 6
REMARK VINA RESULT:      -6.9      5.378      7.916
REMARK  3 active torsions:
REMARK  status: ('A' for Active; 'I' for Inactive)
REMARK    1  A    between atoms: N1_1  and  C1_2 
REMARK    2  A    between atoms: C5_8  and  N4_9 
REMARK       I    between atoms: N4_9  and  C6_10 
REMARK    3  A    between atoms: C6_10  and  C7_12 
ROOT
HETATM    1  C1  UNL     1      22.638   4.000  51.559  1.00  0.00     0.270 C 
HETATM    2  C2  UNL     1      21.675   3.073  52.327  1.00  0.00     0.189 C 
HETATM    3  N2  UNL     1      22.200   1.666  52.492  1.00  0.00    -0.290 NA
HETATM    4  C3  UNL     1      23.404   1.447  52.079  1.00  0.00     0.050 C 
HETATM    5  C4  UNL     1      24.825   1.115  52.255  1.00  0.00     0.145 C 
HETATM    6  N3  UNL     1      25.685   2.027  51.804  1.00  0.00    -0.241 NA
HETATM    7  C5  UNL     1      25.150   3.205  51.217  1.00  0.00     0.135 C 
HETATM    8  C13 UNL     1      23.841   3.255  51.171  1.00  0.00     0.006 C 
HETATM    9  C14 UNL     1      23.205   1.934  50.617  1.00  0.00     0.100 C 
ENDROOT
BRANCH   7  10
HETATM   10  N4  UNL     1      25.521   4.473  50.728  1.00  0.00    -0.307 N 
HETATM   11  C6  UNL     1      26.345   4.273  49.603  1.00  0.00     0.257 C 
HETATM   12  O1  UNL     1      26.586   3.091  49.253  1.00  0.00    -0.267 OA
HETATM   13  H7  UNL     1      25.357   5.446  50.978  1.00  0.00     0.170 HD
BRANCH  11  14
HETATM   14  C7  UNL     1      26.898   5.401  48.869  1.00  0.00     0.033 A 
HETATM   15  C8  UNL     1      28.217   5.230  48.528  1.00  0.00     0.017 A 
HETATM   16  C9  UNL     1      28.860   6.245  47.821  1.00  0.00     0.002 A 
HETATM   17  C10 UNL     1      28.237   7.416  47.445  1.00  0.00     0.019 A 
HETATM   18  C11 UNL     1      26.914   7.555  47.802  1.00  0.00     0.011 A 
HETATM   19 BR1  UNL     1      25.902   9.123  47.353  1.00  0.00    -0.051 Br
HETATM   20  C12 UNL     1      26.263   6.562  48.500  1.00  0.00     0.036 A 
ENDBRANCH  11  14
ENDBRANCH   7  10
BRANCH   1  21
HETATM   21  N1  UNL     1      22.918   5.196  52.309  1.00  0.00     0.088 N 
HETATM   22  H1  UNL     1      23.919   5.413  52.407  1.00  0.00     0.313 HD
HETATM   23  H2  UNL     1      22.327   5.990  52.022  1.00  0.00     0.313 HD
ENDBRANCH   1  21
TORSDOF 3
ENDMDL
MODEL 7
REMARK VINA RESULT:      -6.8      4.614      7.041
REMARK  3 active torsions:
REMARK  status: ('A' for Active; 'I' for Inactive)
REMARK    1  A    between atoms: N1_1  and  C1_2 
REMARK    2  A    between atoms: C5_8  and  N4_9 
REMARK       I    between atoms: N4_9  and  C6_10 
REMARK    3  A    between atoms: C6_10  and  C7_12 
ROOT
HETATM    1  C1  UNL     1      23.829   6.181  51.134  1.00  0.00     0.270 C 
HETATM    2  C2  UNL     1      22.812   7.231  50.643  1.00  0.00     0.189 C 
HETATM    3  N2  UNL     1      21.435   6.662  50.391  1.00  0.00    -0.290 NA
HETATM    4  C3  UNL     1      21.254   5.425  50.712  1.00  0.00     0.050 C 
HETATM    5  C4  UNL     1      20.658   4.334  51.498  1.00  0.00     0.145 C 
HETATM    6  N3  UNL     1      21.526   3.546  52.131  1.00  0.00    -0.241 NA
HETATM    7  C5  UNL     1      22.909   3.840  51.989  1.00  0.00     0.135 C 
HETATM    8  C13 UNL     1      23.181   4.867  51.223  1.00  0.00     0.006 C 
HETATM    9  C14 UNL     1      22.407   4.826  49.861  1.00  0.00     0.100 C 
ENDROOT
BRANCH   7  10
HETATM   10  N4  UNL     1      24.179   3.481  52.482  1.00  0.00    -0.307 N 
HETATM   11  C6  UNL     1      24.420   2.144  52.110  1.00  0.00     0.257 C 
HETATM   12  O1  UNL     1      23.533   1.547  51.451  1.00  0.00    -0.267 OA
HETATM   13  H7  UNL     1      24.922   3.924  53.019  1.00  0.00     0.170 HD
BRANCH  11  14
HETATM   14  C7  UNL     1      25.660   1.476  52.478  1.00  0.00     0.033 A 
HETATM   15  C8  UNL     1      25.667   0.140  52.165  1.00  0.00     0.017 A 
HETATM   16  C9  UNL     1      26.803  -0.611  52.469  1.00  0.00     0.002 A 
HETATM   17  C10 UNL     1      27.923  -0.077  53.070  1.00  0.00     0.019 A 
HETATM   18  C11 UNL     1      27.882   1.268  53.370  1.00  0.00     0.011 A 
HETATM   19 BR1  UNL     1      29.359   2.164  54.206  1.00  0.00    -0.051 Br
HETATM   20  C12 UNL     1      26.768   2.023  53.076  1.00  0.00     0.036 A 
ENDBRANCH  11  14
ENDBRANCH   7  10
BRANCH   1  21
HETATM   21  N1  UNL     1      24.457   6.597  52.360  1.00  0.00     0.088 N 
HETATM   22  H1  UNL     1      25.245   6.004  52.657  1.00  0.00     0.313 HD
HETATM   23  H2  UNL     1      24.643   7.610  52.385  1.00  0.00     0.313 HD
ENDBRANCH   1  21
TORSDOF 3
ENDMDL
MODEL 8
REMARK VINA RESULT:      -6.8      5.238      7.594
REMARK  3 active torsions:
REMARK  status: ('A' for Active; 'I' for Inactive)
REMARK    1  A    between atoms: N1_1  and  C1_2 
REMARK    2  A    between atoms: C5_8  and  N4_9 
REMARK       I    between atoms: N4_9  and  C6_10 
REMARK    3  A    between atoms: C6_10  and  C7_12 
ROOT
HETATM    1  C1  UNL     1      25.808   1.594  52.429  1.00  0.00     0.270 C 
HETATM    2  C2  UNL     1      25.096   0.620  53.390  1.00  0.00     0.189 C 
HETATM    3  N2  UNL     1      23.590   0.652  53.269  1.00  0.00    -0.290 NA
HETATM    4  C3  UNL     1      23.101   1.388  52.327  1.00  0.00     0.050 C 
HETATM    5  C4  UNL     1      22.383   1.623  51.067  1.00  0.00     0.145 C 
HETATM    6  N3  UNL     1      23.073   2.265  50.125  1.00  0.00    -0.241 NA
HETATM    7  C5  UNL     1      24.409   2.643  50.430  1.00  0.00     0.135 C 
HETATM    8  C13 UNL     1      24.813   2.323  51.634  1.00  0.00     0.006 C 
HETATM    9  C14 UNL     1      23.781   2.722  52.744  1.00  0.00     0.100 C 
ENDROOT
BRANCH   7  10
HETATM   10  N4  UNL     1      25.576   3.175  49.846  1.00  0.00    -0.307 N 
HETATM   11  C6  UNL     1      25.327   4.530  49.553  1.00  0.00     0.257 C 
HETATM   12  O1  UNL     1      24.197   4.997  49.842  1.00  0.00    -0.267 OA
HETATM   13  H7  UNL     1      26.501   2.837  49.590  1.00  0.00     0.170 HD
BRANCH  11  14
HETATM   14  C7  UNL     1      26.348   5.363  48.935  1.00  0.00     0.033 A 
HETATM   15  C8  UNL     1      27.565   4.737  48.828  1.00  0.00     0.017 A 
HETATM   16  C9  UNL     1      28.626   5.435  48.252  1.00  0.00     0.002 A 
HETATM   17  C10 UNL     1      28.514   6.726  47.780  1.00  0.00     0.019 A 
HETATM   18  C11 UNL     1      27.279   7.323  47.901  1.00  0.00     0.011 A 
HETATM   19 BR1  UNL     1      26.957   9.115  47.293  1.00  0.00    -0.051 Br
HETATM   20  C12 UNL     1      26.221   6.648  48.469  1.00  0.00     0.036 A 
ENDBRANCH  11  14
ENDBRANCH   7  10
BRANCH   1  21
HETATM   21  N1  UNL     1      26.795   0.913  51.634  1.00  0.00     0.088 N 
HETATM   22  H1  UNL     1      26.454   0.588  50.719  1.00  0.00     0.313 HD
HETATM   23  H2  UNL     1      27.696   1.413  51.610  1.00  0.00     0.313 HD
ENDBRANCH   1  21
TORSDOF 3
ENDMDL
MODEL 9
REMARK VINA RESULT:      -6.8      3.453      7.001
REMARK  3 active torsions:
REMARK  status: ('A' for Active; 'I' for Inactive)
REMARK    1  A    between atoms: N1_1  and  C1_2 
REMARK    2  A    between atoms: C5_8  and  N4_9 
REMARK       I    between atoms: N4_9  and  C6_10 
REMARK    3  A    between atoms: C6_10  and  C7_12 
ROOT
HETATM    1  C1  UNL     1      21.720   0.638  53.149  1.00  0.00     0.270 C 
HETATM    2  C2  UNL     1      20.219   0.889  52.898  1.00  0.00     0.189 C 
HETATM    3  N2  UNL     1      19.955   1.908  51.814  1.00  0.00    -0.290 NA
HETATM    4  C3  UNL     1      20.985   2.350  51.173  1.00  0.00     0.050 C 
HETATM    5  C4  UNL     1      21.831   2.523  49.983  1.00  0.00     0.145 C 
HETATM    6  N3  UNL     1      23.085   2.089  50.105  1.00  0.00    -0.241 NA
HETATM    7  C5  UNL     1      23.464   1.510  51.346  1.00  0.00     0.135 C 
HETATM    8  C13 UNL     1      22.521   1.481  52.254  1.00  0.00     0.006 C 
HETATM    9  C14 UNL     1      21.785   2.856  52.405  1.00  0.00     0.100 C 
ENDROOT
BRANCH   7  10
HETATM   10  N4  UNL     1      24.515   0.811  51.973  1.00  0.00    -0.307 N 
HETATM   11  C6  UNL     1      25.618   1.683  52.056  1.00  0.00     0.257 C 
HETATM   12  O1  UNL     1      25.487   2.844  51.596  1.00  0.00    -0.267 OA
HETATM   13  H7  UNL     1      24.668  -0.121  52.353  1.00  0.00     0.170 HD
BRANCH  11  14
HETATM   14  C7  UNL     1      26.871   1.251  52.657  1.00  0.00     0.033 A 
HETATM   15  C8  UNL     1      27.574   2.276  53.239  1.00  0.00     0.017 A 
HETATM   16  C9  UNL     1      28.794   1.986  53.849  1.00  0.00     0.002 A 
HETATM   17  C10 UNL     1      29.332   0.718  53.899  1.00  0.00     0.019 A 
HETATM   18  C11 UNL     1      28.601  -0.288  53.306  1.00  0.00     0.011 A 
HETATM   19 BR1  UNL     1      29.209  -2.108  53.289  1.00  0.00    -0.051 Br
HETATM   20  C12 UNL     1      27.394  -0.019  52.698  1.00  0.00     0.036 A 
ENDBRANCH  11  14
ENDBRANCH   7  10
BRANCH   1  21
HETATM   21  N1  UNL     1      22.036  -0.763  53.058  1.00  0.00     0.088 N 
HETATM   22  H1  UNL     1      23.019  -0.963  52.832  1.00  0.00     0.313 HD
HETATM   23  H2  UNL     1      21.651  -1.307  53.845  1.00  0.00     0.313 HD
ENDBRANCH   1  21
TORSDOF 3
ENDMDL
