MODEL 1
REMARK VINA RESULT:      -8.9      0.000      0.000
REMARK  3 active torsions:
REMARK  status: ('A' for Active; 'I' for Inactive)
REMARK    1  A    between atoms: C5_7  and  C6_8 
REMARK    2  A    between atoms: C6_8  and  C7_9 
REMARK    3  A    between atoms: C7_9  and  C8_11 
ROOT
HETATM    1  O1  UNL     1      18.606   2.129  51.917  1.00  0.00    -0.265 OA
HETATM    2  C1  UNL     1      19.150   1.595  50.882  1.00  0.00     0.263 C 
HETATM    3  O2  UNL     1      18.807   0.264  50.509  1.00  0.00    -0.321 OA
HETATM    4  C2  UNL     1      17.879  -0.403  51.435  1.00  0.00     0.184 C 
HETATM    5  C3  UNL     1      18.723  -0.516  52.734  1.00  0.00     0.023 C 
HETATM    6  C4  UNL     1      20.019  -0.120  52.963  1.00  0.00     0.021 C 
HETATM    7  C5  UNL     1      21.420   0.392  52.946  1.00  0.00     0.091 C 
HETATM    8  N1  UNL     1      21.758   1.413  52.043  1.00  0.00    -0.407 N 
HETATM    9  C17 UNL     1      22.192   1.110  50.744  1.00  0.00     0.118 C 
HETATM   10  C18 UNL     1      21.210   1.410  49.626  1.00  0.00     0.034 C 
HETATM   11  C19 UNL     1      20.142   2.376  50.100  1.00  0.00     0.088 C 
HETATM   12  C20 UNL     1      20.737   3.372  51.079  1.00  0.00     0.034 C 
HETATM   13  C21 UNL     1      21.340   2.731  52.274  1.00  0.00     0.118 C 
ENDROOT
BRANCH   7  14
HETATM   14  C6  UNL     1      22.353  -0.798  52.890  1.00  0.00     0.106 C 
BRANCH  14  15
HETATM   15  C7  UNL     1      23.332  -0.726  53.982  1.00  0.00     0.161 C 
HETATM   16  O3  UNL     1      22.972  -1.059  55.124  1.00  0.00    -0.295 OA
BRANCH  15  17
HETATM   17  C8  UNL     1      24.740  -0.324  54.057  1.00  0.00     0.213 C 
HETATM   18  C9  UNL     1      25.487  -0.862  52.857  1.00  0.00     0.010 C 
HETATM   19  C10 UNL     1      26.763  -0.504  52.944  1.00  0.00    -0.008 C 
HETATM   20  C11 UNL     1      27.293   0.315  54.098  1.00  0.00     0.034 A 
HETATM   21  C12 UNL     1      28.756   0.183  54.209  1.00  0.00    -0.007 A 
HETATM   22  C15 UNL     1      27.138   1.736  53.647  1.00  0.00    -0.007 A 
HETATM   23  C16 UNL     1      26.549  -0.001  55.346  1.00  0.00     0.190 C 
HETATM   24  C13 UNL     1      29.366   1.334  53.879  1.00  0.00    -0.003 A 
HETATM   25  C14 UNL     1      28.320   2.318  53.522  1.00  0.00    -0.003 A 
HETATM   26  O4  UNL     1      25.428  -0.817  55.163  1.00  0.00    -0.373 OA
ENDBRANCH  15  17
ENDBRANCH  14  15
ENDBRANCH   7  14
TORSDOF 3
ENDMDL
MODEL 2
REMARK VINA RESULT:      -8.6      3.519      4.826
REMARK  3 active torsions:
REMARK  status: ('A' for Active; 'I' for Inactive)
REMARK    1  A    between atoms: C5_7  and  C6_8 
REMARK    2  A    between atoms: C6_8  and  C7_9 
REMARK    3  A    between atoms: C7_9  and  C8_11 
ROOT
HETATM    1  O1  UNL     1      23.534   5.310  48.056  1.00  0.00    -0.265 OA
HETATM    2  C1  UNL     1      23.388   6.199  48.974  1.00  0.00     0.263 C 
HETATM    3  O2  UNL     1      24.535   6.767  49.597  1.00  0.00    -0.321 OA
HETATM    4  C2  UNL     1      25.814   6.195  49.149  1.00  0.00     0.184 C 
HETATM    5  C3  UNL     1      25.722   4.729  49.654  1.00  0.00     0.023 C 
HETATM    6  C4  UNL     1      24.716   4.118  50.365  1.00  0.00     0.021 C 
HETATM    7  C5  UNL     1      23.501   3.704  51.125  1.00  0.00     0.091 C 
HETATM    8  N1  UNL     1      22.294   4.385  50.897  1.00  0.00    -0.407 N 
HETATM    9  C17 UNL     1      21.969   5.536  51.630  1.00  0.00     0.118 C 
HETATM   10  C18 UNL     1      22.039   6.850  50.873  1.00  0.00     0.034 C 
HETATM   11  C19 UNL     1      22.018   6.605  49.378  1.00  0.00     0.088 C 
HETATM   12  C20 UNL     1      21.130   5.417  49.056  1.00  0.00     0.034 C 
HETATM   13  C21 UNL     1      21.565   4.163  49.721  1.00  0.00     0.118 C 
ENDROOT
BRANCH   7  14
HETATM   14  C6  UNL     1      23.874   3.606  52.587  1.00  0.00     0.106 C 
BRANCH  14  15
HETATM   15  C7  UNL     1      24.102   2.204  52.959  1.00  0.00     0.161 C 
HETATM   16  O3  UNL     1      23.117   1.482  53.186  1.00  0.00    -0.295 OA
BRANCH  15  17
HETATM   17  C8  UNL     1      25.305   1.386  53.142  1.00  0.00     0.213 C 
HETATM   18  C9  UNL     1      25.797   0.898  51.797  1.00  0.00     0.010 C 
HETATM   19  C10 UNL     1      26.878   0.147  51.977  1.00  0.00    -0.008 C 
HETATM   20  C11 UNL     1      27.454  -0.120  53.348  1.00  0.00     0.034 A 
HETATM   21  C12 UNL     1      28.324  -1.309  53.332  1.00  0.00    -0.007 A 
HETATM   22  C15 UNL     1      28.441   0.989  53.559  1.00  0.00    -0.007 A 
HETATM   23  C16 UNL     1      26.373  -0.161  54.369  1.00  0.00     0.190 C 
HETATM   24  C13 UNL     1      29.610  -0.962  53.504  1.00  0.00    -0.003 A 
HETATM   25  C14 UNL     1      29.670   0.509  53.648  1.00  0.00    -0.003 A 
HETATM   26  O4  UNL     1      25.116   0.233  53.899  1.00  0.00    -0.373 OA
ENDBRANCH  15  17
ENDBRANCH  14  15
ENDBRANCH   7  14
TORSDOF 3
ENDMDL
MODEL 3
REMARK VINA RESULT:      -8.5      2.015      3.375
REMARK  3 active torsions:
REMARK  status: ('A' for Active; 'I' for Inactive)
REMARK    1  A    between atoms: C5_7  and  C6_8 
REMARK    2  A    between atoms: C6_8  and  C7_9 
REMARK    3  A    between atoms: C7_9  and  C8_11 
ROOT
HETATM    1  O1  UNL     1      21.419   2.678  48.441  1.00  0.00    -0.265 OA
HETATM    2  C1  UNL     1      21.095   3.507  49.369  1.00  0.00     0.263 C 
HETATM    3  O2  UNL     1      22.051   4.453  49.839  1.00  0.00    -0.321 OA
HETATM    4  C2  UNL     1      23.383   4.320  49.230  1.00  0.00     0.184 C 
HETATM    5  C3  UNL     1      23.851   2.931  49.745  1.00  0.00     0.023 C 
HETATM    6  C4  UNL     1      23.202   2.052  50.580  1.00  0.00     0.021 C 
HETATM    7  C5  UNL     1      22.298   1.291  51.491  1.00  0.00     0.091 C 
HETATM    8  N1  UNL     1      20.915   1.521  51.419  1.00  0.00    -0.407 N 
HETATM    9  C17 UNL     1      20.313   2.530  52.186  1.00  0.00     0.118 C 
HETATM   10  C18 UNL     1      19.844   3.756  51.425  1.00  0.00     0.034 C 
HETATM   11  C19 UNL     1      19.728   3.452  49.944  1.00  0.00     0.088 C 
HETATM   12  C20 UNL     1      19.259   2.023  49.741  1.00  0.00     0.034 C 
HETATM   13  C21 UNL     1      20.166   1.016  50.347  1.00  0.00     0.118 C 
ENDROOT
BRANCH   7  14
HETATM   14  C6  UNL     1      22.855   1.388  52.894  1.00  0.00     0.106 C 
BRANCH  14  15
HETATM   15  C7  UNL     1      23.797   0.289  53.142  1.00  0.00     0.161 C 
HETATM   16  O3  UNL     1      23.341  -0.847  53.350  1.00  0.00    -0.295 OA
BRANCH  15  17
HETATM   17  C8  UNL     1      25.259   0.202  53.209  1.00  0.00     0.213 C 
HETATM   18  C9  UNL     1      25.697   0.124  54.654  1.00  0.00     0.010 C 
HETATM   19  C10 UNL     1      27.023   0.060  54.703  1.00  0.00    -0.008 C 
HETATM   20  C11 UNL     1      27.876   0.068  53.456  1.00  0.00     0.034 A 
HETATM   21  C12 UNL     1      29.264   0.453  53.768  1.00  0.00    -0.007 A 
HETATM   22  C15 UNL     1      28.025  -1.381  53.098  1.00  0.00    -0.007 A 
HETATM   23  C16 UNL     1      27.235   0.884  52.391  1.00  0.00     0.190 C 
HETATM   24  C13 UNL     1      30.094  -0.593  53.621  1.00  0.00    -0.003 A 
HETATM   25  C14 UNL     1      29.289  -1.758  53.192  1.00  0.00    -0.003 A 
HETATM   26  O4  UNL     1      25.933   1.302  52.684  1.00  0.00    -0.373 OA
ENDBRANCH  15  17
ENDBRANCH  14  15
ENDBRANCH   7  14
TORSDOF 3
ENDMDL
MODEL 4
REMARK VINA RESULT:      -8.5      2.242      3.036
REMARK  3 active torsions:
REMARK  status: ('A' for Active; 'I' for Inactive)
REMARK    1  A    between atoms: C5_7  and  C6_8 
REMARK    2  A    between atoms: C6_8  and  C7_9 
REMARK    3  A    between atoms: C7_9  and  C8_11 
ROOT
HETATM    1  O1  UNL     1      21.329   5.404  51.541  1.00  0.00    -0.265 OA
HETATM    2  C1  UNL     1      21.604   4.810  50.434  1.00  0.00     0.263 C 
HETATM    3  O2  UNL     1      20.658   3.916  49.856  1.00  0.00    -0.321 OA
HETATM    4  C2  UNL     1      19.447   3.711  50.664  1.00  0.00     0.184 C 
HETATM    5  C3  UNL     1      20.004   3.002  51.929  1.00  0.00     0.023 C 
HETATM    6  C4  UNL     1      21.296   2.632  52.218  1.00  0.00     0.021 C 
HETATM    7  C5  UNL     1      22.757   2.337  52.282  1.00  0.00     0.091 C 
HETATM    8  N1  UNL     1      23.643   3.145  51.552  1.00  0.00    -0.407 N 
HETATM    9  C17 UNL     1      23.965   2.839  50.221  1.00  0.00     0.118 C 
HETATM   10  C18 UNL     1      23.372   3.753  49.165  1.00  0.00     0.034 C 
HETATM   11  C19 UNL     1      22.916   5.059  49.785  1.00  0.00     0.088 C 
HETATM   12  C20 UNL     1      23.855   5.458  50.908  1.00  0.00     0.034 C 
HETATM   13  C21 UNL     1      23.944   4.443  51.988  1.00  0.00     0.118 C 
ENDROOT
BRANCH   7  14
HETATM   14  C6  UNL     1      22.948   0.857  52.039  1.00  0.00     0.106 C 
BRANCH  14  15
HETATM   15  C7  UNL     1      23.838   0.287  53.058  1.00  0.00     0.161 C 
HETATM   16  O3  UNL     1      23.332  -0.195  54.085  1.00  0.00    -0.295 OA
BRANCH  15  17
HETATM   17  C8  UNL     1      25.293   0.138  53.166  1.00  0.00     0.213 C 
HETATM   18  C9  UNL     1      25.684   0.009  54.621  1.00  0.00     0.010 C 
HETATM   19  C10 UNL     1      27.004  -0.111  54.707  1.00  0.00    -0.008 C 
HETATM   20  C11 UNL     1      27.894  -0.109  53.486  1.00  0.00     0.034 A 
HETATM   21  C12 UNL     1      29.286   0.212  53.848  1.00  0.00    -0.007 A 
HETATM   22  C15 UNL     1      27.995  -1.554  53.097  1.00  0.00    -0.007 A 
HETATM   23  C16 UNL     1      27.318   0.758  52.423  1.00  0.00     0.190 C 
HETATM   24  C13 UNL     1      30.078  -0.863  53.699  1.00  0.00    -0.003 A 
HETATM   25  C14 UNL     1      29.239  -1.984  53.219  1.00  0.00    -0.003 A 
HETATM   26  O4  UNL     1      26.026   1.222  52.688  1.00  0.00    -0.373 OA
ENDBRANCH  15  17
ENDBRANCH  14  15
ENDBRANCH   7  14
TORSDOF 3
ENDMDL
MODEL 5
REMARK VINA RESULT:      -8.2      2.322      3.245
REMARK  3 active torsions:
REMARK  status: ('A' for Active; 'I' for Inactive)
REMARK    1  A    between atoms: C5_7  and  C6_8 
REMARK    2  A    between atoms: C6_8  and  C7_9 
REMARK    3  A    between atoms: C7_9  and  C8_11 
ROOT
HETATM    1  O1  UNL     1      19.820   2.861  48.652  1.00  0.00    -0.265 OA
HETATM    2  C1  UNL     1      20.602   3.881  48.675  1.00  0.00     0.263 C 
HETATM    3  O2  UNL     1      21.926   3.770  48.163  1.00  0.00    -0.321 OA
HETATM    4  C2  UNL     1      22.288   2.419  47.708  1.00  0.00     0.184 C 
HETATM    5  C3  UNL     1      22.259   1.601  49.028  1.00  0.00     0.023 C 
HETATM    6  C4  UNL     1      21.990   2.028  50.307  1.00  0.00     0.021 C 
HETATM    7  C5  UNL     1      21.669   2.742  51.578  1.00  0.00     0.091 C 
HETATM    8  N1  UNL     1      20.885   3.905  51.521  1.00  0.00    -0.407 N 
HETATM    9  C17 UNL     1      21.478   5.164  51.339  1.00  0.00     0.118 C 
HETATM   10  C18 UNL     1      21.273   5.806  49.978  1.00  0.00     0.034 C 
HETATM   11  C19 UNL     1      20.111   5.158  49.253  1.00  0.00     0.088 C 
HETATM   12  C20 UNL     1      19.030   4.765  50.244  1.00  0.00     0.034 C 
HETATM   13  C21 UNL     1      19.506   3.821  51.286  1.00  0.00     0.118 C 
ENDROOT
BRANCH   7  14
HETATM   14  C6  UNL     1      22.954   2.916  52.356  1.00  0.00     0.106 C 
BRANCH  14  15
HETATM   15  C7  UNL     1      23.355   1.641  52.964  1.00  0.00     0.161 C 
HETATM   16  O3  UNL     1      22.477   0.927  53.478  1.00  0.00    -0.295 OA
BRANCH  15  17
HETATM   17  C8  UNL     1      24.639   0.953  53.125  1.00  0.00     0.213 C 
HETATM   18  C9  UNL     1      25.517   1.229  51.924  1.00  0.00     0.010 C 
HETATM   19  C10 UNL     1      26.672   0.589  52.074  1.00  0.00    -0.008 C 
HETATM   20  C11 UNL     1      26.972  -0.257  53.290  1.00  0.00     0.034 A 
HETATM   21  C12 UNL     1      28.069  -1.201  53.017  1.00  0.00    -0.007 A 
HETATM   22  C15 UNL     1      27.609   0.696  54.257  1.00  0.00    -0.007 A 
HETATM   23  C16 UNL     1      25.728  -0.889  53.804  1.00  0.00     0.190 C 
HETATM   24  C13 UNL     1      29.172  -0.864  53.707  1.00  0.00    -0.003 A 
HETATM   25  C14 UNL     1      28.863   0.350  54.495  1.00  0.00    -0.003 A 
HETATM   26  O4  UNL     1      24.552  -0.435  53.198  1.00  0.00    -0.373 OA
ENDBRANCH  15  17
ENDBRANCH  14  15
ENDBRANCH   7  14
TORSDOF 3
ENDMDL
MODEL 6
REMARK VINA RESULT:      -8.2      2.384      3.059
REMARK  3 active torsions:
REMARK  status: ('A' for Active; 'I' for Inactive)
REMARK    1  A    between atoms: C5_7  and  C6_8 
REMARK    2  A    between atoms: C6_8  and  C7_9 
REMARK    3  A    between atoms: C7_9  and  C8_11 
ROOT
HETATM    1  O1  UNL     1      20.480   5.456  49.873  1.00  0.00    -0.265 OA
HETATM    2  C1  UNL     1      20.764   4.380  49.229  1.00  0.00     0.263 C 
HETATM    3  O2  UNL     1      19.949   3.223  49.387  1.00  0.00    -0.321 OA
HETATM    4  C2  UNL     1      18.864   3.377  50.368  1.00  0.00     0.184 C 
HETATM    5  C3  UNL     1      19.640   3.552  51.702  1.00  0.00     0.023 C 
HETATM    6  C4  UNL     1      20.997   3.540  51.924  1.00  0.00     0.021 C 
HETATM    7  C5  UNL     1      22.488   3.484  51.891  1.00  0.00     0.091 C 
HETATM    8  N1  UNL     1      23.153   3.838  50.706  1.00  0.00    -0.407 N 
HETATM    9  C17 UNL     1      23.414   2.879  49.715  1.00  0.00     0.118 C 
HETATM   10  C18 UNL     1      22.582   2.986  48.449  1.00  0.00     0.034 C 
HETATM   11  C19 UNL     1      21.953   4.361  48.340  1.00  0.00     0.088 C 
HETATM   12  C20 UNL     1      22.895   5.412  48.899  1.00  0.00     0.034 C 
HETATM   13  C21 UNL     1      23.252   5.182  50.321  1.00  0.00     0.118 C 
ENDROOT
BRANCH   7  14
HETATM   14  C6  UNL     1      22.919   2.147  52.451  1.00  0.00     0.106 C 
BRANCH  14  15
HETATM   15  C7  UNL     1      24.245   2.261  53.071  1.00  0.00     0.161 C 
HETATM   16  O3  UNL     1      24.545   3.326  53.637  1.00  0.00    -0.295 OA
BRANCH  15  17
HETATM   17  C8  UNL     1      25.389   1.353  53.193  1.00  0.00     0.213 C 
HETATM   18  C9  UNL     1      25.854   0.934  51.815  1.00  0.00     0.010 C 
HETATM   19  C10 UNL     1      26.882   0.101  51.939  1.00  0.00    -0.008 C 
HETATM   20  C11 UNL     1      27.432  -0.305  53.286  1.00  0.00     0.034 A 
HETATM   21  C12 UNL     1      28.219  -1.546  53.181  1.00  0.00    -0.007 A 
HETATM   22  C15 UNL     1      28.490   0.716  53.579  1.00  0.00    -0.007 A 
HETATM   23  C16 UNL     1      26.345  -0.349  54.301  1.00  0.00     0.190 C 
HETATM   24  C13 UNL     1      29.525  -1.300  53.379  1.00  0.00    -0.003 A 
HETATM   25  C14 UNL     1      29.683   0.149  53.632  1.00  0.00    -0.003 A 
HETATM   26  O4  UNL     1      25.119   0.162  53.862  1.00  0.00    -0.373 OA
ENDBRANCH  15  17
ENDBRANCH  14  15
ENDBRANCH   7  14
TORSDOF 3
ENDMDL
MODEL 7
REMARK VINA RESULT:      -7.4      2.136      7.592
REMARK  3 active torsions:
REMARK  status: ('A' for Active; 'I' for Inactive)
REMARK    1  A    between atoms: C5_7  and  C6_8 
REMARK    2  A    between atoms: C6_8  and  C7_9 
REMARK    3  A    between atoms: C7_9  and  C8_11 
ROOT
HETATM    1  O1  UNL     1      25.665   1.152  51.584  1.00  0.00    -0.265 OA
HETATM    2  C1  UNL     1      25.275   2.154  52.289  1.00  0.00     0.263 C 
HETATM    3  O2  UNL     1      25.489   2.155  53.697  1.00  0.00    -0.321 OA
HETATM    4  C2  UNL     1      26.099   0.922  54.217  1.00  0.00     0.184 C 
HETATM    5  C3  UNL     1      24.998  -0.139  53.943  1.00  0.00     0.023 C 
HETATM    6  C4  UNL     1      23.754   0.027  53.381  1.00  0.00     0.021 C 
HETATM    7  C5  UNL     1      22.476   0.476  52.754  1.00  0.00     0.091 C 
HETATM    8  N1  UNL     1      22.485   1.622  51.943  1.00  0.00    -0.407 N 
HETATM    9  C17 UNL     1      22.289   2.896  52.497  1.00  0.00     0.118 C 
HETATM   10  C18 UNL     1      23.514   3.791  52.561  1.00  0.00     0.034 C 
HETATM   11  C19 UNL     1      24.590   3.289  51.619  1.00  0.00     0.088 C 
HETATM   12  C20 UNL     1      23.958   2.702  50.370  1.00  0.00     0.034 C 
HETATM   13  C21 UNL     1      23.034   1.575  50.654  1.00  0.00     0.118 C 
ENDROOT
BRANCH   7  14
HETATM   14  C6  UNL     1      21.412   0.503  53.829  1.00  0.00     0.106 C 
BRANCH  14  15
HETATM   15  C7  UNL     1      20.216  -0.217  53.375  1.00  0.00     0.161 C 
HETATM   16  O3  UNL     1      19.982  -1.340  53.853  1.00  0.00    -0.295 OA
BRANCH  15  17
HETATM   17  C8  UNL     1      19.148   0.091  52.419  1.00  0.00     0.213 C 
HETATM   18  C9  UNL     1      18.025  -0.911  52.571  1.00  0.00     0.010 C 
HETATM   19  C10 UNL     1      17.070  -0.630  51.691  1.00  0.00    -0.008 C 
HETATM   20  C11 UNL     1      17.177   0.531  50.730  1.00  0.00     0.034 A 
HETATM   21  C12 UNL     1      16.260   0.357  49.590  1.00  0.00    -0.007 A 
HETATM   22  C15 UNL     1      16.553   1.680  51.464  1.00  0.00    -0.007 A 
HETATM   23  C16 UNL     1      18.596   0.763  50.350  1.00  0.00     0.190 C 
HETATM   24  C13 UNL     1      15.260   1.254  49.641  1.00  0.00    -0.003 A 
HETATM   25  C14 UNL     1      15.461   2.092  50.843  1.00  0.00    -0.003 A 
HETATM   26  O4  UNL     1      19.524   0.014  51.080  1.00  0.00    -0.373 OA
ENDBRANCH  15  17
ENDBRANCH  14  15
ENDBRANCH   7  14
TORSDOF 3
ENDMDL
MODEL 8
REMARK VINA RESULT:      -7.4      5.005      6.470
REMARK  3 active torsions:
REMARK  status: ('A' for Active; 'I' for Inactive)
REMARK    1  A    between atoms: C5_7  and  C6_8 
REMARK    2  A    between atoms: C6_8  and  C7_9 
REMARK    3  A    between atoms: C7_9  and  C8_11 
ROOT
HETATM    1  O1  UNL     1      21.506   0.814  53.853  1.00  0.00    -0.265 OA
HETATM    2  C1  UNL     1      21.615   0.291  52.684  1.00  0.00     0.263 C 
HETATM    3  O2  UNL     1      22.814  -0.384  52.319  1.00  0.00    -0.321 OA
HETATM    4  C2  UNL     1      23.867  -0.344  53.345  1.00  0.00     0.184 C 
HETATM    5  C3  UNL     1      24.218   1.167  53.409  1.00  0.00     0.023 C 
HETATM    6  C4  UNL     1      23.700   2.209  52.677  1.00  0.00     0.021 C 
HETATM    7  C5  UNL     1      22.983   3.144  51.760  1.00  0.00     0.091 C 
HETATM    8  N1  UNL     1      21.701   2.797  51.306  1.00  0.00    -0.407 N 
HETATM    9  C17 UNL     1      21.532   2.033  50.141  1.00  0.00     0.118 C 
HETATM   10  C18 UNL     1      21.081   0.598  50.344  1.00  0.00     0.034 C 
HETATM   11  C19 UNL     1      20.487   0.417  51.726  1.00  0.00     0.088 C 
HETATM   12  C20 UNL     1      19.740   1.671  52.141  1.00  0.00     0.034 C 
HETATM   13  C21 UNL     1      20.596   2.883  52.165  1.00  0.00     0.118 C 
ENDROOT
BRANCH   7  14
HETATM   14  C6  UNL     1      23.934   3.531  50.649  1.00  0.00     0.106 C 
BRANCH  14  15
HETATM   15  C7  UNL     1      24.070   4.991  50.585  1.00  0.00     0.161 C 
HETATM   16  O3  UNL     1      23.296   5.690  51.261  1.00  0.00    -0.295 OA
BRANCH  15  17
HETATM   17  C8  UNL     1      24.967   5.896  49.859  1.00  0.00     0.213 C 
HETATM   18  C9  UNL     1      26.097   5.103  49.241  1.00  0.00     0.010 C 
HETATM   19  C10 UNL     1      26.910   5.934  48.599  1.00  0.00    -0.008 C 
HETATM   20  C11 UNL     1      26.662   7.423  48.547  1.00  0.00     0.034 A 
HETATM   21  C12 UNL     1      27.896   8.151  48.202  1.00  0.00    -0.007 A 
HETATM   22  C15 UNL     1      25.827   7.618  47.317  1.00  0.00    -0.007 A 
HETATM   23  C16 UNL     1      26.003   7.886  49.797  1.00  0.00     0.190 C 
HETATM   24  C13 UNL     1      27.806   8.687  46.972  1.00  0.00    -0.003 A 
HETATM   25  C14 UNL     1      26.478   8.338  46.419  1.00  0.00    -0.003 A 
HETATM   26  O4  UNL     1      25.590   6.858  50.650  1.00  0.00    -0.373 OA
ENDBRANCH  15  17
ENDBRANCH  14  15
ENDBRANCH   7  14
TORSDOF 3
ENDMDL
MODEL 9
REMARK VINA RESULT:      -7.3      2.209      4.075
REMARK  3 active torsions:
REMARK  status: ('A' for Active; 'I' for Inactive)
REMARK    1  A    between atoms: C5_7  and  C6_8 
REMARK    2  A    between atoms: C6_8  and  C7_9 
REMARK    3  A    between atoms: C7_9  and  C8_11 
ROOT
HETATM    1  O1  UNL     1      15.784   2.035  50.082  1.00  0.00    -0.265 OA
HETATM    2  C1  UNL     1      15.626   1.573  51.272  1.00  0.00     0.263 C 
HETATM    3  O2  UNL     1      15.820   2.426  52.395  1.00  0.00    -0.321 OA
HETATM    4  C2  UNL     1      16.269   3.784  52.053  1.00  0.00     0.184 C 
HETATM    5  C3  UNL     1      17.676   3.530  51.447  1.00  0.00     0.023 C 
HETATM    6  C4  UNL     1      18.352   2.343  51.290  1.00  0.00     0.021 C 
HETATM    7  C5  UNL     1      18.861   0.942  51.238  1.00  0.00     0.091 C 
HETATM    8  N1  UNL     1      17.935  -0.113  51.185  1.00  0.00    -0.407 N 
HETATM    9  C17 UNL     1      17.425  -0.681  52.363  1.00  0.00     0.118 C 
HETATM   10  C18 UNL     1      15.977  -0.359  52.684  1.00  0.00     0.034 C 
HETATM   11  C19 UNL     1      15.256   0.146  51.450  1.00  0.00     0.088 C 
HETATM   12  C20 UNL     1      15.776  -0.566  50.215  1.00  0.00     0.034 C 
HETATM   13  C21 UNL     1      17.234  -0.384  50.003  1.00  0.00     0.118 C 
ENDROOT
BRANCH   7  14
HETATM   14  C6  UNL     1      19.901   0.780  52.323  1.00  0.00     0.106 C 
BRANCH  14  15
HETATM   15  C7  UNL     1      21.239   0.666  51.729  1.00  0.00     0.161 C 
HETATM   16  O3  UNL     1      21.332   0.527  50.498  1.00  0.00    -0.295 OA
BRANCH  15  17
HETATM   17  C8  UNL     1      22.598   0.676  52.280  1.00  0.00     0.213 C 
HETATM   18  C9  UNL     1      22.737  -0.426  53.308  1.00  0.00     0.010 C 
HETATM   19  C10 UNL     1      23.967  -0.398  53.809  1.00  0.00    -0.008 C 
HETATM   20  C11 UNL     1      24.997   0.612  53.361  1.00  0.00     0.034 A 
HETATM   21  C12 UNL     1      26.076   0.741  54.356  1.00  0.00    -0.007 A 
HETATM   22  C15 UNL     1      25.701  -0.056  52.218  1.00  0.00    -0.007 A 
HETATM   23  C16 UNL     1      24.342   1.895  52.993  1.00  0.00     0.190 C 
HETATM   24  C13 UNL     1      27.226   0.234  53.881  1.00  0.00    -0.003 A 
HETATM   25  C14 UNL     1      26.971  -0.272  52.514  1.00  0.00    -0.003 A 
HETATM   26  O4  UNL     1      22.945   1.844  52.954  1.00  0.00    -0.373 OA
ENDBRANCH  15  17
ENDBRANCH  14  15
ENDBRANCH   7  14
TORSDOF 3
ENDMDL
