MODEL 1
REMARK VINA RESULT:     -10.4      0.000      0.000
REMARK  0 active torsions:
REMARK  status: ('A' for Active; 'I' for Inactive)
ROOT
HETATM    1  F1  UNL     1      23.965  -1.290  54.312  1.00  0.00    -0.359 F 
HETATM    2  C1  UNL     1      23.585  -0.319  53.481  1.00  0.00     0.102 A 
HETATM    3  C2  UNL     1      24.794  -0.641  53.115  1.00  0.00     0.199 A 
HETATM    4  C3  UNL     1      26.082  -1.314  53.090  1.00  0.00     0.080 C 
HETATM    5  C4  UNL     1      27.282  -0.444  53.241  1.00  0.00    -0.049 A 
HETATM    6  C5  UNL     1      28.362  -1.342  53.327  1.00  0.00     0.007 A 
HETATM    7  C6  UNL     1      29.685  -0.949  53.474  1.00  0.00     0.001 A 
HETATM    8  C7  UNL     1      29.996   0.384  53.543  1.00  0.00     0.001 A 
HETATM    9  C8  UNL     1      28.952   1.259  53.461  1.00  0.00     0.007 A 
HETATM   10  C9  UNL     1      27.643   0.893  53.317  1.00  0.00    -0.051 A 
HETATM   11  C10 UNL     1      26.542   1.836  53.236  1.00  0.00     0.045 C 
HETATM   12  C11 UNL     1      26.285   2.426  51.855  1.00  0.00     0.061 C 
HETATM   13  C12 UNL     1      24.919   3.000  51.864  1.00  0.00     0.008 C 
HETATM   14  C13 UNL     1      24.131   2.211  51.104  1.00  0.00     0.015 C 
HETATM   15  C14 UNL     1      22.725   2.455  51.361  1.00  0.00     0.111 C 
HETATM   16  C15 UNL     1      22.751   3.839  51.990  1.00  0.00     0.112 C 
HETATM   17  N1  UNL     1      21.633   4.464  52.048  1.00  0.00    -0.257 NA
HETATM   18  C16 UNL     1      20.333   4.031  51.597  1.00  0.00     0.267 C 
HETATM   19  N2  UNL     1      20.091   2.636  51.771  1.00  0.00    -0.401 N 
HETATM   20  C17 UNL     1      20.768   1.984  52.835  1.00  0.00     0.152 C 
HETATM   21  C18 UNL     1      22.148   1.585  52.459  1.00  0.00    -0.028 C 
HETATM   22  C19 UNL     1      22.534   0.578  53.204  1.00  0.00     0.050 C 
HETATM   23 BR1  UNL     1      21.247  -0.048  54.498  1.00  0.00    -0.048 Br
HETATM   24  N3  UNL     1      24.095   3.980  52.388  1.00  0.00    -0.348 N 
HETATM   25  H16 UNL     1      19.115   2.356  51.638  1.00  0.00     0.155 HD
HETATM   26  H19 UNL     1      24.370   4.753  53.005  1.00  0.00     0.167 HD
ENDROOT
TORSDOF 0
ENDMDL
MODEL 2
REMARK VINA RESULT:      -9.6      2.748      6.357
REMARK  0 active torsions:
REMARK  status: ('A' for Active; 'I' for Inactive)
ROOT
HETATM    1  F1  UNL     1      23.344  -1.125  53.616  1.00  0.00    -0.359 F 
HETATM    2  C1  UNL     1      23.599   0.060  53.061  1.00  0.00     0.102 A 
HETATM    3  C2  UNL     1      22.337   0.089  53.386  1.00  0.00     0.199 A 
HETATM    4  C3  UNL     1      21.048  -0.339  53.903  1.00  0.00     0.080 C 
HETATM    5  C4  UNL     1      19.915  -0.327  52.936  1.00  0.00    -0.049 A 
HETATM    6  C5  UNL     1      18.843  -0.911  53.638  1.00  0.00     0.007 A 
HETATM    7  C6  UNL     1      17.576  -1.095  53.103  1.00  0.00     0.001 A 
HETATM    8  C7  UNL     1      17.316  -0.698  51.818  1.00  0.00     0.001 A 
HETATM    9  C8  UNL     1      18.351  -0.132  51.132  1.00  0.00     0.007 A 
HETATM   10  C9  UNL     1      19.605   0.058  51.640  1.00  0.00    -0.051 A 
HETATM   11  C10 UNL     1      20.699   0.656  50.896  1.00  0.00     0.045 C 
HETATM   12  C11 UNL     1      20.727   2.179  50.885  1.00  0.00     0.061 C 
HETATM   13  C12 UNL     1      22.088   2.595  50.473  1.00  0.00     0.008 C 
HETATM   14  C13 UNL     1      22.713   3.108  51.554  1.00  0.00     0.015 C 
HETATM   15  C14 UNL     1      24.148   3.178  51.359  1.00  0.00     0.111 C 
HETATM   16  C15 UNL     1      24.266   3.127  49.844  1.00  0.00     0.112 C 
HETATM   17  N1  UNL     1      25.392   3.481  49.344  1.00  0.00    -0.257 NA
HETATM   18  C16 UNL     1      26.583   3.924  50.026  1.00  0.00     0.267 C 
HETATM   19  N2  UNL     1      26.817   3.271  51.273  1.00  0.00    -0.401 N 
HETATM   20  C17 UNL     1      26.318   1.950  51.422  1.00  0.00     0.152 C 
HETATM   21  C18 UNL     1      24.884   1.933  51.807  1.00  0.00    -0.028 C 
HETATM   22  C19 UNL     1      24.608   0.812  52.427  1.00  0.00     0.050 C 
HETATM   23 BR1  UNL     1      26.084  -0.413  52.640  1.00  0.00    -0.048 Br
HETATM   24  N3  UNL     1      23.016   2.614  49.446  1.00  0.00    -0.348 N 
HETATM   25  H16 UNL     1      27.747   3.433  51.668  1.00  0.00     0.155 HD
HETATM   26  H19 UNL     1      22.871   2.304  48.478  1.00  0.00     0.167 HD
ENDROOT
TORSDOF 0
ENDMDL
MODEL 3
REMARK VINA RESULT:      -9.5      2.840      4.909
REMARK  0 active torsions:
REMARK  status: ('A' for Active; 'I' for Inactive)
ROOT
HETATM    1  F1  UNL     1      27.022   1.559  52.143  1.00  0.00    -0.359 F 
HETATM    2  C1  UNL     1      25.731   1.246  52.039  1.00  0.00     0.102 A 
HETATM    3  C2  UNL     1      26.006   1.955  50.980  1.00  0.00     0.199 A 
HETATM    4  C3  UNL     1      26.760   2.747  50.022  1.00  0.00     0.080 C 
HETATM    5  C4  UNL     1      26.245   4.119  49.754  1.00  0.00    -0.049 A 
HETATM    6  C5  UNL     1      27.218   4.706  48.923  1.00  0.00     0.007 A 
HETATM    7  C6  UNL     1      27.133   5.999  48.425  1.00  0.00     0.001 A 
HETATM    8  C7  UNL     1      26.053   6.780  48.742  1.00  0.00     0.001 A 
HETATM    9  C8  UNL     1      25.107   6.216  49.548  1.00  0.00     0.007 A 
HETATM   10  C9  UNL     1      25.172   4.946  50.048  1.00  0.00    -0.051 A 
HETATM   11  C10 UNL     1      24.160   4.362  50.910  1.00  0.00     0.045 C 
HETATM   12  C11 UNL     1      22.954   3.767  50.193  1.00  0.00     0.061 C 
HETATM   13  C12 UNL     1      22.268   2.867  51.150  1.00  0.00     0.008 C 
HETATM   14  C13 UNL     1      22.480   1.596  50.752  1.00  0.00     0.015 C 
HETATM   15  C14 UNL     1      22.193   0.649  51.812  1.00  0.00     0.111 C 
HETATM   16  C15 UNL     1      21.294   1.462  52.730  1.00  0.00     0.112 C 
HETATM   17  N1  UNL     1      20.622   0.806  53.602  1.00  0.00    -0.257 NA
HETATM   18  C16 UNL     1      20.600  -0.616  53.842  1.00  0.00     0.267 C 
HETATM   19  N2  UNL     1      21.860  -1.259  53.653  1.00  0.00    -0.401 N 
HETATM   20  C17 UNL     1      23.028  -0.482  53.872  1.00  0.00     0.152 C 
HETATM   21  C18 UNL     1      23.390   0.334  52.686  1.00  0.00    -0.028 C 
HETATM   22  C19 UNL     1      24.672   0.600  52.708  1.00  0.00     0.050 C 
HETATM   23 BR1  UNL     1      25.650  -0.119  54.208  1.00  0.00    -0.048 Br
HETATM   24  N3  UNL     1      21.551   2.788  52.330  1.00  0.00    -0.348 N 
HETATM   25  H16 UNL     1      21.902  -2.219  54.004  1.00  0.00     0.155 HD
HETATM   26  H19 UNL     1      21.212   3.572  52.901  1.00  0.00     0.167 HD
ENDROOT
TORSDOF 0
ENDMDL
MODEL 4
REMARK VINA RESULT:      -9.5      2.217      3.420
REMARK  0 active torsions:
REMARK  status: ('A' for Active; 'I' for Inactive)
ROOT
HETATM    1  F1  UNL     1      26.209   3.083  50.814  1.00  0.00    -0.359 F 
HETATM    2  C1  UNL     1      25.106   2.646  51.422  1.00  0.00     0.102 A 
HETATM    3  C2  UNL     1      26.094   2.319  52.209  1.00  0.00     0.199 A 
HETATM    4  C3  UNL     1      27.449   2.176  52.715  1.00  0.00     0.080 C 
HETATM    5  C4  UNL     1      27.909   0.784  52.978  1.00  0.00    -0.049 A 
HETATM    6  C5  UNL     1      29.269   0.917  53.314  1.00  0.00     0.007 A 
HETATM    7  C6  UNL     1      30.094  -0.150  53.640  1.00  0.00     0.001 A 
HETATM    8  C7  UNL     1      29.589  -1.424  53.646  1.00  0.00     0.001 A 
HETATM    9  C8  UNL     1      28.271  -1.559  53.321  1.00  0.00     0.007 A 
HETATM   10  C9  UNL     1      27.442  -0.522  52.996  1.00  0.00    -0.051 A 
HETATM   11  C10 UNL     1      26.042  -0.683  52.646  1.00  0.00     0.045 C 
HETATM   12  C11 UNL     1      25.080  -0.776  53.824  1.00  0.00     0.061 C 
HETATM   13  C12 UNL     1      23.718  -0.506  53.307  1.00  0.00     0.008 C 
HETATM   14  C13 UNL     1      23.334   0.707  53.757  1.00  0.00     0.015 C 
HETATM   15  C14 UNL     1      22.208   1.224  53.004  1.00  0.00     0.111 C 
HETATM   16  C15 UNL     1      21.632  -0.039  52.385  1.00  0.00     0.112 C 
HETATM   17  N1  UNL     1      20.444   0.045  51.910  1.00  0.00    -0.257 NA
HETATM   18  C16 UNL     1      19.564   1.188  51.876  1.00  0.00     0.267 C 
HETATM   19  N2  UNL     1      20.232   2.432  51.670  1.00  0.00    -0.401 N 
HETATM   20  C17 UNL     1      21.451   2.405  50.941  1.00  0.00     0.152 C 
HETATM   21  C18 UNL     1      22.609   2.051  51.800  1.00  0.00    -0.028 C 
HETATM   22  C19 UNL     1      23.710   2.531  51.275  1.00  0.00     0.050 C 
HETATM   23 BR1  UNL     1      23.494   3.507  49.625  1.00  0.00    -0.048 Br
HETATM   24  N3  UNL     1      22.695  -0.957  52.492  1.00  0.00    -0.348 N 
HETATM   25  H16 UNL     1      19.611   3.215  51.452  1.00  0.00     0.155 HD
HETATM   26  H19 UNL     1      22.654  -1.852  51.991  1.00  0.00     0.167 HD
ENDROOT
TORSDOF 0
ENDMDL
MODEL 5
REMARK VINA RESULT:      -9.3      3.579      5.518
REMARK  0 active torsions:
REMARK  status: ('A' for Active; 'I' for Inactive)
ROOT
HETATM    1  F1  UNL     1      22.451   3.751  48.620  1.00  0.00    -0.359 F 
HETATM    2  C1  UNL     1      22.743   3.173  49.785  1.00  0.00     0.102 A 
HETATM    3  C2  UNL     1      23.558   4.186  49.681  1.00  0.00     0.199 A 
HETATM    4  C3  UNL     1      24.216   5.361  49.136  1.00  0.00     0.080 C 
HETATM    5  C4  UNL     1      25.690   5.257  48.940  1.00  0.00    -0.049 A 
HETATM    6  C5  UNL     1      26.044   6.449  48.280  1.00  0.00     0.007 A 
HETATM    7  C6  UNL     1      27.342   6.769  47.905  1.00  0.00     0.001 A 
HETATM    8  C7  UNL     1      28.363   5.897  48.176  1.00  0.00     0.001 A 
HETATM    9  C8  UNL     1      28.025   4.740  48.816  1.00  0.00     0.007 A 
HETATM   10  C9  UNL     1      26.755   4.406  49.193  1.00  0.00    -0.051 A 
HETATM   11  C10 UNL     1      26.410   3.168  49.868  1.00  0.00     0.045 C 
HETATM   12  C11 UNL     1      26.607   3.169  51.379  1.00  0.00     0.061 C 
HETATM   13  C12 UNL     1      25.827   2.035  51.929  1.00  0.00     0.008 C 
HETATM   14  C13 UNL     1      24.764   2.542  52.589  1.00  0.00     0.015 C 
HETATM   15  C14 UNL     1      23.749   1.533  52.821  1.00  0.00     0.111 C 
HETATM   16  C15 UNL     1      24.544   0.244  52.680  1.00  0.00     0.112 C 
HETATM   17  N1  UNL     1      23.993  -0.821  53.134  1.00  0.00    -0.257 NA
HETATM   18  C16 UNL     1      22.706  -0.973  53.766  1.00  0.00     0.267 C 
HETATM   19  N2  UNL     1      21.692  -0.121  53.235  1.00  0.00    -0.401 N 
HETATM   20  C17 UNL     1      21.816   0.272  51.877  1.00  0.00     0.152 C 
HETATM   21  C18 UNL     1      22.725   1.434  51.710  1.00  0.00    -0.028 C 
HETATM   22  C19 UNL     1      22.421   2.077  50.610  1.00  0.00     0.050 C 
HETATM   23 BR1  UNL     1      20.950   1.350  49.594  1.00  0.00    -0.048 Br
HETATM   24  N3  UNL     1      25.700   0.659  51.991  1.00  0.00    -0.348 N 
HETATM   25  H16 UNL     1      20.742  -0.354  53.538  1.00  0.00     0.155 HD
HETATM   26  H19 UNL     1      26.343  -0.038  51.598  1.00  0.00     0.167 HD
ENDROOT
TORSDOF 0
ENDMDL
MODEL 6
REMARK VINA RESULT:      -9.0      3.353      5.599
REMARK  0 active torsions:
REMARK  status: ('A' for Active; 'I' for Inactive)
ROOT
HETATM    1  F1  UNL     1      25.410   1.121  51.535  1.00  0.00    -0.359 F 
HETATM    2  C1  UNL     1      24.916   2.358  51.561  1.00  0.00     0.102 A 
HETATM    3  C2  UNL     1      24.261   1.700  52.476  1.00  0.00     0.199 A 
HETATM    4  C3  UNL     1      23.832   0.603  53.328  1.00  0.00     0.080 C 
HETATM    5  C4  UNL     1      22.389   0.241  53.255  1.00  0.00    -0.049 A 
HETATM    6  C5  UNL     1      22.273  -0.916  54.048  1.00  0.00     0.007 A 
HETATM    7  C6  UNL     1      21.081  -1.594  54.260  1.00  0.00     0.001 A 
HETATM    8  C7  UNL     1      19.927  -1.139  53.677  1.00  0.00     0.001 A 
HETATM    9  C8  UNL     1      20.033  -0.018  52.906  1.00  0.00     0.007 A 
HETATM   10  C9  UNL     1      21.197   0.663  52.685  1.00  0.00    -0.051 A 
HETATM   11  C10 UNL     1      21.295   1.851  51.856  1.00  0.00     0.045 C 
HETATM   12  C11 UNL     1      20.934   3.161  52.546  1.00  0.00     0.061 C 
HETATM   13  C12 UNL     1      21.487   4.263  51.724  1.00  0.00     0.008 C 
HETATM   14  C13 UNL     1      22.529   4.799  52.394  1.00  0.00     0.015 C 
HETATM   15  C14 UNL     1      23.367   5.602  51.524  1.00  0.00     0.111 C 
HETATM   16  C15 UNL     1      22.426   5.906  50.369  1.00  0.00     0.112 C 
HETATM   17  N1  UNL     1      22.774   6.856  49.581  1.00  0.00    -0.257 NA
HETATM   18  C16 UNL     1      23.951   7.688  49.635  1.00  0.00     0.267 C 
HETATM   19  N2  UNL     1      25.123   7.010  50.086  1.00  0.00    -0.401 N 
HETATM   20  C17 UNL     1      25.205   5.615  49.839  1.00  0.00     0.152 C 
HETATM   21  C18 UNL     1      24.485   4.821  50.866  1.00  0.00    -0.028 C 
HETATM   22  C19 UNL     1      24.994   3.615  50.928  1.00  0.00     0.050 C 
HETATM   23 BR1  UNL     1      26.456   3.260  49.720  1.00  0.00    -0.048 Br
HETATM   24  N3  UNL     1      21.420   4.931  50.515  1.00  0.00    -0.348 N 
HETATM   25  H16 UNL     1      25.993   7.530  49.944  1.00  0.00     0.155 HD
HETATM   26  H19 UNL     1      20.736   4.781  49.764  1.00  0.00     0.167 HD
ENDROOT
TORSDOF 0
ENDMDL
MODEL 7
REMARK VINA RESULT:      -8.8      3.865      5.651
REMARK  0 active torsions:
REMARK  status: ('A' for Active; 'I' for Inactive)
ROOT
HETATM    1  F1  UNL     1      20.560   4.410  51.908  1.00  0.00    -0.359 F 
HETATM    2  C1  UNL     1      21.603   4.474  51.081  1.00  0.00     0.102 A 
HETATM    3  C2  UNL     1      21.433   3.206  51.334  1.00  0.00     0.199 A 
HETATM    4  C3  UNL     1      20.875   1.986  51.891  1.00  0.00     0.080 C 
HETATM    5  C4  UNL     1      21.808   1.139  52.686  1.00  0.00    -0.049 A 
HETATM    6  C5  UNL     1      20.996   0.120  53.219  1.00  0.00     0.007 A 
HETATM    7  C6  UNL     1      21.468  -0.901  54.030  1.00  0.00     0.001 A 
HETATM    8  C7  UNL     1      22.799  -0.953  54.354  1.00  0.00     0.001 A 
HETATM    9  C8  UNL     1      23.591   0.032  53.840  1.00  0.00     0.007 A 
HETATM   10  C9  UNL     1      23.146   1.046  53.040  1.00  0.00    -0.051 A 
HETATM   11  C10 UNL     1      24.000   2.092  52.506  1.00  0.00     0.045 C 
HETATM   12  C11 UNL     1      24.755   1.732  51.232  1.00  0.00     0.061 C 
HETATM   13  C12 UNL     1      25.211   3.000  50.614  1.00  0.00     0.008 C 
HETATM   14  C13 UNL     1      24.476   3.209  49.502  1.00  0.00     0.015 C 
HETATM   15  C14 UNL     1      24.569   4.584  49.052  1.00  0.00     0.111 C 
HETATM   16  C15 UNL     1      25.849   5.054  49.724  1.00  0.00     0.112 C 
HETATM   17  N1  UNL     1      26.369   6.137  49.275  1.00  0.00    -0.257 NA
HETATM   18  C16 UNL     1      25.902   6.987  48.208  1.00  0.00     0.267 C 
HETATM   19  N2  UNL     1      24.481   7.088  48.123  1.00  0.00    -0.401 N 
HETATM   20  C17 UNL     1      23.742   6.922  49.324  1.00  0.00     0.152 C 
HETATM   21  C18 UNL     1      23.511   5.491  49.646  1.00  0.00    -0.028 C 
HETATM   22  C19 UNL     1      22.444   5.375  50.398  1.00  0.00     0.050 C 
HETATM   23 BR1  UNL     1      21.543   7.025  50.832  1.00  0.00    -0.048 Br
HETATM   24  N3  UNL     1      26.039   4.101  50.743  1.00  0.00    -0.348 N 
HETATM   25  H16 UNL     1      24.145   7.831  47.504  1.00  0.00     0.155 HD
HETATM   26  H19 UNL     1      26.738   4.264  51.477  1.00  0.00     0.167 HD
ENDROOT
TORSDOF 0
ENDMDL
MODEL 8
REMARK VINA RESULT:      -8.5      3.561      6.877
REMARK  0 active torsions:
REMARK  status: ('A' for Active; 'I' for Inactive)
ROOT
HETATM    1  F1  UNL     1      22.180  -0.638  53.322  1.00  0.00    -0.359 F 
HETATM    2  C1  UNL     1      22.099   0.657  53.016  1.00  0.00     0.102 A 
HETATM    3  C2  UNL     1      20.884   0.291  53.316  1.00  0.00     0.199 A 
HETATM    4  C3  UNL     1      19.769  -0.552  53.713  1.00  0.00     0.080 C 
HETATM    5  C4  UNL     1      18.641  -0.648  52.744  1.00  0.00    -0.049 A 
HETATM    6  C5  UNL     1      17.782  -1.617  53.296  1.00  0.00     0.007 A 
HETATM    7  C6  UNL     1      16.589  -2.018  52.710  1.00  0.00     0.001 A 
HETATM    8  C7  UNL     1      16.193  -1.460  51.523  1.00  0.00     0.001 A 
HETATM    9  C8  UNL     1      17.022  -0.520  50.983  1.00  0.00     0.007 A 
HETATM   10  C9  UNL     1      18.199  -0.112  51.544  1.00  0.00    -0.051 A 
HETATM   11  C10 UNL     1      19.075   0.885  50.954  1.00  0.00     0.045 C 
HETATM   12  C11 UNL     1      18.705   2.335  51.245  1.00  0.00     0.061 C 
HETATM   13  C12 UNL     1      19.896   3.164  50.950  1.00  0.00     0.008 C 
HETATM   14  C13 UNL     1      20.401   3.601  52.123  1.00  0.00     0.015 C 
HETATM   15  C14 UNL     1      21.761   4.081  51.974  1.00  0.00     0.111 C 
HETATM   16  C15 UNL     1      21.838   4.360  50.481  1.00  0.00     0.112 C 
HETATM   17  N1  UNL     1      22.817   5.087  50.084  1.00  0.00    -0.257 NA
HETATM   18  C16 UNL     1      23.873   5.684  50.863  1.00  0.00     0.267 C 
HETATM   19  N2  UNL     1      24.309   4.884  51.962  1.00  0.00    -0.401 N 
HETATM   20  C17 UNL     1      24.177   3.476  51.837  1.00  0.00     0.152 C 
HETATM   21  C18 UNL     1      22.810   3.009  52.182  1.00  0.00    -0.028 C 
HETATM   22  C19 UNL     1      22.856   1.757  52.564  1.00  0.00     0.050 C 
HETATM   23 BR1  UNL     1      24.606   0.943  52.560  1.00  0.00    -0.048 Br
HETATM   24  N3  UNL     1      20.752   3.626  49.966  1.00  0.00    -0.348 N 
HETATM   25  H16 UNL     1      25.177   5.204  52.399  1.00  0.00     0.155 HD
HETATM   26  H19 UNL     1      20.662   3.484  48.953  1.00  0.00     0.167 HD
ENDROOT
TORSDOF 0
ENDMDL
MODEL 9
REMARK VINA RESULT:      -8.5      3.841      5.723
REMARK  0 active torsions:
REMARK  status: ('A' for Active; 'I' for Inactive)
ROOT
HETATM    1  F1  UNL     1      26.897   2.844  50.457  1.00  0.00    -0.359 F 
HETATM    2  C1  UNL     1      25.573   2.994  50.470  1.00  0.00     0.102 A 
HETATM    3  C2  UNL     1      26.017   3.872  49.614  1.00  0.00     0.199 A 
HETATM    4  C3  UNL     1      26.944   4.644  48.804  1.00  0.00     0.080 C 
HETATM    5  C4  UNL     1      26.916   6.120  48.999  1.00  0.00    -0.049 A 
HETATM    6  C5  UNL     1      27.985   6.602  48.221  1.00  0.00     0.007 A 
HETATM    7  C6  UNL     1      28.320   7.944  48.112  1.00  0.00     0.001 A 
HETATM    8  C7  UNL     1      27.590   8.885  48.789  1.00  0.00     0.001 A 
HETATM    9  C8  UNL     1      26.552   8.424  49.545  1.00  0.00     0.007 A 
HETATM   10  C9  UNL     1      26.205   7.108  49.666  1.00  0.00    -0.051 A 
HETATM   11  C10 UNL     1      25.102   6.632  50.480  1.00  0.00     0.045 C 
HETATM   12  C11 UNL     1      23.730   6.689  49.821  1.00  0.00     0.061 C 
HETATM   13  C12 UNL     1      22.829   5.799  50.590  1.00  0.00     0.008 C 
HETATM   14  C13 UNL     1      22.573   4.711  49.834  1.00  0.00     0.015 C 
HETATM   15  C14 UNL     1      22.037   3.623  50.628  1.00  0.00     0.111 C 
HETATM   16  C15 UNL     1      21.519   4.352  51.858  1.00  0.00     0.112 C 
HETATM   17  N1  UNL     1      20.710   3.702  52.611  1.00  0.00    -0.257 NA
HETATM   18  C16 UNL     1      20.216   2.356  52.457  1.00  0.00     0.267 C 
HETATM   19  N2  UNL     1      21.170   1.445  51.911  1.00  0.00    -0.401 N 
HETATM   20  C17 UNL     1      22.543   1.715  52.153  1.00  0.00     0.152 C 
HETATM   21  C18 UNL     1      23.098   2.700  51.192  1.00  0.00    -0.028 C 
HETATM   22  C19 UNL     1      24.394   2.536  51.091  1.00  0.00     0.050 C 
HETATM   23 BR1  UNL     1      25.145   1.126  52.173  1.00  0.00    -0.048 Br
HETATM   24  N3  UNL     1      22.191   5.588  51.799  1.00  0.00    -0.348 N 
HETATM   25  H16 UNL     1      20.900   0.460  51.977  1.00  0.00     0.155 HD
HETATM   26  H19 UNL     1      22.171   6.224  52.606  1.00  0.00     0.167 HD
ENDROOT
TORSDOF 0
ENDMDL
