MODEL 1
REMARK VINA RESULT:      -8.7      0.000      0.000
REMARK  2 active torsions:
REMARK  status: ('A' for Active; 'I' for Inactive)
REMARK    1  A    between atoms: C4_4  and  N1_5 
REMARK    2  A    between atoms: N1_5  and  C5_6 
ROOT
HETATM    1  C5  UNL     1      24.587   1.488  52.530  1.00  0.00     0.139 A 
HETATM    2  N2  UNL     1      25.003   2.393  51.653  1.00  0.00    -0.224 NA
HETATM    3  C6  UNL     1      24.239   2.841  50.671  1.00  0.00     0.236 A 
HETATM    4  N3  UNL     1      22.997   2.341  50.580  1.00  0.00    -0.234 NA
HETATM    5  C7  UNL     1      22.564   1.433  51.450  1.00  0.00     0.114 A 
HETATM    6  S1  UNL     1      20.997   0.579  51.611  1.00  0.00    -0.073 SA
HETATM    7  C8  UNL     1      21.449  -0.381  53.045  1.00  0.00    -0.008 A 
HETATM    8  C9  UNL     1      22.715  -0.014  53.312  1.00  0.00    -0.028 A 
HETATM    9  C10 UNL     1      23.336   0.919  52.519  1.00  0.00     0.053 A 
HETATM   10  C11 UNL     1      23.099  -0.817  54.515  1.00  0.00     0.041 A 
HETATM   11  C12 UNL     1      21.943  -1.669  54.885  1.00  0.00     0.010 A 
HETATM   12  C13 UNL     1      20.848  -1.373  53.923  1.00  0.00     0.047 A 
ENDROOT
BRANCH   1  13
HETATM   13  N1  UNL     1      25.577   1.159  53.494  1.00  0.00    -0.367 N 
HETATM   14  H6  UNL     1      25.453   1.556  54.446  1.00  0.00     0.161 HD
BRANCH  13  15
HETATM   15  C4  UNL     1      26.730   0.310  53.212  1.00  0.00     0.111 C 
HETATM   16  C3  UNL     1      26.352  -0.916  52.494  1.00  0.00     0.054 C 
HETATM   17  C2  UNL     1      27.155  -2.119  52.659  1.00  0.00    -0.024 C 
HETATM   18  C1  UNL     1      28.372  -2.611  52.965  1.00  0.00    -0.002 C 
HETATM   19  C16 UNL     1      29.643  -1.938  53.335  1.00  0.00     0.024 C 
HETATM   20  C15 UNL     1      29.821  -0.718  53.884  1.00  0.00     0.134 C 
HETATM   21  O1  UNL     1      28.930   0.294  54.279  1.00  0.00    -0.361 OA
HETATM   22  C14 UNL     1      27.506   0.182  54.475  1.00  0.00     0.199 C 
ENDBRANCH  13  15
ENDBRANCH   1  13
TORSDOF 2
ENDMDL
MODEL 2
REMARK VINA RESULT:      -8.4      2.060      3.654
REMARK  2 active torsions:
REMARK  status: ('A' for Active; 'I' for Inactive)
REMARK    1  A    between atoms: C4_4  and  N1_5 
REMARK    2  A    between atoms: N1_5  and  C5_6 
ROOT
HETATM    1  C5  UNL     1      23.353  -0.322  53.442  1.00  0.00     0.139 A 
HETATM    2  N2  UNL     1      23.712  -0.911  54.575  1.00  0.00    -0.224 NA
HETATM    3  C6  UNL     1      22.840  -1.463  55.402  1.00  0.00     0.236 A 
HETATM    4  N3  UNL     1      21.545  -1.410  55.055  1.00  0.00    -0.234 NA
HETATM    5  C7  UNL     1      21.168  -0.823  53.923  1.00  0.00     0.114 A 
HETATM    6  S1  UNL     1      19.556  -0.583  53.177  1.00  0.00    -0.073 SA
HETATM    7  C8  UNL     1      20.142   0.282  51.731  1.00  0.00    -0.008 A 
HETATM    8  C9  UNL     1      21.477   0.339  51.889  1.00  0.00    -0.028 A 
HETATM    9  C10 UNL     1      22.055  -0.217  53.002  1.00  0.00     0.053 A 
HETATM   10  C11 UNL     1      21.973   1.064  50.678  1.00  0.00     0.041 A 
HETATM   11  C12 UNL     1      20.799   1.416  49.841  1.00  0.00     0.010 A 
HETATM   12  C13 UNL     1      19.590   0.890  50.529  1.00  0.00     0.047 A 
ENDROOT
BRANCH   1  13
HETATM   13  N1  UNL     1      24.458   0.199  52.718  1.00  0.00    -0.367 N 
HETATM   14  H6  UNL     1      24.294   0.435  51.719  1.00  0.00     0.161 HD
BRANCH  13  15
HETATM   15  C4  UNL     1      25.780   0.413  53.300  1.00  0.00     0.111 C 
HETATM   16  C3  UNL     1      26.087   1.841  53.465  1.00  0.00     0.054 C 
HETATM   17  C2  UNL     1      27.473   2.285  53.424  1.00  0.00    -0.024 C 
HETATM   18  C1  UNL     1      28.760   1.932  53.612  1.00  0.00    -0.002 C 
HETATM   19  C16 UNL     1      29.379   0.651  54.033  1.00  0.00     0.024 C 
HETATM   20  C15 UNL     1      28.886  -0.601  53.919  1.00  0.00     0.134 C 
HETATM   21  O1  UNL     1      27.687  -1.114  53.396  1.00  0.00    -0.361 OA
HETATM   22  C14 UNL     1      26.740  -0.437  52.546  1.00  0.00     0.199 C 
ENDBRANCH  13  15
ENDBRANCH   1  13
TORSDOF 2
ENDMDL
MODEL 3
REMARK VINA RESULT:      -8.1      1.534      3.441
REMARK  2 active torsions:
REMARK  status: ('A' for Active; 'I' for Inactive)
REMARK    1  A    between atoms: C4_4  and  N1_5 
REMARK    2  A    between atoms: N1_5  and  C5_6 
ROOT
HETATM    1  C5  UNL     1      23.547   0.880  53.069  1.00  0.00     0.139 A 
HETATM    2  N2  UNL     1      23.036   0.020  53.941  1.00  0.00    -0.224 NA
HETATM    3  C6  UNL     1      21.914  -0.643  53.717  1.00  0.00     0.236 A 
HETATM    4  N3  UNL     1      21.288  -0.418  52.552  1.00  0.00    -0.234 NA
HETATM    5  C7  UNL     1      21.787   0.440  51.667  1.00  0.00     0.114 A 
HETATM    6  S1  UNL     1      21.216   0.961  50.050  1.00  0.00    -0.073 SA
HETATM    7  C8  UNL     1      22.558   2.091  49.729  1.00  0.00    -0.008 A 
HETATM    8  C9  UNL     1      23.335   2.013  50.824  1.00  0.00    -0.028 A 
HETATM    9  C10 UNL     1      22.981   1.176  51.852  1.00  0.00     0.053 A 
HETATM   10  C11 UNL     1      24.463   2.960  50.559  1.00  0.00     0.041 A 
HETATM   11  C12 UNL     1      24.239   3.579  49.230  1.00  0.00     0.010 A 
HETATM   12  C13 UNL     1      22.989   2.997  48.674  1.00  0.00     0.047 A 
ENDROOT
BRANCH   1  13
HETATM   13  N1  UNL     1      24.755   1.472  53.523  1.00  0.00    -0.367 N 
HETATM   14  H6  UNL     1      24.676   2.397  53.991  1.00  0.00     0.161 HD
BRANCH  13  15
HETATM   15  C4  UNL     1      26.069   0.855  53.366  1.00  0.00     0.111 C 
HETATM   16  C3  UNL     1      26.062  -0.207  52.349  1.00  0.00     0.054 C 
HETATM   17  C2  UNL     1      27.005  -1.311  52.461  1.00  0.00    -0.024 C 
HETATM   18  C1  UNL     1      28.196  -1.712  52.948  1.00  0.00    -0.002 C 
HETATM   19  C16 UNL     1      29.228  -0.998  53.740  1.00  0.00     0.024 C 
HETATM   20  C15 UNL     1      29.078   0.074  54.547  1.00  0.00     0.134 C 
HETATM   21  O1  UNL     1      27.966   0.853  54.908  1.00  0.00    -0.361 OA
HETATM   22  C14 UNL     1      26.573   0.530  54.728  1.00  0.00     0.199 C 
ENDBRANCH  13  15
ENDBRANCH   1  13
TORSDOF 2
ENDMDL
MODEL 4
REMARK VINA RESULT:      -7.9      2.179      2.886
REMARK  2 active torsions:
REMARK  status: ('A' for Active; 'I' for Inactive)
REMARK    1  A    between atoms: C4_4  and  N1_5 
REMARK    2  A    between atoms: N1_5  and  C5_6 
ROOT
HETATM    1  C5  UNL     1      24.877   3.387  51.028  1.00  0.00     0.139 A 
HETATM    2  N2  UNL     1      25.680   4.350  50.593  1.00  0.00    -0.224 NA
HETATM    3  C6  UNL     1      25.490   4.972  49.441  1.00  0.00     0.236 A 
HETATM    4  N3  UNL     1      24.436   4.593  48.703  1.00  0.00    -0.234 NA
HETATM    5  C7  UNL     1      23.621   3.630  49.125  1.00  0.00     0.114 A 
HETATM    6  S1  UNL     1      22.154   2.900  48.401  1.00  0.00    -0.073 SA
HETATM    7  C8  UNL     1      21.843   1.745  49.725  1.00  0.00    -0.008 A 
HETATM    8  C9  UNL     1      22.832   1.969  50.608  1.00  0.00    -0.028 A 
HETATM    9  C10 UNL     1      23.775   2.932  50.346  1.00  0.00     0.053 A 
HETATM   10  C11 UNL     1      22.576   1.002  51.721  1.00  0.00     0.041 A 
HETATM   11  C12 UNL     1      21.368   0.214  51.374  1.00  0.00     0.010 A 
HETATM   12  C13 UNL     1      20.875   0.711  50.062  1.00  0.00     0.047 A 
ENDROOT
BRANCH   1  13
HETATM   13  N1  UNL     1      25.276   2.866  52.288  1.00  0.00    -0.367 N 
HETATM   14  H6  UNL     1      24.677   3.103  53.104  1.00  0.00     0.161 HD
BRANCH  13  15
HETATM   15  C4  UNL     1      26.459   2.032  52.481  1.00  0.00     0.111 C 
HETATM   16  C3  UNL     1      26.308   0.707  51.862  1.00  0.00     0.054 C 
HETATM   17  C2  UNL     1      27.023  -0.431  52.423  1.00  0.00    -0.024 C 
HETATM   18  C1  UNL     1      28.092  -0.829  53.140  1.00  0.00    -0.002 C 
HETATM   19  C16 UNL     1      29.196  -0.064  53.771  1.00  0.00     0.024 C 
HETATM   20  C15 UNL     1      29.206   1.226  54.172  1.00  0.00     0.134 C 
HETATM   21  O1  UNL     1      28.240   2.245  54.141  1.00  0.00    -0.361 OA
HETATM   22  C14 UNL     1      26.823   2.105  53.922  1.00  0.00     0.199 C 
ENDBRANCH  13  15
ENDBRANCH   1  13
TORSDOF 2
ENDMDL
MODEL 5
REMARK VINA RESULT:      -7.8      2.611      5.371
REMARK  2 active torsions:
REMARK  status: ('A' for Active; 'I' for Inactive)
REMARK    1  A    between atoms: C4_4  and  N1_5 
REMARK    2  A    between atoms: N1_5  and  C5_6 
ROOT
HETATM    1  C5  UNL     1      25.554   0.698  52.877  1.00  0.00     0.139 A 
HETATM    2  N2  UNL     1      26.856   0.793  53.115  1.00  0.00    -0.224 NA
HETATM    3  C6  UNL     1      27.437   0.215  54.153  1.00  0.00     0.236 A 
HETATM    4  N3  UNL     1      26.654  -0.489  54.984  1.00  0.00    -0.234 NA
HETATM    5  C7  UNL     1      25.347  -0.594  54.761  1.00  0.00     0.114 A 
HETATM    6  S1  UNL     1      24.044  -1.441  55.653  1.00  0.00    -0.073 SA
HETATM    7  C8  UNL     1      22.721  -0.966  54.554  1.00  0.00    -0.008 A 
HETATM    8  C9  UNL     1      23.319  -0.220  53.608  1.00  0.00    -0.028 A 
HETATM    9  C10 UNL     1      24.672   0.001  53.669  1.00  0.00     0.053 A 
HETATM   10  C11 UNL     1      22.213   0.180  52.683  1.00  0.00     0.041 A 
HETATM   11  C12 UNL     1      20.949  -0.396  53.203  1.00  0.00     0.010 A 
HETATM   12  C13 UNL     1      21.284  -1.164  54.432  1.00  0.00     0.047 A 
ENDROOT
BRANCH   1  13
HETATM   13  N1  UNL     1      25.155   1.398  51.708  1.00  0.00    -0.367 N 
HETATM   14  H6  UNL     1      24.910   0.822  50.878  1.00  0.00     0.161 HD
BRANCH  13  15
HETATM   15  C4  UNL     1      25.074   2.854  51.624  1.00  0.00     0.111 C 
HETATM   16  C3  UNL     1      24.086   3.408  52.561  1.00  0.00     0.054 C 
HETATM   17  C2  UNL     1      23.416   4.659  52.237  1.00  0.00    -0.024 C 
HETATM   18  C1  UNL     1      23.492   5.816  51.550  1.00  0.00    -0.002 C 
HETATM   19  C16 UNL     1      24.542   6.365  50.657  1.00  0.00     0.024 C 
HETATM   20  C15 UNL     1      25.481   5.699  49.952  1.00  0.00     0.134 C 
HETATM   21  O1  UNL     1      25.787   4.334  49.814  1.00  0.00    -0.361 OA
HETATM   22  C14 UNL     1      24.965   3.210  50.184  1.00  0.00     0.199 C 
ENDBRANCH  13  15
ENDBRANCH   1  13
TORSDOF 2
ENDMDL
MODEL 6
REMARK VINA RESULT:      -7.5      1.565      2.298
REMARK  2 active torsions:
REMARK  status: ('A' for Active; 'I' for Inactive)
REMARK    1  A    between atoms: C4_4  and  N1_5 
REMARK    2  A    between atoms: N1_5  and  C5_6 
ROOT
HETATM    1  C5  UNL     1      24.973   2.766  51.718  1.00  0.00     0.139 A 
HETATM    2  N2  UNL     1      25.674   3.542  50.902  1.00  0.00    -0.224 NA
HETATM    3  C6  UNL     1      25.297   3.797  49.660  1.00  0.00     0.236 A 
HETATM    4  N3  UNL     1      24.157   3.233  49.234  1.00  0.00    -0.234 NA
HETATM    5  C7  UNL     1      23.443   2.452  50.040  1.00  0.00     0.114 A 
HETATM    6  S1  UNL     1      21.906   1.563  49.794  1.00  0.00    -0.073 SA
HETATM    7  C8  UNL     1      21.829   0.859  51.432  1.00  0.00    -0.008 A 
HETATM    8  C9  UNL     1      22.931   1.320  52.050  1.00  0.00    -0.028 A 
HETATM    9  C10 UNL     1      23.796   2.146  51.376  1.00  0.00     0.053 A 
HETATM   10  C11 UNL     1      22.871   0.732  53.424  1.00  0.00     0.041 A 
HETATM   11  C12 UNL     1      21.649  -0.104  53.512  1.00  0.00     0.010 A 
HETATM   12  C13 UNL     1      20.953  -0.012  52.201  1.00  0.00     0.047 A 
ENDROOT
BRANCH   1  13
HETATM   13  N1  UNL     1      25.569   2.636  53.001  1.00  0.00    -0.367 N 
HETATM   14  H6  UNL     1      25.288   3.332  53.721  1.00  0.00     0.161 HD
BRANCH  13  15
HETATM   15  C4  UNL     1      26.534   1.595  53.344  1.00  0.00     0.111 C 
HETATM   16  C3  UNL     1      27.787   2.156  53.871  1.00  0.00     0.054 C 
HETATM   17  C2  UNL     1      29.031   1.421  53.689  1.00  0.00    -0.024 C 
HETATM   18  C1  UNL     1      29.590   0.209  53.500  1.00  0.00    -0.002 C 
HETATM   19  C16 UNL     1      28.993  -1.144  53.378  1.00  0.00     0.024 C 
HETATM   20  C15 UNL     1      27.744  -1.482  52.991  1.00  0.00     0.134 C 
HETATM   21  O1  UNL     1      26.629  -0.727  52.588  1.00  0.00    -0.361 OA
HETATM   22  C14 UNL     1      26.604   0.658  52.191  1.00  0.00     0.199 C 
ENDBRANCH  13  15
ENDBRANCH   1  13
TORSDOF 2
ENDMDL
MODEL 7
REMARK VINA RESULT:      -7.4      3.524      6.693
REMARK  2 active torsions:
REMARK  status: ('A' for Active; 'I' for Inactive)
REMARK    1  A    between atoms: C4_4  and  N1_5 
REMARK    2  A    between atoms: N1_5  and  C5_6 
ROOT
HETATM    1  C5  UNL     1      25.406   2.506  51.461  1.00  0.00     0.139 A 
HETATM    2  N2  UNL     1      24.223   2.509  50.861  1.00  0.00    -0.224 NA
HETATM    3  C6  UNL     1      23.279   1.624  51.136  1.00  0.00     0.236 A 
HETATM    4  N3  UNL     1      23.558   0.696  52.065  1.00  0.00    -0.234 NA
HETATM    5  C7  UNL     1      24.739   0.679  52.676  1.00  0.00     0.114 A 
HETATM    6  S1  UNL     1      25.420  -0.399  53.935  1.00  0.00    -0.073 SA
HETATM    7  C8  UNL     1      27.005   0.414  54.044  1.00  0.00    -0.008 A 
HETATM    8  C9  UNL     1      26.931   1.419  53.153  1.00  0.00    -0.028 A 
HETATM    9  C10 UNL     1      25.784   1.599  52.422  1.00  0.00     0.053 A 
HETATM   10  C11 UNL     1      28.259   2.104  53.241  1.00  0.00     0.041 A 
HETATM   11  C12 UNL     1      29.079   1.387  54.247  1.00  0.00     0.010 A 
HETATM   12  C13 UNL     1      28.249   0.278  54.788  1.00  0.00     0.047 A 
ENDROOT
BRANCH   1  13
HETATM   13  N1  UNL     1      26.257   3.547  51.005  1.00  0.00    -0.367 N 
HETATM   14  H6  UNL     1      27.169   3.654  51.492  1.00  0.00     0.161 HD
BRANCH  13  15
HETATM   15  C4  UNL     1      25.916   4.451  49.910  1.00  0.00     0.111 C 
HETATM   16  C3  UNL     1      27.100   4.854  49.137  1.00  0.00     0.054 C 
HETATM   17  C2  UNL     1      27.108   6.144  48.461  1.00  0.00    -0.024 C 
HETATM   18  C1  UNL     1      26.355   7.118  47.916  1.00  0.00    -0.002 C 
HETATM   19  C16 UNL     1      24.885   7.264  47.772  1.00  0.00     0.024 C 
HETATM   20  C15 UNL     1      23.906   6.701  48.513  1.00  0.00     0.134 C 
HETATM   21  O1  UNL     1      23.920   5.831  49.616  1.00  0.00    -0.361 OA
HETATM   22  C14 UNL     1      25.037   5.513  50.469  1.00  0.00     0.199 C 
ENDBRANCH  13  15
ENDBRANCH   1  13
TORSDOF 2
ENDMDL
MODEL 8
REMARK VINA RESULT:      -7.1      7.439      8.995
REMARK  2 active torsions:
REMARK  status: ('A' for Active; 'I' for Inactive)
REMARK    1  A    between atoms: C4_4  and  N1_5 
REMARK    2  A    between atoms: N1_5  and  C5_6 
ROOT
HETATM    1  C5  UNL     1      29.342   6.443  47.687  1.00  0.00     0.139 A 
HETATM    2  N2  UNL     1      30.083   7.410  47.161  1.00  0.00    -0.224 NA
HETATM    3  C6  UNL     1      29.621   8.632  46.955  1.00  0.00     0.236 A 
HETATM    4  N3  UNL     1      28.347   8.875  47.300  1.00  0.00    -0.234 NA
HETATM    5  C7  UNL     1      27.591   7.917  47.828  1.00  0.00     0.114 A 
HETATM    6  S1  UNL     1      25.889   7.906  48.389  1.00  0.00    -0.073 SA
HETATM    7  C8  UNL     1      25.867   6.195  48.897  1.00  0.00    -0.008 A 
HETATM    8  C9  UNL     1      27.105   5.745  48.623  1.00  0.00    -0.028 A 
HETATM    9  C10 UNL     1      28.032   6.594  48.071  1.00  0.00     0.053 A 
HETATM   10  C11 UNL     1      27.091   4.311  49.047  1.00  0.00     0.041 A 
HETATM   11  C12 UNL     1      25.737   4.000  49.568  1.00  0.00     0.010 A 
HETATM   12  C13 UNL     1      24.931   5.246  49.481  1.00  0.00     0.047 A 
ENDROOT
BRANCH   1  13
HETATM   13  N1  UNL     1      30.048   5.217  47.814  1.00  0.00    -0.367 N 
HETATM   14  H6  UNL     1      29.479   4.366  47.996  1.00  0.00     0.161 HD
BRANCH  13  15
HETATM   15  C4  UNL     1      31.499   5.103  47.703  1.00  0.00     0.111 C 
HETATM   16  C3  UNL     1      31.906   3.857  47.036  1.00  0.00     0.054 C 
HETATM   17  C2  UNL     1      33.195   3.261  47.358  1.00  0.00    -0.024 C 
HETATM   18  C1  UNL     1      34.443   3.488  47.812  1.00  0.00    -0.002 C 
HETATM   19  C16 UNL     1      35.120   4.732  48.255  1.00  0.00     0.024 C 
HETATM   20  C15 UNL     1      34.566   5.866  48.735  1.00  0.00     0.134 C 
HETATM   21  O1  UNL     1      33.238   6.257  48.974  1.00  0.00    -0.361 OA
HETATM   22  C14 UNL     1      32.073   5.412  49.040  1.00  0.00     0.199 C 
ENDBRANCH  13  15
ENDBRANCH   1  13
TORSDOF 2
ENDMDL
MODEL 9
REMARK VINA RESULT:      -6.9      3.352      6.394
REMARK  2 active torsions:
REMARK  status: ('A' for Active; 'I' for Inactive)
REMARK    1  A    between atoms: C4_4  and  N1_5 
REMARK    2  A    between atoms: N1_5  and  C5_6 
ROOT
HETATM    1  C5  UNL     1      24.380   2.104  51.596  1.00  0.00     0.139 A 
HETATM    2  N2  UNL     1      25.493   2.561  51.037  1.00  0.00    -0.224 NA
HETATM    3  C6  UNL     1      26.689   2.078  51.328  1.00  0.00     0.236 A 
HETATM    4  N3  UNL     1      26.749   1.085  52.230  1.00  0.00    -0.234 NA
HETATM    5  C7  UNL     1      25.643   0.616  52.799  1.00  0.00     0.114 A 
HETATM    6  S1  UNL     1      25.376  -0.674  54.013  1.00  0.00    -0.073 SA
HETATM    7  C8  UNL     1      23.601  -0.505  54.083  1.00  0.00    -0.008 A 
HETATM    8  C9  UNL     1      23.321   0.483  53.215  1.00  0.00    -0.028 A 
HETATM    9  C10 UNL     1      24.339   1.094  52.526  1.00  0.00     0.053 A 
HETATM   10  C11 UNL     1      21.833   0.629  53.270  1.00  0.00     0.041 A 
HETATM   11  C12 UNL     1      21.312  -0.354  54.252  1.00  0.00     0.010 A 
HETATM   12  C13 UNL     1      22.477  -1.112  54.781  1.00  0.00     0.047 A 
ENDROOT
BRANCH   1  13
HETATM   13  N1  UNL     1      23.216   2.773  51.131  1.00  0.00    -0.367 N 
HETATM   14  H6  UNL     1      22.350   2.204  51.048  1.00  0.00     0.161 HD
BRANCH  13  15
HETATM   15  C4  UNL     1      23.184   4.188  50.775  1.00  0.00     0.111 C 
HETATM   16  C3  UNL     1      22.408   4.983  51.739  1.00  0.00     0.054 C 
HETATM   17  C2  UNL     1      21.744   6.200  51.293  1.00  0.00    -0.024 C 
HETATM   18  C1  UNL     1      21.741   7.198  50.388  1.00  0.00    -0.002 C 
HETATM   19  C16 UNL     1      22.633   7.487  49.237  1.00  0.00     0.024 C 
HETATM   20  C15 UNL     1      23.397   6.630  48.527  1.00  0.00     0.134 C 
HETATM   21  O1  UNL     1      23.614   5.244  48.613  1.00  0.00    -0.361 OA
HETATM   22  C14 UNL     1      22.827   4.276  49.334  1.00  0.00     0.199 C 
ENDBRANCH  13  15
ENDBRANCH   1  13
TORSDOF 2
ENDMDL
