MODEL 1
REMARK VINA RESULT:      -8.2      0.000      0.000
REMARK  2 active torsions:
REMARK  status: ('A' for Active; 'I' for Inactive)
REMARK    1  A    between atoms: O1_2  and  C2_3 
REMARK    2  A    between atoms: C6_9  and  C7_10 
ROOT
HETATM    1  C2  UNL     1      20.817   3.772  49.811  1.00  0.00     0.102 C 
HETATM    2  C3  UNL     1      20.844   5.045  50.157  1.00  0.00     0.058 C 
HETATM    3  C4  UNL     1      21.557   5.710  51.226  1.00  0.00     0.116 C 
HETATM    4  N1  UNL     1      22.348   5.262  52.131  1.00  0.00    -0.270 NA
HETATM    5  C5  UNL     1      22.699   3.902  52.258  1.00  0.00     0.269 C 
HETATM    6  N2  UNL     1      22.927   2.740  52.652  1.00  0.00    -0.282 NA
HETATM    7  C6  UNL     1      23.413   1.574  52.029  1.00  0.00     0.089 C 
HETATM    8  C13 UNL     1      23.735   1.735  50.532  1.00  0.00     0.068 C 
HETATM    9  C14 UNL     1      22.567   2.222  49.767  1.00  0.00     0.016 C 
HETATM   10  C15 UNL     1      21.358   2.469  50.180  1.00  0.00     0.099 C 
HETATM   11  O2  UNL     1      20.655   1.562  50.911  1.00  0.00    -0.343 OA
HETATM   12  C16 UNL     1      21.018   0.741  51.960  1.00  0.00     0.140 C 
HETATM   13  C17 UNL     1      20.417   1.217  53.263  1.00  0.00     0.059 C 
HETATM   14  C18 UNL     1      20.739   0.257  54.387  1.00  0.00     0.170 C 
HETATM   15  O3  UNL     1      22.054  -0.099  54.435  1.00  0.00    -0.390 OA
HETATM   16  C19 UNL     1      22.637  -0.507  53.262  1.00  0.00     0.177 C 
HETATM   17  C20 UNL     1      22.474   0.398  52.088  1.00  0.00     0.074 C 
ENDROOT
BRANCH   7  18
HETATM   18  C7  UNL     1      24.702   1.249  52.692  1.00  0.00    -0.026 A 
HETATM   19  C8  UNL     1      25.384   2.035  53.594  1.00  0.00     0.013 A 
HETATM   20  C9  UNL     1      26.565   1.731  54.217  1.00  0.00     0.044 A 
HETATM   21  C10 UNL     1      27.152   0.519  53.925  1.00  0.00     0.138 A 
HETATM   22  F1  UNL     1      28.320   0.202  54.532  1.00  0.00    -0.204 F 
HETATM   23  C11 UNL     1      26.551  -0.340  53.035  1.00  0.00     0.073 A 
HETATM   24 CL1  UNL     1      27.319  -1.873  52.683  1.00  0.00    -0.081 Cl
HETATM   25  C12 UNL     1      25.368   0.038  52.453  1.00  0.00     0.036 A 
ENDBRANCH   7  18
BRANCH   1  26
HETATM   26  O1  UNL     1      20.112   3.146  48.762  1.00  0.00    -0.353 OA
HETATM   27  C1  UNL     1      19.770   4.033  47.696  1.00  0.00     0.210 C 
ENDBRANCH   1  26
TORSDOF 2
ENDMDL
MODEL 2
REMARK VINA RESULT:      -8.2      3.521      5.889
REMARK  2 active torsions:
REMARK  status: ('A' for Active; 'I' for Inactive)
REMARK    1  A    between atoms: O1_2  and  C2_3 
REMARK    2  A    between atoms: C6_9  and  C7_10 
ROOT
HETATM    1  C2  UNL     1      22.945   0.697  53.209  1.00  0.00     0.102 C 
HETATM    2  C3  UNL     1      23.989  -0.098  53.346  1.00  0.00     0.058 C 
HETATM    3  C4  UNL     1      25.306  -0.026  52.749  1.00  0.00     0.116 C 
HETATM    4  N1  UNL     1      25.825   0.811  51.929  1.00  0.00    -0.270 NA
HETATM    5  C5  UNL     1      25.135   1.925  51.406  1.00  0.00     0.269 C 
HETATM    6  N2  UNL     1      24.617   2.802  50.686  1.00  0.00    -0.282 NA
HETATM    7  C6  UNL     1      23.839   3.947  50.945  1.00  0.00     0.089 C 
HETATM    8  C13 UNL     1      23.541   4.194  52.435  1.00  0.00     0.068 C 
HETATM    9  C14 UNL     1      22.881   3.030  53.065  1.00  0.00     0.016 C 
HETATM   10  C15 UNL     1      22.504   1.907  52.526  1.00  0.00     0.099 C 
HETATM   11  O2  UNL     1      21.749   1.879  51.395  1.00  0.00    -0.343 OA
HETATM   12  C16 UNL     1      21.812   2.606  50.223  1.00  0.00     0.140 C 
HETATM   13  C17 UNL     1      22.312   1.757  49.076  1.00  0.00     0.059 C 
HETATM   14  C18 UNL     1      22.284   2.535  47.778  1.00  0.00     0.170 C 
HETATM   15  O3  UNL     1      22.834   3.777  47.880  1.00  0.00    -0.390 OA
HETATM   16  C19 UNL     1      22.423   4.562  48.928  1.00  0.00     0.177 C 
HETATM   17  C20 UNL     1      22.486   3.946  50.284  1.00  0.00     0.074 C 
ENDROOT
BRANCH   7  18
HETATM   18  C7  UNL     1      24.643   5.112  50.491  1.00  0.00    -0.026 A 
HETATM   19  C8  UNL     1      24.422   6.435  50.804  1.00  0.00     0.013 A 
HETATM   20  C9  UNL     1      25.169   7.508  50.397  1.00  0.00     0.044 A 
HETATM   21  C10 UNL     1      26.259   7.264  49.590  1.00  0.00     0.138 A 
HETATM   22  F1  UNL     1      27.010   8.314  49.179  1.00  0.00    -0.204 F 
HETATM   23  C11 UNL     1      26.566   5.976  49.220  1.00  0.00     0.073 A 
HETATM   24 CL1  UNL     1      27.956   5.694  48.194  1.00  0.00    -0.081 Cl
HETATM   25  C12 UNL     1      25.767   4.955  49.669  1.00  0.00     0.036 A 
ENDBRANCH   7  18
BRANCH   1  26
HETATM   26  O1  UNL     1      21.669   0.606  53.802  1.00  0.00    -0.353 OA
HETATM   27  C1  UNL     1      21.528  -0.510  54.682  1.00  0.00     0.210 C 
ENDBRANCH   1  26
TORSDOF 2
ENDMDL
MODEL 3
REMARK VINA RESULT:      -8.2      4.427      6.285
REMARK  2 active torsions:
REMARK  status: ('A' for Active; 'I' for Inactive)
REMARK    1  A    between atoms: O1_2  and  C2_3 
REMARK    2  A    between atoms: C6_9  and  C7_10 
ROOT
HETATM    1  C2  UNL     1      22.329   1.571  50.775  1.00  0.00     0.102 C 
HETATM    2  C3  UNL     1      21.739   1.041  49.720  1.00  0.00     0.058 C 
HETATM    3  C4  UNL     1      21.661   1.514  48.355  1.00  0.00     0.116 C 
HETATM    4  N1  UNL     1      22.129   2.565  47.789  1.00  0.00    -0.270 NA
HETATM    5  C5  UNL     1      22.879   3.549  48.466  1.00  0.00     0.269 C 
HETATM    6  N2  UNL     1      23.346   4.603  48.943  1.00  0.00    -0.282 NA
HETATM    7  C6  UNL     1      24.436   4.897  49.785  1.00  0.00     0.089 C 
HETATM    8  C13 UNL     1      25.244   3.668  50.238  1.00  0.00     0.068 C 
HETATM    9  C14 UNL     1      24.390   2.665  50.912  1.00  0.00     0.016 C 
HETATM   10  C15 UNL     1      23.120   2.722  51.191  1.00  0.00     0.099 C 
HETATM   11  O2  UNL     1      22.578   3.794  51.830  1.00  0.00    -0.343 OA
HETATM   12  C16 UNL     1      22.769   5.153  51.679  1.00  0.00     0.140 C 
HETATM   13  C17 UNL     1      21.568   5.808  51.035  1.00  0.00     0.059 C 
HETATM   14  C18 UNL     1      21.746   7.309  50.965  1.00  0.00     0.170 C 
HETATM   15  O3  UNL     1      22.961   7.686  50.475  1.00  0.00    -0.390 OA
HETATM   16  C19 UNL     1      24.070   7.088  51.017  1.00  0.00     0.177 C 
HETATM   17  C20 UNL     1      24.065   5.598  51.065  1.00  0.00     0.074 C 
ENDROOT
BRANCH   7  18
HETATM   18  C7  UNL     1      25.373   5.729  48.985  1.00  0.00    -0.026 A 
HETATM   19  C8  UNL     1      25.042   6.800  48.185  1.00  0.00     0.013 A 
HETATM   20  C9  UNL     1      25.905   7.576  47.459  1.00  0.00     0.044 A 
HETATM   21  C10 UNL     1      27.248   7.273  47.517  1.00  0.00     0.138 A 
HETATM   22  F1  UNL     1      28.116   8.031  46.805  1.00  0.00    -0.204 F 
HETATM   23  C11 UNL     1      27.682   6.220  48.288  1.00  0.00     0.073 A 
HETATM   24 CL1  UNL     1      29.394   5.857  48.345  1.00  0.00    -0.081 Cl
HETATM   25  C12 UNL     1      26.754   5.490  48.987  1.00  0.00     0.036 A 
ENDBRANCH   7  18
BRANCH   1  26
HETATM   26  O1  UNL     1      22.391   1.089  52.099  1.00  0.00    -0.353 OA
HETATM   27  C1  UNL     1      21.714  -0.154  52.286  1.00  0.00     0.210 C 
ENDBRANCH   1  26
TORSDOF 2
ENDMDL
MODEL 4
REMARK VINA RESULT:      -7.8      2.781      4.365
REMARK  2 active torsions:
REMARK  status: ('A' for Active; 'I' for Inactive)
REMARK    1  A    between atoms: O1_2  and  C2_3 
REMARK    2  A    between atoms: C6_9  and  C7_10 
ROOT
HETATM    1  C2  UNL     1      23.693   6.886  48.625  1.00  0.00     0.102 C 
HETATM    2  C3  UNL     1      23.177   7.868  49.339  1.00  0.00     0.058 C 
HETATM    3  C4  UNL     1      22.322   7.828  50.507  1.00  0.00     0.116 C 
HETATM    4  N1  UNL     1      21.828   6.847  51.167  1.00  0.00    -0.270 NA
HETATM    5  C5  UNL     1      22.049   5.493  50.839  1.00  0.00     0.269 C 
HETATM    6  N2  UNL     1      21.950   4.281  50.563  1.00  0.00    -0.282 NA
HETATM    7  C6  UNL     1      22.881   3.265  50.270  1.00  0.00     0.089 C 
HETATM    8  C13 UNL     1      24.350   3.722  50.279  1.00  0.00     0.068 C 
HETATM    9  C14 UNL     1      24.582   4.850  49.350  1.00  0.00     0.016 C 
HETATM   10  C15 UNL     1      23.746   5.432  48.540  1.00  0.00     0.099 C 
HETATM   11  O2  UNL     1      22.976   4.718  47.676  1.00  0.00    -0.343 OA
HETATM   12  C16 UNL     1      22.261   3.546  47.827  1.00  0.00     0.140 C 
HETATM   13  C17 UNL     1      20.772   3.810  47.846  1.00  0.00     0.059 C 
HETATM   14  C18 UNL     1      19.997   2.513  47.912  1.00  0.00     0.170 C 
HETATM   15  O3  UNL     1      20.459   1.655  48.865  1.00  0.00    -0.390 OA
HETATM   16  C19 UNL     1      21.810   1.417  48.895  1.00  0.00     0.177 C 
HETATM   17  C20 UNL     1      22.695   2.617  48.923  1.00  0.00     0.074 C 
ENDROOT
BRANCH   7  18
HETATM   18  C7  UNL     1      22.760   2.258  51.357  1.00  0.00    -0.026 A 
HETATM   19  C8  UNL     1      21.632   1.978  52.096  1.00  0.00     0.013 A 
HETATM   20  C9  UNL     1      21.515   1.041  53.088  1.00  0.00     0.044 A 
HETATM   21  C10 UNL     1      22.627   0.289  53.397  1.00  0.00     0.138 A 
HETATM   22  F1  UNL     1      22.530  -0.642  54.375  1.00  0.00    -0.204 F 
HETATM   23  C11 UNL     1      23.805   0.492  52.717  1.00  0.00     0.073 A 
HETATM   24 CL1  UNL     1      25.204  -0.477  53.130  1.00  0.00    -0.081 Cl
HETATM   25  C12 UNL     1      23.841   1.450  51.736  1.00  0.00     0.036 A 
ENDBRANCH   7  18
BRANCH   1  26
HETATM   26  O1  UNL     1      24.524   6.952  47.487  1.00  0.00    -0.353 OA
HETATM   27  C1  UNL     1      25.462   8.027  47.528  1.00  0.00     0.210 C 
ENDBRANCH   1  26
TORSDOF 2
ENDMDL
MODEL 5
REMARK VINA RESULT:      -7.8     10.113     11.465
REMARK  2 active torsions:
REMARK  status: ('A' for Active; 'I' for Inactive)
REMARK    1  A    between atoms: O1_2  and  C2_3 
REMARK    2  A    between atoms: C6_9  and  C7_10 
ROOT
HETATM    1  C2  UNL     1      28.570   9.830  48.908  1.00  0.00     0.102 C 
HETATM    2  C3  UNL     1      27.477   9.119  49.109  1.00  0.00     0.058 C 
HETATM    3  C4  UNL     1      27.226   7.708  48.903  1.00  0.00     0.116 C 
HETATM    4  N1  UNL     1      27.977   6.764  48.470  1.00  0.00    -0.270 NA
HETATM    5  C5  UNL     1      29.318   6.950  48.076  1.00  0.00     0.269 C 
HETATM    6  N2  UNL     1      30.416   6.975  47.483  1.00  0.00    -0.282 NA
HETATM    7  C6  UNL     1      31.691   7.479  47.806  1.00  0.00     0.089 C 
HETATM    8  C13 UNL     1      31.780   8.157  49.185  1.00  0.00     0.068 C 
HETATM    9  C14 UNL     1      30.797   9.253  49.324  1.00  0.00     0.016 C 
HETATM   10  C15 UNL     1      29.949   9.713  48.450  1.00  0.00     0.099 C 
HETATM   11  O2  UNL     1      30.337  10.056  47.193  1.00  0.00    -0.343 OA
HETATM   12  C16 UNL     1      31.184   9.446  46.288  1.00  0.00     0.140 C 
HETATM   13  C17 UNL     1      30.413   8.842  45.136  1.00  0.00     0.059 C 
HETATM   14  C18 UNL     1      31.355   8.264  44.103  1.00  0.00     0.170 C 
HETATM   15  O3  UNL     1      32.331   7.479  44.640  1.00  0.00    -0.390 OA
HETATM   16  C19 UNL     1      33.029   7.986  45.707  1.00  0.00     0.177 C 
HETATM   17  C20 UNL     1      32.218   8.510  46.843  1.00  0.00     0.074 C 
ENDROOT
BRANCH   7  18
HETATM   18  C7  UNL     1      32.602   6.306  47.868  1.00  0.00    -0.026 A 
HETATM   19  C8  UNL     1      33.870   6.278  48.406  1.00  0.00     0.013 A 
HETATM   20  C9  UNL     1      34.705   5.195  48.476  1.00  0.00     0.044 A 
HETATM   21  C10 UNL     1      34.253   4.000  47.961  1.00  0.00     0.138 A 
HETATM   22  F1  UNL     1      35.066   2.918  48.022  1.00  0.00    -0.204 F 
HETATM   23  C11 UNL     1      33.000   3.922  47.400  1.00  0.00     0.073 A 
HETATM   24 CL1  UNL     1      32.451   2.391  46.752  1.00  0.00    -0.081 Cl
HETATM   25  C12 UNL     1      32.223   5.052  47.367  1.00  0.00     0.036 A 
ENDBRANCH   7  18
BRANCH   1  26
HETATM   26  O1  UNL     1      28.790  11.207  49.117  1.00  0.00    -0.353 OA
HETATM   27  C1  UNL     1      27.792  12.040  48.526  1.00  0.00     0.210 C 
ENDBRANCH   1  26
TORSDOF 2
ENDMDL
MODEL 6
REMARK VINA RESULT:      -7.6      3.494      5.892
REMARK  2 active torsions:
REMARK  status: ('A' for Active; 'I' for Inactive)
REMARK    1  A    between atoms: O1_2  and  C2_3 
REMARK    2  A    between atoms: C6_9  and  C7_10 
ROOT
HETATM    1  C2  UNL     1      20.033   0.242  52.711  1.00  0.00     0.102 C 
HETATM    2  C3  UNL     1      20.953  -0.250  53.518  1.00  0.00     0.058 C 
HETATM    3  C4  UNL     1      22.325   0.157  53.734  1.00  0.00     0.116 C 
HETATM    4  N1  UNL     1      23.029   1.091  53.209  1.00  0.00    -0.270 NA
HETATM    5  C5  UNL     1      22.542   1.979  52.228  1.00  0.00     0.269 C 
HETATM    6  N2  UNL     1      22.355   2.682  51.214  1.00  0.00    -0.282 NA
HETATM    7  C6  UNL     1      21.349   3.587  50.823  1.00  0.00     0.089 C 
HETATM    8  C13 UNL     1      20.215   3.764  51.848  1.00  0.00     0.068 C 
HETATM    9  C14 UNL     1      19.576   2.475  52.190  1.00  0.00     0.016 C 
HETATM   10  C15 UNL     1      19.816   1.287  51.717  1.00  0.00     0.099 C 
HETATM   11  O2  UNL     1      19.862   1.049  50.379  1.00  0.00    -0.343 OA
HETATM   12  C16 UNL     1      20.425   1.754  49.334  1.00  0.00     0.140 C 
HETATM   13  C17 UNL     1      21.652   1.052  48.796  1.00  0.00     0.059 C 
HETATM   14  C18 UNL     1      22.203   1.780  47.590  1.00  0.00     0.170 C 
HETATM   15  O3  UNL     1      22.323   3.125  47.778  1.00  0.00    -0.390 OA
HETATM   16  C19 UNL     1      21.237   3.787  48.293  1.00  0.00     0.177 C 
HETATM   17  C20 UNL     1      20.647   3.224  49.541  1.00  0.00     0.074 C 
ENDROOT
BRANCH   7  18
HETATM   18  C7  UNL     1      22.003   4.916  50.703  1.00  0.00    -0.026 A 
HETATM   19  C8  UNL     1      21.395   6.146  50.826  1.00  0.00     0.013 A 
HETATM   20  C9  UNL     1      21.998   7.371  50.730  1.00  0.00     0.044 A 
HETATM   21  C10 UNL     1      23.354   7.403  50.484  1.00  0.00     0.138 A 
HETATM   22  F1  UNL     1      23.967   8.606  50.386  1.00  0.00    -0.204 F 
HETATM   23  C11 UNL     1      24.055   6.228  50.344  1.00  0.00     0.073 A 
HETATM   24 CL1  UNL     1      25.776   6.298  50.032  1.00  0.00    -0.081 Cl
HETATM   25  C12 UNL     1      23.377   5.041  50.454  1.00  0.00     0.036 A 
ENDBRANCH   7  18
BRANCH   1  26
HETATM   26  O1  UNL     1      18.699  -0.173  52.518  1.00  0.00    -0.353 OA
HETATM   27  C1  UNL     1      18.353  -1.342  53.262  1.00  0.00     0.210 C 
ENDBRANCH   1  26
TORSDOF 2
ENDMDL
MODEL 7
REMARK VINA RESULT:      -7.4      2.305      3.746
REMARK  2 active torsions:
REMARK  status: ('A' for Active; 'I' for Inactive)
REMARK    1  A    between atoms: O1_2  and  C2_3 
REMARK    2  A    between atoms: C6_9  and  C7_10 
ROOT
HETATM    1  C2  UNL     1      19.057   3.340  49.549  1.00  0.00     0.102 C 
HETATM    2  C3  UNL     1      19.094   3.059  48.261  1.00  0.00     0.058 C 
HETATM    3  C4  UNL     1      20.216   2.739  47.404  1.00  0.00     0.116 C 
HETATM    4  N1  UNL     1      21.472   2.642  47.645  1.00  0.00    -0.270 NA
HETATM    5  C5  UNL     1      22.042   2.853  48.918  1.00  0.00     0.269 C 
HETATM    6  N2  UNL     1      22.725   3.222  49.895  1.00  0.00    -0.282 NA
HETATM    7  C6  UNL     1      22.710   2.916  51.270  1.00  0.00     0.089 C 
HETATM    8  C13 UNL     1      21.620   1.915  51.691  1.00  0.00     0.068 C 
HETATM    9  C14 UNL     1      20.269   2.375  51.300  1.00  0.00     0.016 C 
HETATM   10  C15 UNL     1      19.915   3.484  50.719  1.00  0.00     0.099 C 
HETATM   11  O2  UNL     1      20.327   4.695  51.183  1.00  0.00    -0.343 OA
HETATM   12  C16 UNL     1      21.550   5.140  51.644  1.00  0.00     0.140 C 
HETATM   13  C17 UNL     1      22.203   6.076  50.653  1.00  0.00     0.059 C 
HETATM   14  C18 UNL     1      23.494   6.635  51.210  1.00  0.00     0.170 C 
HETATM   15  O3  UNL     1      24.306   5.683  51.751  1.00  0.00    -0.390 OA
HETATM   16  C19 UNL     1      23.737   4.799  52.632  1.00  0.00     0.177 C 
HETATM   17  C20 UNL     1      22.500   4.105  52.171  1.00  0.00     0.074 C 
ENDROOT
BRANCH   7  18
HETATM   18  C7  UNL     1      24.008   2.256  51.567  1.00  0.00    -0.026 A 
HETATM   19  C8  UNL     1      25.210   2.482  50.933  1.00  0.00     0.013 A 
HETATM   20  C9  UNL     1      26.409   1.885  51.216  1.00  0.00     0.044 A 
HETATM   21  C10 UNL     1      26.442   0.958  52.234  1.00  0.00     0.138 A 
HETATM   22  F1  UNL     1      27.620   0.358  52.527  1.00  0.00    -0.204 F 
HETATM   23  C11 UNL     1      25.294   0.660  52.930  1.00  0.00     0.073 A 
HETATM   24 CL1  UNL     1      25.364  -0.522  54.220  1.00  0.00    -0.081 Cl
HETATM   25  C12 UNL     1      24.132   1.301  52.587  1.00  0.00     0.036 A 
ENDBRANCH   7  18
BRANCH   1  26
HETATM   26  O1  UNL     1      17.948   3.649  50.364  1.00  0.00    -0.353 OA
HETATM   27  C1  UNL     1      16.914   4.354  49.675  1.00  0.00     0.210 C 
ENDBRANCH   1  26
TORSDOF 2
ENDMDL
MODEL 8
REMARK VINA RESULT:      -7.4      9.094     10.305
REMARK  2 active torsions:
REMARK  status: ('A' for Active; 'I' for Inactive)
REMARK    1  A    between atoms: O1_2  and  C2_3 
REMARK    2  A    between atoms: C6_9  and  C7_10 
ROOT
HETATM    1  C2  UNL     1      25.810   8.287  48.037  1.00  0.00     0.102 C 
HETATM    2  C3  UNL     1      25.261   8.570  46.871  1.00  0.00     0.058 C 
HETATM    3  C4  UNL     1      25.854   8.664  45.554  1.00  0.00     0.116 C 
HETATM    4  N1  UNL     1      27.061   8.509  45.151  1.00  0.00    -0.270 NA
HETATM    5  C5  UNL     1      28.136   8.186  46.005  1.00  0.00     0.269 C 
HETATM    6  N2  UNL     1      29.214   8.134  46.630  1.00  0.00    -0.282 NA
HETATM    7  C6  UNL     1      29.724   7.284  47.632  1.00  0.00     0.089 C 
HETATM    8  C13 UNL     1      28.760   6.170  48.077  1.00  0.00     0.068 C 
HETATM    9  C14 UNL     1      27.465   6.715  48.541  1.00  0.00     0.016 C 
HETATM   10  C15 UNL     1      27.089   7.955  48.655  1.00  0.00     0.099 C 
HETATM   11  O2  UNL     1      27.850   8.874  49.308  1.00  0.00    -0.343 OA
HETATM   12  C16 UNL     1      29.209   9.119  49.304  1.00  0.00     0.140 C 
HETATM   13  C17 UNL     1      29.533  10.400  48.569  1.00  0.00     0.059 C 
HETATM   14  C18 UNL     1      31.011  10.710  48.655  1.00  0.00     0.170 C 
HETATM   15  O3  UNL     1      31.806   9.642  48.365  1.00  0.00    -0.390 OA
HETATM   16  C19 UNL     1      31.519   8.456  48.994  1.00  0.00     0.177 C 
HETATM   17  C20 UNL     1      30.108   7.984  48.909  1.00  0.00     0.074 C 
ENDROOT
BRANCH   7  18
HETATM   18  C7  UNL     1      30.899   6.594  47.039  1.00  0.00    -0.026 A 
HETATM   19  C8  UNL     1      31.697   7.061  46.017  1.00  0.00     0.013 A 
HETATM   20  C9  UNL     1      32.788   6.433  45.480  1.00  0.00     0.044 A 
HETATM   21  C10 UNL     1      33.145   5.206  45.997  1.00  0.00     0.138 A 
HETATM   22  F1  UNL     1      34.222   4.571  45.478  1.00  0.00    -0.204 F 
HETATM   23  C11 UNL     1      32.412   4.652  47.020  1.00  0.00     0.073 A 
HETATM   24 CL1  UNL     1      32.887   3.093  47.659  1.00  0.00    -0.081 Cl
HETATM   25  C12 UNL     1      31.331   5.344  47.505  1.00  0.00     0.036 A 
ENDBRANCH   7  18
BRANCH   1  26
HETATM   26  O1  UNL     1      25.209   8.202  49.310  1.00  0.00    -0.353 OA
HETATM   27  C1  UNL     1      23.804   8.454  49.295  1.00  0.00     0.210 C 
ENDBRANCH   1  26
TORSDOF 2
ENDMDL
MODEL 9
REMARK VINA RESULT:      -7.3      5.727      7.388
REMARK  2 active torsions:
REMARK  status: ('A' for Active; 'I' for Inactive)
REMARK    1  A    between atoms: O1_2  and  C2_3 
REMARK    2  A    between atoms: C6_9  and  C7_10 
ROOT
HETATM    1  C2  UNL     1      27.944   8.807  47.521  1.00  0.00     0.102 C 
HETATM    2  C3  UNL     1      28.427   9.700  48.363  1.00  0.00     0.058 C 
HETATM    3  C4  UNL     1      28.100   9.953  49.750  1.00  0.00     0.116 C 
HETATM    4  N1  UNL     1      27.259   9.396  50.542  1.00  0.00    -0.270 NA
HETATM    5  C5  UNL     1      26.417   8.330  50.164  1.00  0.00     0.269 C 
HETATM    6  N2  UNL     1      25.460   7.560  49.943  1.00  0.00    -0.282 NA
HETATM    7  C6  UNL     1      25.347   6.284  49.358  1.00  0.00     0.089 C 
HETATM    8  C13 UNL     1      26.678   5.683  48.871  1.00  0.00     0.068 C 
HETATM    9  C14 UNL     1      27.367   6.575  47.914  1.00  0.00     0.016 C 
HETATM   10  C15 UNL     1      26.978   7.719  47.429  1.00  0.00     0.099 C 
HETATM   11  O2  UNL     1      25.745   7.876  46.877  1.00  0.00    -0.343 OA
HETATM   12  C16 UNL     1      24.496   7.433  47.264  1.00  0.00     0.140 C 
HETATM   13  C17 UNL     1      23.645   8.571  47.780  1.00  0.00     0.059 C 
HETATM   14  C18 UNL     1      22.248   8.094  48.108  1.00  0.00     0.170 C 
HETATM   15  O3  UNL     1      22.228   6.953  48.854  1.00  0.00    -0.390 OA
HETATM   16  C19 UNL     1      23.012   5.911  48.429  1.00  0.00     0.177 C 
HETATM   17  C20 UNL     1      24.443   6.226  48.155  1.00  0.00     0.074 C 
ENDROOT
BRANCH   7  18
HETATM   18  C7  UNL     1      24.855   5.375  50.426  1.00  0.00    -0.026 A 
HETATM   19  C8  UNL     1      23.953   5.686  51.420  1.00  0.00     0.013 A 
HETATM   20  C9  UNL     1      23.488   4.846  52.396  1.00  0.00     0.044 A 
HETATM   21  C10 UNL     1      23.958   3.551  52.407  1.00  0.00     0.138 A 
HETATM   22  F1  UNL     1      23.509   2.706  53.366  1.00  0.00    -0.204 F 
HETATM   23  C11 UNL     1      24.864   3.139  51.458  1.00  0.00     0.073 A 
HETATM   24 CL1  UNL     1      25.445   1.488  51.495  1.00  0.00    -0.081 Cl
HETATM   25  C12 UNL     1      25.281   4.042  50.512  1.00  0.00     0.036 A 
ENDBRANCH   7  18
BRANCH   1  26
HETATM   26  O1  UNL     1      28.280   8.580  46.170  1.00  0.00    -0.353 OA
HETATM   27  C1  UNL     1      29.594   9.021  45.828  1.00  0.00     0.210 C 
ENDBRANCH   1  26
TORSDOF 2
ENDMDL
