MODEL 1
REMARK VINA RESULT:      -9.3      0.000      0.000
REMARK  4 active torsions:
REMARK  status: ('A' for Active; 'I' for Inactive)
REMARK    1  A    between atoms: N1_1  and  C1_2 
REMARK    2  A    between atoms: N2_5  and  C4_6 
REMARK    3  A    between atoms: C4_6  and  C5_7 
REMARK    4  A    between atoms: C10_14  and  C11_15 
ROOT
HETATM    1  C5  UNL     1      23.852   0.198  53.465  1.00  0.00    -0.023 A 
HETATM    2  C6  UNL     1      22.844   0.319  52.637  1.00  0.00    -0.034 A 
HETATM    3  C7  UNL     1      21.809   0.619  51.603  1.00  0.00    -0.040 A 
HETATM    4  C8  UNL     1      21.541   0.926  50.361  1.00  0.00     0.042 A 
HETATM    5  C9  UNL     1      20.106   1.043  50.142  1.00  0.00     0.085 A 
HETATM    6  N3  UNL     1      19.504   1.328  49.038  1.00  0.00    -0.178 NA
HETATM    7  N4  UNL     1      18.123   1.343  49.253  1.00  0.00    -0.300 N 
HETATM    8  C10 UNL     1      17.790   1.019  50.628  1.00  0.00     0.169 A 
HETATM    9  C17 UNL     1      19.149   0.840  51.222  1.00  0.00    -0.002 A 
HETATM   10  C18 UNL     1      19.570   0.553  52.458  1.00  0.00    -0.004 A 
HETATM   11  C19 UNL     1      20.928   0.420  52.895  1.00  0.00     0.054 A 
HETATM   12  C20 UNL     1      21.742  -0.765  52.976  1.00  0.00     0.054 A 
HETATM   13  C21 UNL     1      22.293  -1.407  54.137  1.00  0.00    -0.016 A 
HETATM   14  C22 UNL     1      23.494  -0.865  54.398  1.00  0.00     0.006 A 
HETATM   15  H11 UNL     1      17.388   1.558  48.525  1.00  0.00     0.183 HD
ENDROOT
BRANCH   1  16
HETATM   16  C4  UNL     1      25.078   1.010  53.448  1.00  0.00     0.311 C 
BRANCH  16  17
HETATM   17  N2  UNL     1      25.998   0.552  52.453  1.00  0.00     0.092 N 
HETATM   18  C3  UNL     1      26.802   1.661  51.926  1.00  0.00     0.275 C 
HETATM   19  C2  UNL     1      27.625   2.310  52.981  1.00  0.00     0.065 C 
HETATM   20  C1  UNL     1      28.588   1.278  53.520  1.00  0.00     0.221 C 
HETATM   21  C24 UNL     1      27.839   0.114  54.065  1.00  0.00     0.065 C 
HETATM   22  C23 UNL     1      26.890  -0.432  53.054  1.00  0.00     0.275 C 
BRANCH  20  23
HETATM   23  N1  UNL     1      29.378   1.948  54.539  1.00  0.00     0.083 N 
HETATM   24  H1  UNL     1      29.416   2.955  54.351  1.00  0.00     0.313 HD
HETATM   25  H2  UNL     1      29.020   1.703  55.485  1.00  0.00     0.313 HD
ENDBRANCH  20  23
ENDBRANCH  16  17
ENDBRANCH   1  16
BRANCH   8  26
HETATM   26  C11 UNL     1      16.985   2.041  51.306  1.00  0.00    -0.027 A 
HETATM   27  C12 UNL     1      17.419   3.354  51.224  1.00  0.00     0.010 A 
HETATM   28  C13 UNL     1      16.729   4.373  51.829  1.00  0.00     0.004 A 
HETATM   29  C14 UNL     1      15.585   4.036  52.520  1.00  0.00     0.042 A 
HETATM   30  C15 UNL     1      15.162   2.726  52.595  1.00  0.00     0.117 A 
HETATM   31  F1  UNL     1      14.025   2.496  53.299  1.00  0.00    -0.206 F 
HETATM   32  C16 UNL     1      15.851   1.691  51.990  1.00  0.00     0.051 A 
ENDBRANCH   8  26
TORSDOF 4
ENDMDL
MODEL 2
REMARK VINA RESULT:      -8.4      3.393      3.996
REMARK  4 active torsions:
REMARK  status: ('A' for Active; 'I' for Inactive)
REMARK    1  A    between atoms: N1_1  and  C1_2 
REMARK    2  A    between atoms: N2_5  and  C4_6 
REMARK    3  A    between atoms: C4_6  and  C5_7 
REMARK    4  A    between atoms: C10_14  and  C11_15 
ROOT
HETATM    1  C5  UNL     1      23.071  -0.025  53.253  1.00  0.00    -0.023 A 
HETATM    2  C6  UNL     1      22.526   0.610  52.245  1.00  0.00    -0.034 A 
HETATM    3  C7  UNL     1      22.097   1.316  51.001  1.00  0.00    -0.040 A 
HETATM    4  C8  UNL     1      22.139   1.385  49.696  1.00  0.00     0.042 A 
HETATM    5  C9  UNL     1      21.346   2.501  49.199  1.00  0.00     0.085 A 
HETATM    6  N3  UNL     1      21.169   2.847  47.969  1.00  0.00    -0.178 NA
HETATM    7  N4  UNL     1      20.341   3.972  47.919  1.00  0.00    -0.300 N 
HETATM    8  C10 UNL     1      19.922   4.390  49.245  1.00  0.00     0.169 A 
HETATM    9  C17 UNL     1      20.631   3.393  50.102  1.00  0.00    -0.002 A 
HETATM   10  C18 UNL     1      20.699   3.217  51.426  1.00  0.00    -0.004 A 
HETATM   11  C19 UNL     1      21.439   2.207  52.123  1.00  0.00     0.054 A 
HETATM   12  C20 UNL     1      21.004   0.907  52.563  1.00  0.00     0.054 A 
HETATM   13  C21 UNL     1      20.869   0.405  53.903  1.00  0.00    -0.016 A 
HETATM   14  C22 UNL     1      22.040  -0.134  54.279  1.00  0.00     0.006 A 
HETATM   15  H11 UNL     1      20.039   4.478  47.041  1.00  0.00     0.183 HD
ENDROOT
BRANCH   1  16
HETATM   16  C4  UNL     1      24.464  -0.495  53.318  1.00  0.00     0.311 C 
BRANCH  16  17
HETATM   17  N2  UNL     1      25.332   0.324  52.529  1.00  0.00     0.092 N 
HETATM   18  C3  UNL     1      25.859   1.445  53.314  1.00  0.00     0.275 C 
HETATM   19  C2  UNL     1      26.667   0.988  54.475  1.00  0.00     0.065 C 
HETATM   20  C1  UNL     1      27.853   0.219  53.944  1.00  0.00     0.221 C 
HETATM   21  C24 UNL     1      27.392  -0.934  53.125  1.00  0.00     0.065 C 
HETATM   22  C23 UNL     1      26.448  -0.490  52.060  1.00  0.00     0.275 C 
BRANCH  20  23
HETATM   23  N1  UNL     1      28.621  -0.203  55.103  1.00  0.00     0.083 N 
HETATM   24  H1  UNL     1      29.583   0.144  55.035  1.00  0.00     0.313 HD
HETATM   25  H2  UNL     1      28.127   0.072  55.976  1.00  0.00     0.313 HD
ENDBRANCH  20  23
ENDBRANCH  16  17
ENDBRANCH   1  16
BRANCH   8  26
HETATM   26  C11 UNL     1      20.256   5.782  49.568  1.00  0.00    -0.027 A 
HETATM   27  C12 UNL     1      19.306   6.749  49.288  1.00  0.00     0.010 A 
HETATM   28  C13 UNL     1      19.534   8.074  49.557  1.00  0.00     0.004 A 
HETATM   29  C14 UNL     1      20.749   8.403  50.117  1.00  0.00     0.042 A 
HETATM   30  C15 UNL     1      21.689   7.433  50.390  1.00  0.00     0.117 A 
HETATM   31  F1  UNL     1      22.855   7.856  50.941  1.00  0.00    -0.206 F 
HETATM   32  C16 UNL     1      21.469   6.094  50.123  1.00  0.00     0.051 A 
ENDBRANCH   8  26
TORSDOF 4
ENDMDL
MODEL 3
REMARK VINA RESULT:      -8.2     11.298     15.168
REMARK  4 active torsions:
REMARK  status: ('A' for Active; 'I' for Inactive)
REMARK    1  A    between atoms: N1_1  and  C1_2 
REMARK    2  A    between atoms: N2_5  and  C4_6 
REMARK    3  A    between atoms: C4_6  and  C5_7 
REMARK    4  A    between atoms: C10_14  and  C11_15 
ROOT
HETATM    1  C5  UNL     1      34.025   5.037  41.957  1.00  0.00    -0.023 A 
HETATM    2  C6  UNL     1      33.838   5.078  43.253  1.00  0.00    -0.034 A 
HETATM    3  C7  UNL     1      33.596   4.910  44.717  1.00  0.00    -0.040 A 
HETATM    4  C8  UNL     1      33.799   4.206  45.800  1.00  0.00     0.042 A 
HETATM    5  C9  UNL     1      33.141   4.805  46.953  1.00  0.00     0.085 A 
HETATM    6  N3  UNL     1      33.144   4.371  48.167  1.00  0.00    -0.178 NA
HETATM    7  N4  UNL     1      32.393   5.235  48.970  1.00  0.00    -0.300 N 
HETATM    8  C10 UNL     1      31.863   6.351  48.208  1.00  0.00     0.169 A 
HETATM    9  C17 UNL     1      32.362   6.031  46.837  1.00  0.00    -0.002 A 
HETATM   10  C18 UNL     1      32.218   6.635  45.653  1.00  0.00    -0.004 A 
HETATM   11  C19 UNL     1      32.753   6.203  44.396  1.00  0.00     0.054 A 
HETATM   12  C20 UNL     1      33.998   6.566  43.769  1.00  0.00     0.054 A 
HETATM   13  C21 UNL     1      34.217   7.289  42.547  1.00  0.00    -0.016 A 
HETATM   14  C22 UNL     1      34.245   6.413  41.528  1.00  0.00     0.006 A 
HETATM   15  H11 UNL     1      32.216   5.117  50.005  1.00  0.00     0.183 HD
ENDROOT
BRANCH   1  16
HETATM   16  C4  UNL     1      33.985   3.826  41.123  1.00  0.00     0.311 C 
BRANCH  16  17
HETATM   17  N2  UNL     1      33.080   3.975  40.025  1.00  0.00     0.092 N 
HETATM   18  C3  UNL     1      33.795   3.953  38.744  1.00  0.00     0.275 C 
HETATM   19  C2  UNL     1      34.507   2.667  38.520  1.00  0.00     0.065 C 
HETATM   20  C1  UNL     1      33.476   1.565  38.473  1.00  0.00     0.221 C 
HETATM   21  C24 UNL     1      32.702   1.534  39.743  1.00  0.00     0.065 C 
HETATM   22  C23 UNL     1      32.124   2.873  40.050  1.00  0.00     0.275 C 
BRANCH  20  23
HETATM   23  N1  UNL     1      34.206   0.330  38.246  1.00  0.00     0.083 N 
HETATM   24  H1  UNL     1      33.764  -0.441  38.757  1.00  0.00     0.313 HD
HETATM   25  H2  UNL     1      34.310   0.160  37.225  1.00  0.00     0.313 HD
ENDBRANCH  20  23
ENDBRANCH  16  17
ENDBRANCH   1  16
BRANCH   8  26
HETATM   26  C11 UNL     1      30.404   6.488  48.282  1.00  0.00    -0.027 A 
HETATM   27  C12 UNL     1      29.886   7.768  48.382  1.00  0.00     0.010 A 
HETATM   28  C13 UNL     1      28.535   7.989  48.457  1.00  0.00     0.004 A 
HETATM   29  C14 UNL     1      27.713   6.882  48.428  1.00  0.00     0.042 A 
HETATM   30  C15 UNL     1      28.239   5.612  48.329  1.00  0.00     0.117 A 
HETATM   31  F1  UNL     1      27.349   4.587  48.308  1.00  0.00    -0.206 F 
HETATM   32  C16 UNL     1      29.599   5.379  48.253  1.00  0.00     0.051 A 
ENDBRANCH   8  26
TORSDOF 4
ENDMDL
MODEL 4
REMARK VINA RESULT:      -8.2     11.699     15.734
REMARK  4 active torsions:
REMARK  status: ('A' for Active; 'I' for Inactive)
REMARK    1  A    between atoms: N1_1  and  C1_2 
REMARK    2  A    between atoms: N2_5  and  C4_6 
REMARK    3  A    between atoms: C4_6  and  C5_7 
REMARK    4  A    between atoms: C10_14  and  C11_15 
ROOT
HETATM    1  C5  UNL     1      31.775   6.250  47.512  1.00  0.00    -0.023 A 
HETATM    2  C6  UNL     1      32.152   6.371  46.264  1.00  0.00    -0.034 A 
HETATM    3  C7  UNL     1      32.386   6.597  44.806  1.00  0.00    -0.040 A 
HETATM    4  C8  UNL     1      32.250   7.385  43.772  1.00  0.00     0.042 A 
HETATM    5  C9  UNL     1      32.830   6.792  42.574  1.00  0.00     0.085 A 
HETATM    6  N3  UNL     1      32.872   7.303  41.391  1.00  0.00    -0.178 NA
HETATM    7  N4  UNL     1      33.514   6.414  40.525  1.00  0.00    -0.300 N 
HETATM    8  C10 UNL     1      33.950   5.213  41.214  1.00  0.00     0.169 A 
HETATM    9  C17 UNL     1      33.458   5.478  42.599  1.00  0.00    -0.002 A 
HETATM   10  C18 UNL     1      33.504   4.768  43.732  1.00  0.00    -0.004 A 
HETATM   11  C19 UNL     1      32.972   5.147  45.007  1.00  0.00     0.054 A 
HETATM   12  C20 UNL     1      33.628   5.825  46.096  1.00  0.00     0.054 A 
HETATM   13  C21 UNL     1      33.924   5.339  47.416  1.00  0.00    -0.016 A 
HETATM   14  C22 UNL     1      32.875   5.597  48.214  1.00  0.00     0.006 A 
HETATM   15  H11 UNL     1      33.678   6.568  39.492  1.00  0.00     0.183 HD
ENDROOT
BRANCH   1  16
HETATM   16  C4  UNL     1      30.478   6.672  48.062  1.00  0.00     0.311 C 
BRANCH  16  17
HETATM   17  N2  UNL     1      29.937   7.781  47.338  1.00  0.00     0.092 N 
HETATM   18  C3  UNL     1      28.470   7.754  47.348  1.00  0.00     0.275 C 
HETATM   19  C2  UNL     1      27.915   7.851  48.724  1.00  0.00     0.065 C 
HETATM   20  C1  UNL     1      28.341   9.178  49.306  1.00  0.00     0.221 C 
HETATM   21  C24 UNL     1      29.825   9.280  49.318  1.00  0.00     0.065 C 
HETATM   22  C23 UNL     1      30.390   9.018  47.964  1.00  0.00     0.275 C 
BRANCH  20  23
HETATM   23  N1  UNL     1      27.776   9.239  50.643  1.00  0.00     0.083 N 
HETATM   24  H1  UNL     1      26.760   9.103  50.604  1.00  0.00     0.313 HD
HETATM   25  H2  UNL     1      28.272   8.574  51.270  1.00  0.00     0.313 HD
ENDBRANCH  20  23
ENDBRANCH  16  17
ENDBRANCH   1  16
BRANCH   8  26
HETATM   26  C11 UNL     1      33.429   3.968  40.636  1.00  0.00    -0.027 A 
HETATM   27  C12 UNL     1      32.079   3.920  40.335  1.00  0.00     0.010 A 
HETATM   28  C13 UNL     1      31.507   2.797  39.793  1.00  0.00     0.004 A 
HETATM   29  C14 UNL     1      32.334   1.719  39.562  1.00  0.00     0.042 A 
HETATM   30  C15 UNL     1      33.677   1.777  39.867  1.00  0.00     0.117 A 
HETATM   31  F1  UNL     1      34.408   0.664  39.602  1.00  0.00    -0.206 F 
HETATM   32  C16 UNL     1      34.263   2.904  40.413  1.00  0.00     0.051 A 
ENDBRANCH   8  26
TORSDOF 4
ENDMDL
MODEL 5
REMARK VINA RESULT:      -8.1      5.114      6.866
REMARK  4 active torsions:
REMARK  status: ('A' for Active; 'I' for Inactive)
REMARK    1  A    between atoms: N1_1  and  C1_2 
REMARK    2  A    between atoms: N2_5  and  C4_6 
REMARK    3  A    between atoms: C4_6  and  C5_7 
REMARK    4  A    between atoms: C10_14  and  C11_15 
ROOT
HETATM    1  C5  UNL     1      25.759   5.545  49.528  1.00  0.00    -0.023 A 
HETATM    2  C6  UNL     1      24.775   4.681  49.562  1.00  0.00    -0.034 A 
HETATM    3  C7  UNL     1      23.525   3.867  49.630  1.00  0.00    -0.040 A 
HETATM    4  C8  UNL     1      22.266   3.741  49.302  1.00  0.00     0.042 A 
HETATM    5  C9  UNL     1      21.705   2.500  49.819  1.00  0.00     0.085 A 
HETATM    6  N3  UNL     1      20.499   2.068  49.673  1.00  0.00    -0.178 NA
HETATM    7  N4  UNL     1      20.366   0.838  50.323  1.00  0.00    -0.300 N 
HETATM    8  C10 UNL     1      21.612   0.418  50.938  1.00  0.00     0.169 A 
HETATM    9  C17 UNL     1      22.504   1.568  50.603  1.00  0.00    -0.002 A 
HETATM   10  C18 UNL     1      23.782   1.840  50.885  1.00  0.00    -0.004 A 
HETATM   11  C19 UNL     1      24.519   3.008  50.503  1.00  0.00     0.054 A 
HETATM   12  C20 UNL     1      25.342   3.219  49.340  1.00  0.00     0.054 A 
HETATM   13  C21 UNL     1      26.759   3.450  49.265  1.00  0.00    -0.016 A 
HETATM   14  C22 UNL     1      26.984   4.771  49.358  1.00  0.00     0.006 A 
HETATM   15  H11 UNL     1      19.482   0.260  50.377  1.00  0.00     0.183 HD
ENDROOT
BRANCH   1  16
HETATM   16  C4  UNL     1      25.624   7.003  49.668  1.00  0.00     0.311 C 
BRANCH  16  17
HETATM   17  N2  UNL     1      25.611   7.654  48.395  1.00  0.00     0.092 N 
HETATM   18  C3  UNL     1      25.230   9.065  48.526  1.00  0.00     0.275 C 
HETATM   19  C2  UNL     1      26.187   9.829  49.370  1.00  0.00     0.065 C 
HETATM   20  C1  UNL     1      27.537   9.793  48.693  1.00  0.00     0.221 C 
HETATM   21  C24 UNL     1      27.984   8.385  48.518  1.00  0.00     0.065 C 
HETATM   22  C23 UNL     1      26.947   7.579  47.814  1.00  0.00     0.275 C 
BRANCH  20  23
HETATM   23  N1  UNL     1      28.440  10.554  49.539  1.00  0.00     0.083 N 
HETATM   24  H1  UNL     1      28.021  10.698  50.463  1.00  0.00     0.313 HD
HETATM   25  H2  UNL     1      29.376  10.099  49.561  1.00  0.00     0.313 HD
ENDBRANCH  20  23
ENDBRANCH  16  17
ENDBRANCH   1  16
BRANCH   8  26
HETATM   26  C11 UNL     1      21.511   0.155  52.378  1.00  0.00    -0.027 A 
HETATM   27  C12 UNL     1      20.640   0.942  53.111  1.00  0.00     0.010 A 
HETATM   28  C13 UNL     1      20.483   0.766  54.462  1.00  0.00     0.004 A 
HETATM   29  C14 UNL     1      21.229  -0.227  55.059  1.00  0.00     0.042 A 
HETATM   30  C15 UNL     1      22.094  -1.004  54.319  1.00  0.00     0.117 A 
HETATM   31  F1  UNL     1      22.785  -1.956  54.998  1.00  0.00    -0.206 F 
HETATM   32  C16 UNL     1      22.260  -0.835  52.958  1.00  0.00     0.051 A 
ENDBRANCH   8  26
TORSDOF 4
ENDMDL
MODEL 6
REMARK VINA RESULT:      -8.1      7.298      9.637
REMARK  4 active torsions:
REMARK  status: ('A' for Active; 'I' for Inactive)
REMARK    1  A    between atoms: N1_1  and  C1_2 
REMARK    2  A    between atoms: N2_5  and  C4_6 
REMARK    3  A    between atoms: C4_6  and  C5_7 
REMARK    4  A    between atoms: C10_14  and  C11_15 
ROOT
HETATM    1  C5  UNL     1      29.143   7.947  48.615  1.00  0.00    -0.023 A 
HETATM    2  C6  UNL     1      27.986   7.340  48.522  1.00  0.00    -0.034 A 
HETATM    3  C7  UNL     1      26.581   6.832  48.491  1.00  0.00    -0.040 A 
HETATM    4  C8  UNL     1      25.324   7.069  48.223  1.00  0.00     0.042 A 
HETATM    5  C9  UNL     1      24.496   5.902  48.493  1.00  0.00     0.085 A 
HETATM    6  N3  UNL     1      23.221   5.795  48.334  1.00  0.00    -0.178 NA
HETATM    7  N4  UNL     1      22.813   4.511  48.708  1.00  0.00    -0.300 N 
HETATM    8  C10 UNL     1      23.934   3.696  49.138  1.00  0.00     0.169 A 
HETATM    9  C17 UNL     1      25.065   4.662  49.005  1.00  0.00    -0.002 A 
HETATM   10  C18 UNL     1      26.375   4.570  49.258  1.00  0.00    -0.004 A 
HETATM   11  C19 UNL     1      27.358   5.599  49.092  1.00  0.00     0.054 A 
HETATM   12  C20 UNL     1      28.195   5.877  47.954  1.00  0.00     0.054 A 
HETATM   13  C21 UNL     1      29.625   5.796  47.842  1.00  0.00    -0.016 A 
HETATM   14  C22 UNL     1      30.152   6.977  48.204  1.00  0.00     0.006 A 
HETATM   15  H11 UNL     1      21.820   4.150  48.692  1.00  0.00     0.183 HD
ENDROOT
BRANCH   1  16
HETATM   16  C4  UNL     1      29.352   9.328  49.076  1.00  0.00     0.311 C 
BRANCH  16  17
HETATM   17  N2  UNL     1      30.079  10.098  48.114  1.00  0.00     0.092 N 
HETATM   18  C3  UNL     1      29.202  10.551  47.028  1.00  0.00     0.275 C 
HETATM   19  C2  UNL     1      28.108  11.430  47.518  1.00  0.00     0.065 C 
HETATM   20  C1  UNL     1      28.736  12.661  48.126  1.00  0.00     0.221 C 
HETATM   21  C24 UNL     1      29.650  12.275  49.235  1.00  0.00     0.065 C 
HETATM   22  C23 UNL     1      30.647  11.265  48.779  1.00  0.00     0.275 C 
BRANCH  20  23
HETATM   23  N1  UNL     1      27.640  13.497  48.586  1.00  0.00     0.083 N 
HETATM   24  H1  UNL     1      27.916  14.008  49.431  1.00  0.00     0.313 HD
HETATM   25  H2  UNL     1      27.305  14.103  47.810  1.00  0.00     0.313 HD
ENDBRANCH  20  23
ENDBRANCH  16  17
ENDBRANCH   1  16
BRANCH   8  26
HETATM   26  C11 UNL     1      23.791   3.144  50.490  1.00  0.00    -0.027 A 
HETATM   27  C12 UNL     1      23.287   1.860  50.606  1.00  0.00     0.010 A 
HETATM   28  C13 UNL     1      23.119   1.266  51.831  1.00  0.00     0.004 A 
HETATM   29  C14 UNL     1      23.474   2.002  52.942  1.00  0.00     0.042 A 
HETATM   30  C15 UNL     1      23.973   3.281  52.814  1.00  0.00     0.117 A 
HETATM   31  F1  UNL     1      24.292   3.924  53.966  1.00  0.00    -0.206 F 
HETATM   32  C16 UNL     1      24.146   3.888  51.585  1.00  0.00     0.051 A 
ENDBRANCH   8  26
TORSDOF 4
ENDMDL
MODEL 7
REMARK VINA RESULT:      -8.1      2.991      4.067
REMARK  4 active torsions:
REMARK  status: ('A' for Active; 'I' for Inactive)
REMARK    1  A    between atoms: N1_1  and  C1_2 
REMARK    2  A    between atoms: N2_5  and  C4_6 
REMARK    3  A    between atoms: C4_6  and  C5_7 
REMARK    4  A    between atoms: C10_14  and  C11_15 
ROOT
HETATM    1  C5  UNL     1      22.678   1.620  52.138  1.00  0.00    -0.023 A 
HETATM    2  C6  UNL     1      21.583   0.979  52.462  1.00  0.00    -0.034 A 
HETATM    3  C7  UNL     1      20.454   0.069  52.821  1.00  0.00    -0.040 A 
HETATM    4  C8  UNL     1      20.043  -0.974  53.494  1.00  0.00     0.042 A 
HETATM    5  C9  UNL     1      18.625  -1.220  53.276  1.00  0.00     0.085 A 
HETATM    6  N3  UNL     1      17.907  -2.160  53.789  1.00  0.00    -0.178 NA
HETATM    7  N4  UNL     1      16.593  -2.046  53.325  1.00  0.00    -0.300 N 
HETATM    8  C10 UNL     1      16.434  -0.910  52.435  1.00  0.00     0.169 A 
HETATM    9  C17 UNL     1      17.828  -0.374  52.397  1.00  0.00    -0.002 A 
HETATM   10  C18 UNL     1      18.390   0.652  51.749  1.00  0.00    -0.004 A 
HETATM   11  C19 UNL     1      19.766   1.051  51.797  1.00  0.00     0.054 A 
HETATM   12  C20 UNL     1      20.400   2.012  52.662  1.00  0.00     0.054 A 
HETATM   13  C21 UNL     1      21.025   3.260  52.321  1.00  0.00    -0.016 A 
HETATM   14  C22 UNL     1      22.318   3.030  52.040  1.00  0.00     0.006 A 
HETATM   15  H11 UNL     1      15.793  -2.690  53.573  1.00  0.00     0.183 HD
ENDROOT
BRANCH   1  16
HETATM   16  C4  UNL     1      23.992   1.004  51.898  1.00  0.00     0.311 C 
BRANCH  16  17
HETATM   17  N2  UNL     1      24.983   1.513  52.797  1.00  0.00     0.092 N 
HETATM   18  C3  UNL     1      25.042   0.714  54.026  1.00  0.00     0.275 C 
HETATM   19  C2  UNL     1      25.415  -0.701  53.759  1.00  0.00     0.065 C 
HETATM   20  C1  UNL     1      26.799  -0.712  53.153  1.00  0.00     0.221 C 
HETATM   21  C24 UNL     1      26.816   0.091  51.901  1.00  0.00     0.065 C 
HETATM   22  C23 UNL     1      26.284   1.463  52.139  1.00  0.00     0.275 C 
BRANCH  20  23
HETATM   23  N1  UNL     1      27.131  -2.106  52.915  1.00  0.00     0.083 N 
HETATM   24  H1  UNL     1      27.995  -2.352  53.408  1.00  0.00     0.313 HD
HETATM   25  H2  UNL     1      26.318  -2.711  53.150  1.00  0.00     0.313 HD
ENDBRANCH  20  23
ENDBRANCH  16  17
ENDBRANCH   1  16
BRANCH   8  26
HETATM   26  C11 UNL     1      15.903  -1.255  51.112  1.00  0.00    -0.027 A 
HETATM   27  C12 UNL     1      16.330  -0.497  50.035  1.00  0.00     0.010 A 
HETATM   28  C13 UNL     1      15.885  -0.748  48.762  1.00  0.00     0.004 A 
HETATM   29  C14 UNL     1      14.994  -1.788  48.601  1.00  0.00     0.042 A 
HETATM   30  C15 UNL     1      14.574  -2.535  49.681  1.00  0.00     0.117 A 
HETATM   31  F1  UNL     1      13.696  -3.537  49.420  1.00  0.00    -0.206 F 
HETATM   32  C16 UNL     1      15.017  -2.290  50.967  1.00  0.00     0.051 A 
ENDBRANCH   8  26
TORSDOF 4
ENDMDL
MODEL 8
REMARK VINA RESULT:      -8.0     11.927     15.513
REMARK  4 active torsions:
REMARK  status: ('A' for Active; 'I' for Inactive)
REMARK    1  A    between atoms: N1_1  and  C1_2 
REMARK    2  A    between atoms: N2_5  and  C4_6 
REMARK    3  A    between atoms: C4_6  and  C5_7 
REMARK    4  A    between atoms: C10_14  and  C11_15 
ROOT
HETATM    1  C5  UNL     1      33.561   4.712  42.021  1.00  0.00    -0.023 A 
HETATM    2  C6  UNL     1      33.416   4.708  43.323  1.00  0.00    -0.034 A 
HETATM    3  C7  UNL     1      33.101   4.551  44.775  1.00  0.00    -0.040 A 
HETATM    4  C8  UNL     1      32.832   3.746  45.768  1.00  0.00     0.042 A 
HETATM    5  C9  UNL     1      32.641   4.482  47.010  1.00  0.00     0.085 A 
HETATM    6  N3  UNL     1      32.369   3.996  48.173  1.00  0.00    -0.178 NA
HETATM    7  N4  UNL     1      32.267   5.038  49.099  1.00  0.00    -0.300 N 
HETATM    8  C10 UNL     1      32.513   6.329  48.484  1.00  0.00     0.169 A 
HETATM    9  C17 UNL     1      32.745   5.935  47.062  1.00  0.00    -0.002 A 
HETATM   10  C18 UNL     1      33.004   6.636  45.953  1.00  0.00    -0.004 A 
HETATM   11  C19 UNL     1      33.195   6.118  44.631  1.00  0.00     0.054 A 
HETATM   12  C20 UNL     1      34.421   5.743  43.975  1.00  0.00     0.054 A 
HETATM   13  C21 UNL     1      35.044   6.330  42.820  1.00  0.00    -0.016 A 
HETATM   14  C22 UNL     1      34.562   5.730  41.720  1.00  0.00     0.006 A 
HETATM   15  H11 UNL     1      32.039   4.932  50.126  1.00  0.00     0.183 HD
ENDROOT
BRANCH   1  16
HETATM   16  C4  UNL     1      32.822   3.864  41.074  1.00  0.00     0.311 C 
BRANCH  16  17
HETATM   17  N2  UNL     1      32.994   4.309  39.725  1.00  0.00     0.092 N 
HETATM   18  C3  UNL     1      33.148   3.174  38.809  1.00  0.00     0.275 C 
HETATM   19  C2  UNL     1      31.951   2.291  38.802  1.00  0.00     0.065 C 
HETATM   20  C1  UNL     1      30.776   3.103  38.312  1.00  0.00     0.221 C 
HETATM   21  C24 UNL     1      30.565   4.283  39.193  1.00  0.00     0.065 C 
HETATM   22  C23 UNL     1      31.819   5.078  39.330  1.00  0.00     0.275 C 
BRANCH  20  23
HETATM   23  N1  UNL     1      29.631   2.209  38.311  1.00  0.00     0.083 N 
HETATM   24  H1  UNL     1      29.633   1.632  39.159  1.00  0.00     0.313 HD
HETATM   25  H2  UNL     1      28.755   2.751  38.165  1.00  0.00     0.313 HD
ENDBRANCH  20  23
ENDBRANCH  16  17
ENDBRANCH   1  16
BRANCH   8  26
HETATM   26  C11 UNL     1      31.419   7.293  48.652  1.00  0.00    -0.027 A 
HETATM   27  C12 UNL     1      30.149   6.890  48.276  1.00  0.00     0.010 A 
HETATM   28  C13 UNL     1      29.069   7.725  48.398  1.00  0.00     0.004 A 
HETATM   29  C14 UNL     1      29.300   8.983  48.912  1.00  0.00     0.042 A 
HETATM   30  C15 UNL     1      30.569   9.374  49.283  1.00  0.00     0.117 A 
HETATM   31  F1  UNL     1      30.694  10.632  49.779  1.00  0.00    -0.206 F 
HETATM   32  C16 UNL     1      31.664   8.540  49.164  1.00  0.00     0.051 A 
ENDBRANCH   8  26
TORSDOF 4
ENDMDL
MODEL 9
REMARK VINA RESULT:      -8.0      3.872      4.596
REMARK  4 active torsions:
REMARK  status: ('A' for Active; 'I' for Inactive)
REMARK    1  A    between atoms: N1_1  and  C1_2 
REMARK    2  A    between atoms: N2_5  and  C4_6 
REMARK    3  A    between atoms: C4_6  and  C5_7 
REMARK    4  A    between atoms: C10_14  and  C11_15 
ROOT
HETATM    1  C5  UNL     1      23.953   0.983  52.491  1.00  0.00    -0.023 A 
HETATM    2  C6  UNL     1      23.445   1.623  51.467  1.00  0.00    -0.034 A 
HETATM    3  C7  UNL     1      23.070   2.374  50.232  1.00  0.00    -0.040 A 
HETATM    4  C8  UNL     1      23.263   2.571  48.954  1.00  0.00     0.042 A 
HETATM    5  C9  UNL     1      22.374   3.602  48.436  1.00  0.00     0.085 A 
HETATM    6  N3  UNL     1      22.300   4.033  47.223  1.00  0.00    -0.178 NA
HETATM    7  N4  UNL     1      21.319   5.026  47.143  1.00  0.00    -0.300 N 
HETATM    8  C10 UNL     1      20.678   5.252  48.425  1.00  0.00     0.169 A 
HETATM    9  C17 UNL     1      21.421   4.291  49.296  1.00  0.00    -0.002 A 
HETATM   10  C18 UNL     1      21.350   4.003  50.600  1.00  0.00    -0.004 A 
HETATM   11  C19 UNL     1      22.146   3.051  51.315  1.00  0.00     0.054 A 
HETATM   12  C20 UNL     1      21.868   1.665  51.594  1.00  0.00     0.054 A 
HETATM   13  C21 UNL     1      21.647   1.025  52.861  1.00  0.00    -0.016 A 
HETATM   14  C22 UNL     1      22.832   0.629  53.354  1.00  0.00     0.006 A 
HETATM   15  H11 UNL     1      21.054   5.563  46.272  1.00  0.00     0.183 HD
ENDROOT
BRANCH   1  16
HETATM   16  C4  UNL     1      25.382   0.716  52.712  1.00  0.00     0.311 C 
BRANCH  16  17
HETATM   17  N2  UNL     1      25.579  -0.394  53.593  1.00  0.00     0.092 N 
HETATM   18  C3  UNL     1      26.448  -1.406  52.983  1.00  0.00     0.275 C 
HETATM   19  C2  UNL     1      27.804  -0.875  52.679  1.00  0.00     0.065 C 
HETATM   20  C1  UNL     1      28.446  -0.464  53.983  1.00  0.00     0.221 C 
HETATM   21  C24 UNL     1      27.609   0.560  54.666  1.00  0.00     0.065 C 
HETATM   22  C23 UNL     1      26.205   0.086  54.820  1.00  0.00     0.275 C 
BRANCH  20  23
HETATM   23  N1  UNL     1      29.766   0.041  53.649  1.00  0.00     0.083 N 
HETATM   24  H1  UNL     1      29.963  -0.116  52.655  1.00  0.00     0.313 HD
HETATM   25  H2  UNL     1      29.855   1.032  53.951  1.00  0.00     0.313 HD
ENDBRANCH  20  23
ENDBRANCH  16  17
ENDBRANCH   1  16
BRANCH   8  26
HETATM   26  C11 UNL     1      20.747   6.640  48.894  1.00  0.00    -0.027 A 
HETATM   27  C12 UNL     1      21.986   7.258  48.879  1.00  0.00     0.010 A 
HETATM   28  C13 UNL     1      22.144   8.554  49.300  1.00  0.00     0.004 A 
HETATM   29  C14 UNL     1      21.017   9.215  49.738  1.00  0.00     0.042 A 
HETATM   30  C15 UNL     1      19.788   8.590  49.749  1.00  0.00     0.117 A 
HETATM   31  F1  UNL     1      18.739   9.324  50.199  1.00  0.00    -0.206 F 
HETATM   32  C16 UNL     1      19.619   7.285  49.328  1.00  0.00     0.051 A 
ENDBRANCH   8  26
TORSDOF 4
ENDMDL
