MODEL 1
REMARK VINA RESULT:      -9.2      0.000      0.000
REMARK  3 active torsions:
REMARK  status: ('A' for Active; 'I' for Inactive)
REMARK    1  A    between atoms: O1_2  and  C2_3 
REMARK    2  A    between atoms: C11_15  and  N3_20 
REMARK    3  A    between atoms: N3_20  and  C15_21 
ROOT
HETATM    1  C2  UNL     1      24.485   3.066  49.919  1.00  0.00     0.060 C 
HETATM    2  C3  UNL     1      23.742   3.585  48.930  1.00  0.00     0.077 C 
HETATM    3  C4  UNL     1      22.495   3.703  48.168  1.00  0.00     0.086 C 
HETATM    4  C5  UNL     1      22.366   2.619  47.111  1.00  0.00     0.033 C 
HETATM    5  N1  UNL     1      21.274   3.892  48.851  1.00  0.00    -0.408 N 
HETATM    6  C6  UNL     1      20.310   2.867  48.761  1.00  0.00     0.119 C 
HETATM    7  C7  UNL     1      19.016   3.267  49.411  1.00  0.00     0.051 C 
HETATM    8  C8  UNL     1      19.201   3.817  50.815  1.00  0.00     0.128 C 
HETATM    9  C9  UNL     1      20.145   4.962  50.784  1.00  0.00     0.051 C 
HETATM   10  C10 UNL     1      20.986   5.044  49.550  1.00  0.00     0.119 C 
HETATM   11  O2  UNL     1      19.488   2.883  51.762  1.00  0.00    -0.373 OA
HETATM   12  P1  UNL     1      21.011   3.116  52.491  1.00  0.00    -0.044 P 
HETATM   13  C11 UNL     1      22.384   2.132  51.752  1.00  0.00     0.160 A 
HETATM   14  C12 UNL     1      23.184   0.866  51.959  1.00  0.00     0.055 A 
HETATM   15  C13 UNL     1      23.018  -0.008  52.973  1.00  0.00     0.091 A 
HETATM   16  N2  UNL     1      21.786  -0.354  52.594  1.00  0.00    -0.168 NA
HETATM   17  C14 UNL     1      21.356   0.299  51.459  1.00  0.00     0.099 A 
HETATM   18  N3  UNL     1      22.649   0.685  51.834  1.00  0.00     0.000 N 
HETATM   19  C15 UNL     1      23.226   1.682  50.940  1.00  0.00     0.030 A 
HETATM   20  C16 UNL     1      24.499   2.143  51.038  1.00  0.00    -0.017 A 
HETATM   21  C17 UNL     1      25.711   2.068  51.789  1.00  0.00     0.010 A 
HETATM   22  C18 UNL     1      26.937   2.194  52.296  1.00  0.00     0.001 A 
HETATM   23  C19 UNL     1      27.333   1.442  53.449  1.00  0.00     0.000 A 
HETATM   24  C20 UNL     1      27.206   0.606  54.428  1.00  0.00     0.004 A 
HETATM   25  C21 UNL     1      26.120  -0.236  54.918  1.00  0.00     0.061 A 
HETATM   26  C22 UNL     1      24.865  -0.700  54.864  1.00  0.00     0.189 A 
HETATM   27  F1  UNL     1      24.206  -1.596  55.626  1.00  0.00    -0.186 F 
HETATM   28  N4  UNL     1      23.913  -0.295  53.953  1.00  0.00    -0.325 N 
HETATM   29  H18 UNL     1      20.963   2.954  53.949  1.00  0.00     0.075 HD
HETATM   30  H26 UNL     1      23.570   0.540  54.528  1.00  0.00     0.169 HD
ENDROOT
BRANCH   1  31
HETATM   31  O1  UNL     1      25.422   3.926  49.367  1.00  0.00    -0.359 OA
HETATM   32  C1  UNL     1      25.685   5.234  49.771  1.00  0.00     0.209 C 
ENDBRANCH   1  31
TORSDOF 3
ENDMDL
MODEL 2
REMARK VINA RESULT:      -9.0      3.393      6.430
REMARK  3 active torsions:
REMARK  status: ('A' for Active; 'I' for Inactive)
REMARK    1  A    between atoms: O1_2  and  C2_3 
REMARK    2  A    between atoms: C11_15  and  N3_20 
REMARK    3  A    between atoms: N3_20  and  C15_21 
ROOT
HETATM    1  C2  UNL     1      22.091   0.152  53.378  1.00  0.00     0.060 C 
HETATM    2  C3  UNL     1      23.364   0.540  53.547  1.00  0.00     0.077 C 
HETATM    3  C4  UNL     1      24.589   1.207  53.094  1.00  0.00     0.086 C 
HETATM    4  C5  UNL     1      25.437   0.306  52.211  1.00  0.00     0.033 C 
HETATM    5  N1  UNL     1      24.520   2.514  52.567  1.00  0.00    -0.408 N 
HETATM    6  C6  UNL     1      24.863   2.689  51.210  1.00  0.00     0.119 C 
HETATM    7  C7  UNL     1      24.883   4.142  50.829  1.00  0.00     0.051 C 
HETATM    8  C8  UNL     1      23.626   4.885  51.248  1.00  0.00     0.128 C 
HETATM    9  C9  UNL     1      23.417   4.733  52.710  1.00  0.00     0.051 C 
HETATM   10  C10 UNL     1      24.179   3.606  53.334  1.00  0.00     0.119 C 
HETATM   11  O2  UNL     1      22.524   4.615  50.497  1.00  0.00    -0.373 OA
HETATM   12  P1  UNL     1      21.263   3.902  51.392  1.00  0.00    -0.044 P 
HETATM   13  C11 UNL     1      21.204   2.060  51.324  1.00  0.00     0.160 A 
HETATM   14  C12 UNL     1      20.502   0.919  50.625  1.00  0.00     0.055 A 
HETATM   15  C13 UNL     1      19.541   1.047  49.688  1.00  0.00     0.091 A 
HETATM   16  N2  UNL     1      20.350   1.637  48.805  1.00  0.00    -0.168 NA
HETATM   17  C14 UNL     1      21.641   1.793  49.264  1.00  0.00     0.099 A 
HETATM   18  N3  UNL     1      20.814   1.176  50.211  1.00  0.00     0.000 N 
HETATM   19  C15 UNL     1      21.513   0.852  51.449  1.00  0.00     0.030 A 
HETATM   20  C16 UNL     1      20.953   0.168  52.479  1.00  0.00    -0.017 A 
HETATM   21  C17 UNL     1      19.758  -0.456  52.952  1.00  0.00     0.010 A 
HETATM   22  C18 UNL     1      18.805  -1.095  53.629  1.00  0.00     0.001 A 
HETATM   23  C19 UNL     1      17.498  -1.268  53.067  1.00  0.00     0.000 A 
HETATM   24  C20 UNL     1      16.557  -1.164  52.186  1.00  0.00     0.004 A 
HETATM   25  C21 UNL     1      16.457  -0.555  50.864  1.00  0.00     0.061 A 
HETATM   26  C22 UNL     1      16.969   0.134  49.836  1.00  0.00     0.189 A 
HETATM   27  F1  UNL     1      16.438   0.513  48.657  1.00  0.00    -0.186 F 
HETATM   28  N4  UNL     1      18.244   0.656  49.795  1.00  0.00    -0.325 N 
HETATM   29  H18 UNL     1      19.954   4.488  51.079  1.00  0.00     0.075 HD
HETATM   30  H26 UNL     1      17.993   1.579  50.275  1.00  0.00     0.169 HD
ENDROOT
BRANCH   1  31
HETATM   31  O1  UNL     1      22.312  -0.363  54.646  1.00  0.00    -0.359 OA
HETATM   32  C1  UNL     1      22.668  -1.674  54.958  1.00  0.00     0.209 C 
ENDBRANCH   1  31
TORSDOF 3
ENDMDL
MODEL 3
REMARK VINA RESULT:      -8.9      2.901      4.938
REMARK  3 active torsions:
REMARK  status: ('A' for Active; 'I' for Inactive)
REMARK    1  A    between atoms: O1_2  and  C2_3 
REMARK    2  A    between atoms: C11_15  and  N3_20 
REMARK    3  A    between atoms: N3_20  and  C15_21 
ROOT
HETATM    1  C2  UNL     1      23.938   2.270  52.127  1.00  0.00     0.060 C 
HETATM    2  C3  UNL     1      24.922   3.075  51.700  1.00  0.00     0.077 C 
HETATM    3  C4  UNL     1      25.516   3.993  50.723  1.00  0.00     0.086 C 
HETATM    4  C5  UNL     1      26.225   3.253  49.601  1.00  0.00     0.033 C 
HETATM    5  N1  UNL     1      24.753   5.068  50.218  1.00  0.00    -0.408 N 
HETATM    6  C6  UNL     1      24.443   5.057  48.843  1.00  0.00     0.119 C 
HETATM    7  C7  UNL     1      23.756   6.327  48.423  1.00  0.00     0.051 C 
HETATM    8  C8  UNL     1      22.584   6.692  49.316  1.00  0.00     0.128 C 
HETATM    9  C9  UNL     1      23.038   6.788  50.726  1.00  0.00     0.051 C 
HETATM   10  C10 UNL     1      24.350   6.124  51.004  1.00  0.00     0.119 C 
HETATM   11  O2  UNL     1      21.470   5.930  49.140  1.00  0.00    -0.373 OA
HETATM   12  P1  UNL     1      21.036   5.049  50.533  1.00  0.00    -0.044 P 
HETATM   13  C11 UNL     1      21.663   3.316  50.584  1.00  0.00     0.160 A 
HETATM   14  C12 UNL     1      21.238   1.889  50.321  1.00  0.00     0.055 A 
HETATM   15  C13 UNL     1      20.018   1.502  49.898  1.00  0.00     0.091 A 
HETATM   16  N2  UNL     1      20.126   2.125  48.722  1.00  0.00    -0.168 NA
HETATM   17  C14 UNL     1      21.326   2.783  48.558  1.00  0.00     0.099 A 
HETATM   18  N3  UNL     1      21.239   2.142  49.801  1.00  0.00     0.000 N 
HETATM   19  C15 UNL     1      22.432   2.327  50.619  1.00  0.00     0.030 A 
HETATM   20  C16 UNL     1      22.627   1.728  51.821  1.00  0.00    -0.017 A 
HETATM   21  C17 UNL     1      22.050   0.865  52.801  1.00  0.00     0.010 A 
HETATM   22  C18 UNL     1      21.760   0.107  53.858  1.00  0.00     0.001 A 
HETATM   23  C19 UNL     1      20.511  -0.593  53.937  1.00  0.00     0.000 A 
HETATM   24  C20 UNL     1      19.340  -0.985  53.556  1.00  0.00     0.004 A 
HETATM   25  C21 UNL     1      18.507  -0.731  52.386  1.00  0.00     0.061 A 
HETATM   26  C22 UNL     1      18.271  -0.143  51.206  1.00  0.00     0.189 A 
HETATM   27  F1  UNL     1      17.220  -0.210  50.364  1.00  0.00    -0.186 F 
HETATM   28  N4  UNL     1      19.123   0.744  50.583  1.00  0.00    -0.325 N 
HETATM   29  H18 UNL     1      19.593   5.101  50.800  1.00  0.00     0.075 HD
HETATM   30  H26 UNL     1      18.748   1.613  51.081  1.00  0.00     0.169 HD
ENDROOT
BRANCH   1  31
HETATM   31  O1  UNL     1      24.815   2.130  53.192  1.00  0.00    -0.359 OA
HETATM   32  C1  UNL     1      25.744   1.106  53.371  1.00  0.00     0.209 C 
ENDBRANCH   1  31
TORSDOF 3
ENDMDL
MODEL 4
REMARK VINA RESULT:      -8.8      2.420      4.362
REMARK  3 active torsions:
REMARK  status: ('A' for Active; 'I' for Inactive)
REMARK    1  A    between atoms: O1_2  and  C2_3 
REMARK    2  A    between atoms: C11_15  and  N3_20 
REMARK    3  A    between atoms: N3_20  and  C15_21 
ROOT
HETATM    1  C2  UNL     1      20.283   1.070  51.835  1.00  0.00     0.060 C 
HETATM    2  C3  UNL     1      19.191   1.547  51.219  1.00  0.00     0.077 C 
HETATM    3  C4  UNL     1      18.436   2.616  50.558  1.00  0.00     0.086 C 
HETATM    4  C5  UNL     1      17.737   3.523  51.556  1.00  0.00     0.033 C 
HETATM    5  N1  UNL     1      19.043   3.367  49.528  1.00  0.00    -0.408 N 
HETATM    6  C6  UNL     1      19.258   4.741  49.764  1.00  0.00     0.119 C 
HETATM    7  C7  UNL     1      19.774   5.437  48.536  1.00  0.00     0.051 C 
HETATM    8  C8  UNL     1      20.958   4.727  47.903  1.00  0.00     0.128 C 
HETATM    9  C9  UNL     1      20.592   3.322  47.591  1.00  0.00     0.051 C 
HETATM   10  C10 UNL     1      19.381   2.819  48.311  1.00  0.00     0.119 C 
HETATM   11  O2  UNL     1      22.132   4.860  48.577  1.00  0.00    -0.373 OA
HETATM   12  P1  UNL     1      22.753   3.377  49.140  1.00  0.00    -0.044 P 
HETATM   13  C11 UNL     1      22.321   2.964  50.884  1.00  0.00     0.160 A 
HETATM   14  C12 UNL     1      22.879   3.006  52.289  1.00  0.00     0.055 A 
HETATM   15  C13 UNL     1      24.102   3.458  52.631  1.00  0.00     0.091 A 
HETATM   16  N2  UNL     1      23.848   4.711  52.250  1.00  0.00    -0.168 NA
HETATM   17  C14 UNL     1      22.575   4.886  51.749  1.00  0.00     0.099 A 
HETATM   18  N3  UNL     1      22.815   3.561  52.138  1.00  0.00     0.000 N 
HETATM   19  C15 UNL     1      21.667   2.689  51.918  1.00  0.00     0.030 A 
HETATM   20  C16 UNL     1      21.620   1.387  52.299  1.00  0.00    -0.017 A 
HETATM   21  C17 UNL     1      22.353   0.324  52.908  1.00  0.00     0.010 A 
HETATM   22  C18 UNL     1      22.793  -0.822  53.426  1.00  0.00     0.001 A 
HETATM   23  C19 UNL     1      24.113  -0.916  53.979  1.00  0.00     0.000 A 
HETATM   24  C20 UNL     1      25.291  -0.511  54.323  1.00  0.00     0.004 A 
HETATM   25  C21 UNL     1      26.010   0.753  54.213  1.00  0.00     0.061 A 
HETATM   26  C22 UNL     1      26.101   2.035  53.834  1.00  0.00     0.189 A 
HETATM   27  F1  UNL     1      27.093   2.938  53.957  1.00  0.00    -0.186 F 
HETATM   28  N4  UNL     1      25.118   2.729  53.163  1.00  0.00    -0.325 N 
HETATM   29  H18 UNL     1      24.196   3.249  48.904  1.00  0.00     0.075 HD
HETATM   30  H26 UNL     1      25.430   2.428  52.184  1.00  0.00     0.169 HD
ENDROOT
BRANCH   1  31
HETATM   31  O1  UNL     1      19.500  -0.074  51.857  1.00  0.00    -0.359 OA
HETATM   32  C1  UNL     1      18.790  -0.571  52.949  1.00  0.00     0.209 C 
ENDBRANCH   1  31
TORSDOF 3
ENDMDL
MODEL 5
REMARK VINA RESULT:      -8.8      6.184      9.544
REMARK  3 active torsions:
REMARK  status: ('A' for Active; 'I' for Inactive)
REMARK    1  A    between atoms: O1_2  and  C2_3 
REMARK    2  A    between atoms: C11_15  and  N3_20 
REMARK    3  A    between atoms: N3_20  and  C15_21 
ROOT
HETATM    1  C2  UNL     1      29.580   6.061  47.954  1.00  0.00     0.060 C 
HETATM    2  C3  UNL     1      30.690   6.705  47.566  1.00  0.00     0.077 C 
HETATM    3  C4  UNL     1      31.387   7.857  46.984  1.00  0.00     0.086 C 
HETATM    4  C5  UNL     1      31.410   7.803  45.466  1.00  0.00     0.033 C 
HETATM    5  N1  UNL     1      31.089   9.159  47.441  1.00  0.00    -0.408 N 
HETATM    6  C6  UNL     1      30.497  10.051  46.524  1.00  0.00     0.119 C 
HETATM    7  C7  UNL     1      30.371  11.433  47.103  1.00  0.00     0.051 C 
HETATM    8  C8  UNL     1      29.727  11.445  48.478  1.00  0.00     0.128 C 
HETATM    9  C9  UNL     1      30.490  10.563  49.397  1.00  0.00     0.051 C 
HETATM   10  C10 UNL     1      31.394   9.585  48.714  1.00  0.00     0.119 C 
HETATM   11  O2  UNL     1      28.384  11.227  48.484  1.00  0.00    -0.373 OA
HETATM   12  P1  UNL     1      27.939   9.816  49.329  1.00  0.00    -0.044 P 
HETATM   13  C11 UNL     1      27.722   8.317  48.279  1.00  0.00     0.160 A 
HETATM   14  C12 UNL     1      26.657   7.485  47.601  1.00  0.00     0.055 A 
HETATM   15  C13 UNL     1      25.331   7.727  47.640  1.00  0.00     0.091 A 
HETATM   16  N2  UNL     1      25.430   8.886  46.985  1.00  0.00    -0.168 NA
HETATM   17  C14 UNL     1      26.723   9.209  46.632  1.00  0.00     0.099 A 
HETATM   18  N3  UNL     1      26.650   7.991  47.321  1.00  0.00     0.000 N 
HETATM   19  C15 UNL     1      27.954   7.362  47.500  1.00  0.00     0.030 A 
HETATM   20  C16 UNL     1      28.134   6.135  48.052  1.00  0.00    -0.017 A 
HETATM   21  C17 UNL     1      27.477   5.020  48.653  1.00  0.00     0.010 A 
HETATM   22  C18 UNL     1      27.134   3.871  49.235  1.00  0.00     0.001 A 
HETATM   23  C19 UNL     1      25.761   3.578  49.525  1.00  0.00     0.000 A 
HETATM   24  C20 UNL     1      24.485   3.780  49.573  1.00  0.00     0.004 A 
HETATM   25  C21 UNL     1      23.607   4.873  49.169  1.00  0.00     0.061 A 
HETATM   26  C22 UNL     1      23.391   6.088  48.649  1.00  0.00     0.189 A 
HETATM   27  F1  UNL     1      22.258   6.787  48.443  1.00  0.00    -0.186 F 
HETATM   28  N4  UNL     1      24.378   6.942  48.207  1.00  0.00    -0.325 N 
HETATM   29  H18 UNL     1      26.777  10.030  50.200  1.00  0.00     0.075 HD
HETATM   30  H26 UNL     1      24.557   7.393  49.161  1.00  0.00     0.169 HD
ENDROOT
BRANCH   1  31
HETATM   31  O1  UNL     1      30.523   5.109  48.311  1.00  0.00    -0.359 OA
HETATM   32  C1  UNL     1      31.342   4.389  47.443  1.00  0.00     0.209 C 
ENDBRANCH   1  31
TORSDOF 3
ENDMDL
MODEL 6
REMARK VINA RESULT:      -8.5      3.869      6.606
REMARK  3 active torsions:
REMARK  status: ('A' for Active; 'I' for Inactive)
REMARK    1  A    between atoms: O1_2  and  C2_3 
REMARK    2  A    between atoms: C11_15  and  N3_20 
REMARK    3  A    between atoms: N3_20  and  C15_21 
ROOT
HETATM    1  C2  UNL     1      25.459   3.437  50.203  1.00  0.00     0.060 C 
HETATM    2  C3  UNL     1      24.651   2.590  50.858  1.00  0.00     0.077 C 
HETATM    3  C4  UNL     1      23.342   2.190  51.385  1.00  0.00     0.086 C 
HETATM    4  C5  UNL     1      23.050   2.826  52.734  1.00  0.00     0.033 C 
HETATM    5  N1  UNL     1      22.207   2.236  50.547  1.00  0.00    -0.408 N 
HETATM    6  C6  UNL     1      21.185   3.147  50.883  1.00  0.00     0.119 C 
HETATM    7  C7  UNL     1      19.985   2.983  49.992  1.00  0.00     0.051 C 
HETATM    8  C8  UNL     1      20.338   2.969  48.516  1.00  0.00     0.128 C 
HETATM    9  C9  UNL     1      21.335   1.902  48.248  1.00  0.00     0.051 C 
HETATM   10  C10 UNL     1      22.053   1.402  49.462  1.00  0.00     0.119 C 
HETATM   11  O2  UNL     1      20.666   4.182  47.994  1.00  0.00    -0.373 OA
HETATM   12  P1  UNL     1      22.264   4.247  47.406  1.00  0.00    -0.044 P 
HETATM   13  C11 UNL     1      23.502   4.926  48.590  1.00  0.00     0.160 A 
HETATM   14  C12 UNL     1      24.249   6.196  48.931  1.00  0.00     0.055 A 
HETATM   15  C13 UNL     1      24.137   7.370  48.277  1.00  0.00     0.091 A 
HETATM   16  N2  UNL     1      22.856   7.540  48.612  1.00  0.00    -0.168 NA
HETATM   17  C14 UNL     1      22.352   6.520  49.391  1.00  0.00     0.099 A 
HETATM   18  N3  UNL     1      23.695   6.313  49.051  1.00  0.00     0.000 N 
HETATM   19  C15 UNL     1      24.234   5.073  49.598  1.00  0.00     0.030 A 
HETATM   20  C16 UNL     1      25.533   4.696  49.487  1.00  0.00    -0.017 A 
HETATM   21  C17 UNL     1      26.808   5.051  48.952  1.00  0.00     0.010 A 
HETATM   22  C18 UNL     1      28.083   5.132  48.573  1.00  0.00     0.001 A 
HETATM   23  C19 UNL     1      28.551   6.251  47.809  1.00  0.00     0.000 A 
HETATM   24  C20 UNL     1      28.475   7.377  47.178  1.00  0.00     0.004 A 
HETATM   25  C21 UNL     1      27.400   8.321  46.896  1.00  0.00     0.061 A 
HETATM   26  C22 UNL     1      26.122   8.716  46.968  1.00  0.00     0.189 A 
HETATM   27  F1  UNL     1      25.495   9.813  46.499  1.00  0.00    -0.186 F 
HETATM   28  N4  UNL     1      25.108   7.999  47.566  1.00  0.00    -0.325 N 
HETATM   29  H18 UNL     1      22.353   4.914  46.101  1.00  0.00     0.075 HD
HETATM   30  H26 UNL     1      24.870   7.417  46.701  1.00  0.00     0.169 HD
ENDROOT
BRANCH   1  31
HETATM   31  O1  UNL     1      26.381   2.451  50.520  1.00  0.00    -0.359 OA
HETATM   32  C1  UNL     1      26.957   2.226  51.769  1.00  0.00     0.209 C 
ENDBRANCH   1  31
TORSDOF 3
ENDMDL
MODEL 7
REMARK VINA RESULT:      -8.3      1.717      2.130
REMARK  3 active torsions:
REMARK  status: ('A' for Active; 'I' for Inactive)
REMARK    1  A    between atoms: O1_2  and  C2_3 
REMARK    2  A    between atoms: C11_15  and  N3_20 
REMARK    3  A    between atoms: N3_20  and  C15_21 
ROOT
HETATM    1  C2  UNL     1      23.557   2.964  49.788  1.00  0.00     0.060 C 
HETATM    2  C3  UNL     1      23.248   3.747  48.743  1.00  0.00     0.077 C 
HETATM    3  C4  UNL     1      22.312   4.263  47.740  1.00  0.00     0.086 C 
HETATM    4  C5  UNL     1      22.208   3.349  46.530  1.00  0.00     0.033 C 
HETATM    5  N1  UNL     1      21.037   4.719  48.141  1.00  0.00    -0.408 N 
HETATM    6  C6  UNL     1      19.914   4.005  47.676  1.00  0.00     0.119 C 
HETATM    7  C7  UNL     1      18.630   4.685  48.062  1.00  0.00     0.051 C 
HETATM    8  C8  UNL     1      18.566   5.043  49.536  1.00  0.00     0.128 C 
HETATM    9  C9  UNL     1      19.732   5.887  49.899  1.00  0.00     0.051 C 
HETATM   10  C10 UNL     1      20.863   5.841  48.919  1.00  0.00     0.119 C 
HETATM   11  O2  UNL     1      18.360   3.990  50.373  1.00  0.00    -0.373 OA
HETATM   12  P1  UNL     1      19.646   3.737  51.461  1.00  0.00    -0.044 P 
HETATM   13  C11 UNL     1      20.886   2.484  50.922  1.00  0.00     0.160 A 
HETATM   14  C12 UNL     1      21.274   1.035  51.115  1.00  0.00     0.055 A 
HETATM   15  C13 UNL     1      20.641   0.157  51.919  1.00  0.00     0.091 A 
HETATM   16  N2  UNL     1      19.506   0.191  51.217  1.00  0.00    -0.168 NA
HETATM   17  C14 UNL     1      19.561   1.030  50.125  1.00  0.00     0.099 A 
HETATM   18  N3  UNL     1      20.763   1.017  50.844  1.00  0.00     0.000 N 
HETATM   19  C15 UNL     1      21.778   1.892  50.268  1.00  0.00     0.030 A 
HETATM   20  C16 UNL     1      23.052   1.981  50.727  1.00  0.00    -0.017 A 
HETATM   21  C17 UNL     1      23.968   1.516  51.719  1.00  0.00     0.010 A 
HETATM   22  C18 UNL     1      25.011   1.261  52.509  1.00  0.00     0.001 A 
HETATM   23  C19 UNL     1      24.896   0.334  53.596  1.00  0.00     0.000 A 
HETATM   24  C20 UNL     1      24.317  -0.515  54.381  1.00  0.00     0.004 A 
HETATM   25  C21 UNL     1      22.971  -1.069  54.473  1.00  0.00     0.061 A 
HETATM   26  C22 UNL     1      21.701  -1.169  54.061  1.00  0.00     0.189 A 
HETATM   27  F1  UNL     1      20.669  -1.913  54.505  1.00  0.00    -0.186 F 
HETATM   28  N4  UNL     1      21.150  -0.445  53.025  1.00  0.00    -0.325 N 
HETATM   29  H18 UNL     1      19.179   3.471  52.827  1.00  0.00     0.075 HD
HETATM   30  H26 UNL     1      20.879   0.400  53.624  1.00  0.00     0.169 HD
ENDROOT
BRANCH   1  31
HETATM   31  O1  UNL     1      24.785   3.581  49.604  1.00  0.00    -0.359 OA
HETATM   32  C1  UNL     1      26.024   2.949  49.511  1.00  0.00     0.209 C 
ENDBRANCH   1  31
TORSDOF 3
ENDMDL
MODEL 8
REMARK VINA RESULT:      -8.3      2.162      4.478
REMARK  3 active torsions:
REMARK  status: ('A' for Active; 'I' for Inactive)
REMARK    1  A    between atoms: O1_2  and  C2_3 
REMARK    2  A    between atoms: C11_15  and  N3_20 
REMARK    3  A    between atoms: N3_20  and  C15_21 
ROOT
HETATM    1  C2  UNL     1      19.792   3.532  51.583  1.00  0.00     0.060 C 
HETATM    2  C3  UNL     1      19.343   4.499  50.768  1.00  0.00     0.077 C 
HETATM    3  C4  UNL     1      19.515   5.454  49.669  1.00  0.00     0.086 C 
HETATM    4  C5  UNL     1      20.166   6.747  50.132  1.00  0.00     0.033 C 
HETATM    5  N1  UNL     1      20.067   5.019  48.444  1.00  0.00    -0.408 N 
HETATM    6  C6  UNL     1      21.312   5.559  48.063  1.00  0.00     0.119 C 
HETATM    7  C7  UNL     1      21.704   5.119  46.680  1.00  0.00     0.051 C 
HETATM    8  C8  UNL     1      21.596   3.617  46.481  1.00  0.00     0.128 C 
HETATM    9  C9  UNL     1      20.218   3.166  46.801  1.00  0.00     0.051 C 
HETATM   10  C10 UNL     1      19.417   4.137  47.610  1.00  0.00     0.119 C 
HETATM   11  O2  UNL     1      22.575   2.888  47.083  1.00  0.00    -0.373 OA
HETATM   12  P1  UNL     1      21.979   1.820  48.270  1.00  0.00    -0.044 P 
HETATM   13  C11 UNL     1      22.027   2.470  49.995  1.00  0.00     0.160 A 
HETATM   14  C12 UNL     1      22.849   2.415  51.263  1.00  0.00     0.055 A 
HETATM   15  C13 UNL     1      23.983   1.704  51.431  1.00  0.00     0.091 A 
HETATM   16  N2  UNL     1      24.666   2.407  50.526  1.00  0.00    -0.168 NA
HETATM   17  C14 UNL     1      23.928   3.413  49.939  1.00  0.00     0.099 A 
HETATM   18  N3  UNL     1      23.185   2.690  50.881  1.00  0.00     0.000 N 
HETATM   19  C15 UNL     1      21.814   3.171  51.012  1.00  0.00     0.030 A 
HETATM   20  C16 UNL     1      20.928   2.697  51.924  1.00  0.00    -0.017 A 
HETATM   21  C17 UNL     1      20.730   1.749  52.973  1.00  0.00     0.010 A 
HETATM   22  C18 UNL     1      20.277   0.979  53.963  1.00  0.00     0.001 A 
HETATM   23  C19 UNL     1      21.121  -0.012  54.564  1.00  0.00     0.000 A 
HETATM   24  C20 UNL     1      22.195  -0.707  54.751  1.00  0.00     0.004 A 
HETATM   25  C21 UNL     1      23.515  -0.735  54.130  1.00  0.00     0.061 A 
HETATM   26  C22 UNL     1      24.410  -0.306  53.232  1.00  0.00     0.189 A 
HETATM   27  F1  UNL     1      25.686  -0.669  52.993  1.00  0.00    -0.186 F 
HETATM   28  N4  UNL     1      24.168   0.658  52.277  1.00  0.00    -0.325 N 
HETATM   29  H18 UNL     1      22.593   0.490  48.184  1.00  0.00     0.075 HD
HETATM   30  H26 UNL     1      23.774  -0.018  51.547  1.00  0.00     0.169 HD
ENDROOT
BRANCH   1  31
HETATM   31  O1  UNL     1      18.498   3.647  52.068  1.00  0.00    -0.359 OA
HETATM   32  C1  UNL     1      17.364   3.019  51.558  1.00  0.00     0.209 C 
ENDBRANCH   1  31
TORSDOF 3
ENDMDL
MODEL 9
REMARK VINA RESULT:      -8.2      7.409     10.127
REMARK  3 active torsions:
REMARK  status: ('A' for Active; 'I' for Inactive)
REMARK    1  A    between atoms: O1_2  and  C2_3 
REMARK    2  A    between atoms: C11_15  and  N3_20 
REMARK    3  A    between atoms: N3_20  and  C15_21 
ROOT
HETATM    1  C2  UNL     1      28.131   6.067  48.412  1.00  0.00     0.060 C 
HETATM    2  C3  UNL     1      26.832   6.307  48.644  1.00  0.00     0.077 C 
HETATM    3  C4  UNL     1      25.709   7.203  48.937  1.00  0.00     0.086 C 
HETATM    4  C5  UNL     1      25.580   7.491  50.423  1.00  0.00     0.033 C 
HETATM    5  N1  UNL     1      25.536   8.380  48.176  1.00  0.00    -0.408 N 
HETATM    6  C6  UNL     1      25.672   9.614  48.844  1.00  0.00     0.119 C 
HETATM    7  C7  UNL     1      25.320  10.768  47.947  1.00  0.00     0.051 C 
HETATM    8  C8  UNL     1      26.026  10.714  46.604  1.00  0.00     0.128 C 
HETATM    9  C9  UNL     1      25.728   9.423  45.933  1.00  0.00     0.051 C 
HETATM   10  C10 UNL     1      25.202   8.356  46.840  1.00  0.00     0.119 C 
HETATM   11  O2  UNL     1      27.348  11.032  46.638  1.00  0.00    -0.373 OA
HETATM   12  P1  UNL     1      28.358   9.747  46.155  1.00  0.00    -0.044 P 
HETATM   13  C11 UNL     1      29.031   8.725  47.534  1.00  0.00     0.160 A 
HETATM   14  C12 UNL     1      30.269   8.542  48.383  1.00  0.00     0.055 A 
HETATM   15  C13 UNL     1      31.406   9.258  48.273  1.00  0.00     0.091 A 
HETATM   16  N2  UNL     1      30.827  10.406  48.629  1.00  0.00    -0.168 NA
HETATM   17  C14 UNL     1      29.482  10.281  48.906  1.00  0.00     0.099 A 
HETATM   18  N3  UNL     1      30.062   9.062  48.532  1.00  0.00     0.000 N 
HETATM   19  C15 UNL     1      29.109   7.959  48.523  1.00  0.00     0.030 A 
HETATM   20  C16 UNL     1      29.447   6.666  48.286  1.00  0.00    -0.017 A 
HETATM   21  C17 UNL     1      30.521   5.782  47.965  1.00  0.00     0.010 A 
HETATM   22  C18 UNL     1      31.316   4.752  47.675  1.00  0.00     0.001 A 
HETATM   23  C19 UNL     1      32.718   4.950  47.451  1.00  0.00     0.000 A 
HETATM   24  C20 UNL     1      33.825   5.609  47.343  1.00  0.00     0.004 A 
HETATM   25  C21 UNL     1      34.194   7.016  47.462  1.00  0.00     0.061 A 
HETATM   26  C22 UNL     1      33.896   8.304  47.672  1.00  0.00     0.189 A 
HETATM   27  F1  UNL     1      34.664   9.412  47.692  1.00  0.00    -0.186 F 
HETATM   28  N4  UNL     1      32.627   8.791  47.903  1.00  0.00    -0.325 N 
HETATM   29  H18 UNL     1      29.424  10.185  45.247  1.00  0.00     0.075 HD
HETATM   30  H26 UNL     1      32.374   8.911  46.870  1.00  0.00     0.169 HD
ENDROOT
BRANCH   1  31
HETATM   31  O1  UNL     1      27.646   4.773  48.305  1.00  0.00    -0.359 OA
HETATM   32  C1  UNL     1      26.978   4.054  49.296  1.00  0.00     0.209 C 
ENDBRANCH   1  31
TORSDOF 3
ENDMDL
