MODEL 1
REMARK VINA RESULT:      -6.8      0.000      0.000
REMARK  6 active torsions:
REMARK  status: ('A' for Active; 'I' for Inactive)
REMARK    1  A    between atoms: C2_2  and  C3_3 
REMARK    2  A    between atoms: C3_3  and  N2_11 
REMARK    3  A    between atoms: C4_4  and  C5_5 
REMARK       I    between atoms: N2_11  and  C10_12 
REMARK    4  A    between atoms: C10_12  and  C11_14 
REMARK    5  A    between atoms: C12_15  and  C13_16 
REMARK    6  A    between atoms: C13_16  and  N3_18 
ROOT
HETATM    1  N2  UNL     1      24.197   1.242  52.379  1.00  0.00    -0.324 N 
HETATM    2  C10 UNL     1      24.285   2.596  52.861  1.00  0.00     0.245 C 
HETATM    3  O1  UNL     1      25.216   2.718  53.697  1.00  0.00    -0.268 OA
HETATM    4  H11 UNL     1      23.451   1.005  51.666  1.00  0.00     0.169 HD
ENDROOT
BRANCH   1   5
HETATM    5  C3  UNL     1      25.081   0.231  52.840  1.00  0.00     0.032 C 
HETATM    6  C4  UNL     1      26.273   0.089  52.298  1.00  0.00     0.042 C 
BRANCH   5   7
HETATM    7  C2  UNL     1      24.439  -0.501  53.898  1.00  0.00     0.003 C 
HETATM    8  C1  UNL     1      23.154  -0.758  54.176  1.00  0.00     0.033 C 
ENDBRANCH   5   7
BRANCH   6   9
HETATM    9  C5  UNL     1      27.278  -0.892  52.661  1.00  0.00    -0.013 A 
HETATM   10  C6  UNL     1      28.459  -0.693  53.221  1.00  0.00    -0.052 A 
HETATM   11  C7  UNL     1      28.950   0.668  53.583  1.00  0.00     0.046 C 
HETATM   12  C8  UNL     1      29.182  -1.954  53.427  1.00  0.00     0.183 A 
HETATM   13  N1  UNL     1      28.281  -2.956  52.913  1.00  0.00    -0.297 NA
HETATM   14  C9  UNL     1      27.236  -2.337  52.497  1.00  0.00     0.122 A 
ENDBRANCH   6   9
ENDBRANCH   1   5
BRANCH   2  15
HETATM   15  C11 UNL     1      23.397   3.658  52.414  1.00  0.00     0.072 C 
HETATM   16  C12 UNL     1      23.361   4.197  51.228  1.00  0.00     0.003 C 
BRANCH  16  17
HETATM   17  C13 UNL     1      24.154   3.940  50.003  1.00  0.00     0.097 C 
HETATM   18  C14 UNL     1      23.462   4.553  48.813  1.00  0.00     0.036 C 
BRANCH  17  19
HETATM   19  N3  UNL     1      25.482   4.453  50.208  1.00  0.00    -0.414 N 
HETATM   20  C15 UNL     1      26.538   3.522  49.991  1.00  0.00     0.143 C 
HETATM   21  C16 UNL     1      25.682   5.764  49.684  1.00  0.00     0.143 C 
ENDBRANCH  17  19
ENDBRANCH  16  17
ENDBRANCH   2  15
TORSDOF 6
ENDMDL
MODEL 2
REMARK VINA RESULT:      -6.5      2.321      3.857
REMARK  6 active torsions:
REMARK  status: ('A' for Active; 'I' for Inactive)
REMARK    1  A    between atoms: C2_2  and  C3_3 
REMARK    2  A    between atoms: C3_3  and  N2_11 
REMARK    3  A    between atoms: C4_4  and  C5_5 
REMARK       I    between atoms: N2_11  and  C10_12 
REMARK    4  A    between atoms: C10_12  and  C11_14 
REMARK    5  A    between atoms: C12_15  and  C13_16 
REMARK    6  A    between atoms: C13_16  and  N3_18 
ROOT
HETATM    1  N2  UNL     1      25.126   2.633  50.952  1.00  0.00    -0.324 N 
HETATM    2  C10 UNL     1      26.478   3.036  50.663  1.00  0.00     0.245 C 
HETATM    3  O1  UNL     1      27.249   2.748  51.613  1.00  0.00    -0.268 OA
HETATM    4  H11 UNL     1      24.376   2.818  50.229  1.00  0.00     0.169 HD
ENDROOT
BRANCH   1   5
HETATM    5  C3  UNL     1      24.786   2.001  52.177  1.00  0.00     0.032 C 
HETATM    6  C4  UNL     1      24.956   0.704  52.328  1.00  0.00     0.042 C 
BRANCH   5   7
HETATM    7  C2  UNL     1      24.280   2.992  53.087  1.00  0.00     0.003 C 
HETATM    8  C1  UNL     1      23.731   4.201  52.902  1.00  0.00     0.033 C 
ENDBRANCH   5   7
BRANCH   6   9
HETATM    9  C5  UNL     1      24.656  -0.077  53.514  1.00  0.00    -0.013 A 
HETATM   10  C6  UNL     1      23.498  -0.591  53.890  1.00  0.00    -0.052 A 
HETATM   11  C7  UNL     1      22.253  -0.424  53.085  1.00  0.00     0.046 C 
HETATM   12  C8  UNL     1      23.612  -1.318  55.159  1.00  0.00     0.183 A 
HETATM   13  N1  UNL     1      25.003  -1.179  55.512  1.00  0.00    -0.297 NA
HETATM   14  C9  UNL     1      25.555  -0.487  54.581  1.00  0.00     0.122 A 
ENDBRANCH   6   9
ENDBRANCH   1   5
BRANCH   2  15
HETATM   15  C11 UNL     1      26.864   3.688  49.420  1.00  0.00     0.072 C 
HETATM   16  C12 UNL     1      26.459   4.849  48.991  1.00  0.00     0.003 C 
BRANCH  16  17
HETATM   17  C13 UNL     1      25.528   5.846  49.570  1.00  0.00     0.097 C 
HETATM   18  C14 UNL     1      26.211   7.186  49.660  1.00  0.00     0.036 C 
BRANCH  17  19
HETATM   19  N3  UNL     1      24.336   5.874  48.766  1.00  0.00    -0.414 N 
HETATM   20  C15 UNL     1      23.184   5.278  49.355  1.00  0.00     0.143 C 
HETATM   21  C16 UNL     1      24.127   7.111  48.087  1.00  0.00     0.143 C 
ENDBRANCH  17  19
ENDBRANCH  16  17
ENDBRANCH   2  15
TORSDOF 6
ENDMDL
MODEL 3
REMARK VINA RESULT:      -6.3      1.952      6.550
REMARK  6 active torsions:
REMARK  status: ('A' for Active; 'I' for Inactive)
REMARK    1  A    between atoms: C2_2  and  C3_3 
REMARK    2  A    between atoms: C3_3  and  N2_11 
REMARK    3  A    between atoms: C4_4  and  C5_5 
REMARK       I    between atoms: N2_11  and  C10_12 
REMARK    4  A    between atoms: C10_12  and  C11_14 
REMARK    5  A    between atoms: C12_15  and  C13_16 
REMARK    6  A    between atoms: C13_16  and  N3_18 
ROOT
HETATM    1  N2  UNL     1      25.937   2.546  53.404  1.00  0.00    -0.324 N 
HETATM    2  C10 UNL     1      27.216   2.344  52.773  1.00  0.00     0.245 C 
HETATM    3  O1  UNL     1      27.087   2.171  51.535  1.00  0.00    -0.268 OA
HETATM    4  H11 UNL     1      25.906   2.705  54.450  1.00  0.00     0.169 HD
ENDROOT
BRANCH   1   5
HETATM    5  C3  UNL     1      24.730   2.532  52.655  1.00  0.00     0.032 C 
HETATM    6  C4  UNL     1      24.185   3.659  52.247  1.00  0.00     0.042 C 
BRANCH   5   7
HETATM    7  C2  UNL     1      24.309   1.169  52.478  1.00  0.00     0.003 C 
HETATM    8  C1  UNL     1      23.736   0.279  53.302  1.00  0.00     0.033 C 
ENDBRANCH   5   7
BRANCH   6   9
HETATM    9  C5  UNL     1      22.963   3.802  51.480  1.00  0.00    -0.013 A 
HETATM   10  C6  UNL     1      22.794   3.701  50.173  1.00  0.00    -0.052 A 
HETATM   11  C7  UNL     1      23.923   3.403  49.244  1.00  0.00     0.046 C 
HETATM   12  C8  UNL     1      21.394   3.914  49.787  1.00  0.00     0.183 A 
HETATM   13  N1  UNL     1      20.725   4.162  51.041  1.00  0.00    -0.297 NA
HETATM   14  C9  UNL     1      21.620   4.093  51.959  1.00  0.00     0.122 A 
ENDBRANCH   6   9
ENDBRANCH   1   5
BRANCH   2  15
HETATM   15  C11 UNL     1      28.473   2.349  53.507  1.00  0.00     0.072 C 
HETATM   16  C12 UNL     1      28.954   1.382  54.235  1.00  0.00     0.003 C 
BRANCH  16  17
HETATM   17  C13 UNL     1      28.432   0.032  54.553  1.00  0.00     0.097 C 
HETATM   18  C14 UNL     1      27.040   0.147  55.118  1.00  0.00     0.036 C 
BRANCH  17  19
HETATM   19  N3  UNL     1      28.491  -0.769  53.360  1.00  0.00    -0.414 N 
HETATM   20  C15 UNL     1      29.547  -1.725  53.315  1.00  0.00     0.143 C 
HETATM   21  C16 UNL     1      27.218  -1.217  52.902  1.00  0.00     0.143 C 
ENDBRANCH  17  19
ENDBRANCH  16  17
ENDBRANCH   2  15
TORSDOF 6
ENDMDL
MODEL 4
REMARK VINA RESULT:      -6.3      2.238      6.243
REMARK  6 active torsions:
REMARK  status: ('A' for Active; 'I' for Inactive)
REMARK    1  A    between atoms: C2_2  and  C3_3 
REMARK    2  A    between atoms: C3_3  and  N2_11 
REMARK    3  A    between atoms: C4_4  and  C5_5 
REMARK       I    between atoms: N2_11  and  C10_12 
REMARK    4  A    between atoms: C10_12  and  C11_14 
REMARK    5  A    between atoms: C12_15  and  C13_16 
REMARK    6  A    between atoms: C13_16  and  N3_18 
ROOT
HETATM    1  N2  UNL     1      25.328   2.539  53.422  1.00  0.00    -0.324 N 
HETATM    2  C10 UNL     1      26.506   2.148  52.691  1.00  0.00     0.245 C 
HETATM    3  O1  UNL     1      26.202   1.628  51.587  1.00  0.00    -0.268 OA
HETATM    4  H11 UNL     1      25.447   2.992  54.371  1.00  0.00     0.169 HD
ENDROOT
BRANCH   1   5
HETATM    5  C3  UNL     1      24.025   2.328  52.897  1.00  0.00     0.032 C 
HETATM    6  C4  UNL     1      23.475   1.132  52.937  1.00  0.00     0.042 C 
BRANCH   5   7
HETATM    7  C2  UNL     1      23.525   3.573  52.382  1.00  0.00     0.003 C 
HETATM    8  C1  UNL     1      23.557   4.829  52.847  1.00  0.00     0.033 C 
ENDBRANCH   5   7
BRANCH   6   9
HETATM    9  C5  UNL     1      22.162   0.766  52.443  1.00  0.00    -0.013 A 
HETATM   10  C6  UNL     1      21.117   0.331  53.126  1.00  0.00    -0.052 A 
HETATM   11  C7  UNL     1      21.152   0.148  54.606  1.00  0.00     0.046 C 
HETATM   12  C8  UNL     1      19.967   0.070  52.253  1.00  0.00     0.183 A 
HETATM   13  N1  UNL     1      20.452   0.403  50.936  1.00  0.00    -0.297 NA
HETATM   14  C9  UNL     1      21.669   0.785  51.075  1.00  0.00     0.122 A 
ENDBRANCH   6   9
ENDBRANCH   1   5
BRANCH   2  15
HETATM   15  C11 UNL     1      27.856   2.346  53.196  1.00  0.00     0.072 C 
HETATM   16  C12 UNL     1      28.558   1.501  53.898  1.00  0.00     0.003 C 
BRANCH  16  17
HETATM   17  C13 UNL     1      28.253   0.139  54.396  1.00  0.00     0.097 C 
HETATM   18  C14 UNL     1      26.881   0.122  55.018  1.00  0.00     0.036 C 
BRANCH  17  19
HETATM   19  N3  UNL     1      28.385  -0.784  53.301  1.00  0.00    -0.414 N 
HETATM   20  C15 UNL     1      29.535  -1.624  53.343  1.00  0.00     0.143 C 
HETATM   21  C16 UNL     1      27.162  -1.411  52.923  1.00  0.00     0.143 C 
ENDBRANCH  17  19
ENDBRANCH  16  17
ENDBRANCH   2  15
TORSDOF 6
ENDMDL
MODEL 5
REMARK VINA RESULT:      -6.2      2.338      4.201
REMARK  6 active torsions:
REMARK  status: ('A' for Active; 'I' for Inactive)
REMARK    1  A    between atoms: C2_2  and  C3_3 
REMARK    2  A    between atoms: C3_3  and  N2_11 
REMARK    3  A    between atoms: C4_4  and  C5_5 
REMARK       I    between atoms: N2_11  and  C10_12 
REMARK    4  A    between atoms: C10_12  and  C11_14 
REMARK    5  A    between atoms: C12_15  and  C13_16 
REMARK    6  A    between atoms: C13_16  and  N3_18 
ROOT
HETATM    1  N2  UNL     1      24.413   1.800  51.633  1.00  0.00    -0.324 N 
HETATM    2  C10 UNL     1      23.741   2.708  52.526  1.00  0.00     0.245 C 
HETATM    3  O1  UNL     1      24.517   3.113  53.428  1.00  0.00    -0.268 OA
HETATM    4  H11 UNL     1      23.868   1.386  50.825  1.00  0.00     0.169 HD
ENDROOT
BRANCH   1   5
HETATM    5  C3  UNL     1      25.778   1.453  51.817  1.00  0.00     0.032 C 
HETATM    6  C4  UNL     1      26.131   0.619  52.773  1.00  0.00     0.042 C 
BRANCH   5   7
HETATM    7  C2  UNL     1      26.569   2.143  50.835  1.00  0.00     0.003 C 
HETATM    8  C1  UNL     1      26.495   3.373  50.308  1.00  0.00     0.033 C 
ENDBRANCH   5   7
BRANCH   6   9
HETATM    9  C5  UNL     1      27.477   0.175  53.081  1.00  0.00    -0.013 A 
HETATM   10  C6  UNL     1      27.976  -1.047  53.016  1.00  0.00    -0.052 A 
HETATM   11  C7  UNL     1      27.160  -2.219  52.584  1.00  0.00     0.046 C 
HETATM   12  C8  UNL     1      29.389  -1.080  53.412  1.00  0.00     0.183 A 
HETATM   13  N1  UNL     1      29.689   0.294  53.732  1.00  0.00    -0.297 NA
HETATM   14  C9  UNL     1      28.611   0.964  53.538  1.00  0.00     0.122 A 
ENDBRANCH   6   9
ENDBRANCH   1   5
BRANCH   2  15
HETATM   15  C11 UNL     1      22.344   3.086  52.371  1.00  0.00     0.072 C 
HETATM   16  C12 UNL     1      21.317   2.285  52.354  1.00  0.00     0.003 C 
BRANCH  16  17
HETATM   17  C13 UNL     1      21.213   0.812  52.476  1.00  0.00     0.097 C 
HETATM   18  C14 UNL     1      20.514   0.457  53.764  1.00  0.00     0.036 C 
BRANCH  17  19
HETATM   19  N3  UNL     1      20.535   0.307  51.312  1.00  0.00    -0.414 N 
HETATM   20  C15 UNL     1      19.119   0.461  51.312  1.00  0.00     0.143 C 
HETATM   21  C16 UNL     1      21.200   0.601  50.085  1.00  0.00     0.143 C 
ENDBRANCH  17  19
ENDBRANCH  16  17
ENDBRANCH   2  15
TORSDOF 6
ENDMDL
MODEL 6
REMARK VINA RESULT:      -6.2      1.957      3.170
REMARK  6 active torsions:
REMARK  status: ('A' for Active; 'I' for Inactive)
REMARK    1  A    between atoms: C2_2  and  C3_3 
REMARK    2  A    between atoms: C3_3  and  N2_11 
REMARK    3  A    between atoms: C4_4  and  C5_5 
REMARK       I    between atoms: N2_11  and  C10_12 
REMARK    4  A    between atoms: C10_12  and  C11_14 
REMARK    5  A    between atoms: C12_15  and  C13_16 
REMARK    6  A    between atoms: C13_16  and  N3_18 
ROOT
HETATM    1  N2  UNL     1      25.069   3.318  52.285  1.00  0.00    -0.324 N 
HETATM    2  C10 UNL     1      23.706   2.878  52.134  1.00  0.00     0.245 C 
HETATM    3  O1  UNL     1      23.651   1.638  51.938  1.00  0.00    -0.268 OA
HETATM    4  H11 UNL     1      25.255   4.346  52.457  1.00  0.00     0.169 HD
ENDROOT
BRANCH   1   5
HETATM    5  C3  UNL     1      26.156   2.408  52.207  1.00  0.00     0.032 C 
HETATM    6  C4  UNL     1      26.558   1.755  53.277  1.00  0.00     0.042 C 
BRANCH   5   7
HETATM    7  C2  UNL     1      26.642   2.380  50.854  1.00  0.00     0.003 C 
HETATM    8  C1  UNL     1      26.468   3.200  49.808  1.00  0.00     0.033 C 
ENDBRANCH   5   7
BRANCH   6   9
HETATM    9  C5  UNL     1      27.648   0.799  53.351  1.00  0.00    -0.013 A 
HETATM   10  C6  UNL     1      27.621  -0.500  53.112  1.00  0.00    -0.052 A 
HETATM   11  C7  UNL     1      26.374  -1.210  52.703  1.00  0.00     0.046 C 
HETATM   12  C8  UNL     1      28.941  -1.115  53.298  1.00  0.00     0.183 A 
HETATM   13  N1  UNL     1      29.783  -0.010  53.687  1.00  0.00    -0.297 NA
HETATM   14  C9  UNL     1      29.038   1.035  53.706  1.00  0.00     0.122 A 
ENDBRANCH   6   9
ENDBRANCH   1   5
BRANCH   2  15
HETATM   15  C11 UNL     1      22.568   3.781  52.206  1.00  0.00     0.072 C 
HETATM   16  C12 UNL     1      22.364   4.839  51.473  1.00  0.00     0.003 C 
BRANCH  16  17
HETATM   17  C13 UNL     1      23.160   5.454  50.385  1.00  0.00     0.097 C 
HETATM   18  C14 UNL     1      22.874   4.749  49.085  1.00  0.00     0.036 C 
BRANCH  17  19
HETATM   19  N3  UNL     1      22.857   6.860  50.341  1.00  0.00    -0.414 N 
HETATM   20  C15 UNL     1      21.523   7.211  50.697  1.00  0.00     0.143 C 
HETATM   21  C16 UNL     1      23.888   7.689  50.872  1.00  0.00     0.143 C 
ENDBRANCH  17  19
ENDBRANCH  16  17
ENDBRANCH   2  15
TORSDOF 6
ENDMDL
MODEL 7
REMARK VINA RESULT:      -6.2      2.533      3.786
REMARK  6 active torsions:
REMARK  status: ('A' for Active; 'I' for Inactive)
REMARK    1  A    between atoms: C2_2  and  C3_3 
REMARK    2  A    between atoms: C3_3  and  N2_11 
REMARK    3  A    between atoms: C4_4  and  C5_5 
REMARK       I    between atoms: N2_11  and  C10_12 
REMARK    4  A    between atoms: C10_12  and  C11_14 
REMARK    5  A    between atoms: C12_15  and  C13_16 
REMARK    6  A    between atoms: C13_16  and  N3_18 
ROOT
HETATM    1  N2  UNL     1      24.012   1.269  53.360  1.00  0.00    -0.324 N 
HETATM    2  C10 UNL     1      22.941   0.306  53.360  1.00  0.00     0.245 C 
HETATM    3  O1  UNL     1      23.367  -0.844  53.082  1.00  0.00    -0.268 OA
HETATM    4  H11 UNL     1      23.786   2.279  53.582  1.00  0.00     0.169 HD
ENDROOT
BRANCH   1   5
HETATM    5  C3  UNL     1      25.350   0.891  53.071  1.00  0.00     0.032 C 
HETATM    6  C4  UNL     1      26.076   0.264  53.972  1.00  0.00     0.042 C 
BRANCH   5   7
HETATM    7  C2  UNL     1      25.670   1.306  51.732  1.00  0.00     0.003 C 
HETATM    8  C1  UNL     1      26.436   2.292  51.244  1.00  0.00     0.033 C 
ENDBRANCH   5   7
BRANCH   6   9
HETATM    9  C5  UNL     1      27.449  -0.181  53.821  1.00  0.00    -0.013 A 
HETATM   10  C6  UNL     1      27.904  -1.248  53.188  1.00  0.00    -0.052 A 
HETATM   11  C7  UNL     1      26.999  -2.207  52.490  1.00  0.00     0.046 C 
HETATM   12  C8  UNL     1      29.366  -1.344  53.267  1.00  0.00     0.183 A 
HETATM   13  N1  UNL     1      29.747  -0.188  54.039  1.00  0.00    -0.297 NA
HETATM   14  C9  UNL     1      28.663   0.436  54.331  1.00  0.00     0.122 A 
ENDBRANCH   6   9
ENDBRANCH   1   5
BRANCH   2  15
HETATM   15  C11 UNL     1      21.559   0.655  53.650  1.00  0.00     0.072 C 
HETATM   16  C12 UNL     1      20.656   1.044  52.794  1.00  0.00     0.003 C 
BRANCH  16  17
HETATM   17  C13 UNL     1      20.713   1.254  51.328  1.00  0.00     0.097 C 
HETATM   18  C14 UNL     1      19.481   0.672  50.684  1.00  0.00     0.036 C 
BRANCH  17  19
HETATM   19  N3  UNL     1      20.867   2.662  51.078  1.00  0.00    -0.414 N 
HETATM   20  C15 UNL     1      20.092   3.521  51.909  1.00  0.00     0.143 C 
HETATM   21  C16 UNL     1      22.215   3.062  50.844  1.00  0.00     0.143 C 
ENDBRANCH  17  19
ENDBRANCH  16  17
ENDBRANCH   2  15
TORSDOF 6
ENDMDL
MODEL 8
REMARK VINA RESULT:      -6.2      2.155      7.201
REMARK  6 active torsions:
REMARK  status: ('A' for Active; 'I' for Inactive)
REMARK    1  A    between atoms: C2_2  and  C3_3 
REMARK    2  A    between atoms: C3_3  and  N2_11 
REMARK    3  A    between atoms: C4_4  and  C5_5 
REMARK       I    between atoms: N2_11  and  C10_12 
REMARK    4  A    between atoms: C10_12  and  C11_14 
REMARK    5  A    between atoms: C12_15  and  C13_16 
REMARK    6  A    between atoms: C13_16  and  N3_18 
ROOT
HETATM    1  N2  UNL     1      24.752   3.976  51.519  1.00  0.00    -0.324 N 
HETATM    2  C10 UNL     1      24.859   2.659  52.093  1.00  0.00     0.245 C 
HETATM    3  O1  UNL     1      24.634   1.771  51.232  1.00  0.00    -0.268 OA
HETATM    4  H11 UNL     1      24.920   4.816  52.141  1.00  0.00     0.169 HD
ENDROOT
BRANCH   1   5
HETATM    5  C3  UNL     1      24.429   4.164  50.149  1.00  0.00     0.032 C 
HETATM    6  C4  UNL     1      23.187   4.031  49.732  1.00  0.00     0.042 C 
BRANCH   5   7
HETATM    7  C2  UNL     1      25.629   4.492  49.429  1.00  0.00     0.003 C 
HETATM    8  C1  UNL     1      26.811   3.873  49.302  1.00  0.00     0.033 C 
ENDBRANCH   5   7
BRANCH   6   9
HETATM    9  C5  UNL     1      22.707   4.190  48.372  1.00  0.00    -0.013 A 
HETATM   10  C6  UNL     1      22.274   3.262  47.538  1.00  0.00    -0.052 A 
HETATM   11  C7  UNL     1      22.216   1.819  47.911  1.00  0.00     0.046 C 
HETATM   12  C8  UNL     1      21.876   3.835  46.246  1.00  0.00     0.183 A 
HETATM   13  N1  UNL     1      22.126   5.246  46.404  1.00  0.00    -0.297 NA
HETATM   14  C9  UNL     1      22.585   5.411  47.591  1.00  0.00     0.122 A 
ENDBRANCH   6   9
ENDBRANCH   1   5
BRANCH   2  15
HETATM   15  C11 UNL     1      25.186   2.426  53.491  1.00  0.00     0.072 C 
HETATM   16  C12 UNL     1      26.306   1.953  53.961  1.00  0.00     0.003 C 
BRANCH  16  17
HETATM   17  C13 UNL     1      27.552   1.516  53.289  1.00  0.00     0.097 C 
HETATM   18  C14 UNL     1      28.682   2.439  53.664  1.00  0.00     0.036 C 
BRANCH  17  19
HETATM   19  N3  UNL     1      27.802   0.145  53.646  1.00  0.00    -0.414 N 
HETATM   20  C15 UNL     1      27.048  -0.824  52.924  1.00  0.00     0.143 C 
HETATM   21  C16 UNL     1      29.180  -0.156  53.851  1.00  0.00     0.143 C 
ENDBRANCH  17  19
ENDBRANCH  16  17
ENDBRANCH   2  15
TORSDOF 6
ENDMDL
MODEL 9
REMARK VINA RESULT:      -6.1      2.894      4.518
REMARK  6 active torsions:
REMARK  status: ('A' for Active; 'I' for Inactive)
REMARK    1  A    between atoms: C2_2  and  C3_3 
REMARK    2  A    between atoms: C3_3  and  N2_11 
REMARK    3  A    between atoms: C4_4  and  C5_5 
REMARK       I    between atoms: N2_11  and  C10_12 
REMARK    4  A    between atoms: C10_12  and  C11_14 
REMARK    5  A    between atoms: C12_15  and  C13_16 
REMARK    6  A    between atoms: C13_16  and  N3_18 
ROOT
HETATM    1  N2  UNL     1      25.889   3.310  51.339  1.00  0.00    -0.324 N 
HETATM    2  C10 UNL     1      25.815   3.609  49.932  1.00  0.00     0.245 C 
HETATM    3  O1  UNL     1      24.725   3.216  49.444  1.00  0.00    -0.268 OA
HETATM    4  H11 UNL     1      26.759   3.592  51.872  1.00  0.00     0.169 HD
ENDROOT
BRANCH   1   5
HETATM    5  C3  UNL     1      24.828   2.651  52.015  1.00  0.00     0.032 C 
HETATM    6  C4  UNL     1      24.694   1.344  51.932  1.00  0.00     0.042 C 
BRANCH   5   7
HETATM    7  C2  UNL     1      24.044   3.631  52.716  1.00  0.00     0.003 C 
HETATM    8  C1  UNL     1      22.900   4.262  52.418  1.00  0.00     0.033 C 
ENDBRANCH   5   7
BRANCH   6   9
HETATM    9  C5  UNL     1      23.667   0.536  52.562  1.00  0.00    -0.013 A 
HETATM   10  C6  UNL     1      23.784  -0.299  53.579  1.00  0.00    -0.052 A 
HETATM   11  C7  UNL     1      25.086  -0.540  54.267  1.00  0.00     0.046 C 
HETATM   12  C8  UNL     1      22.501  -0.926  53.919  1.00  0.00     0.183 A 
HETATM   13  N1  UNL     1      21.578  -0.360  52.967  1.00  0.00    -0.297 NA
HETATM   14  C9  UNL     1      22.254   0.446  52.230  1.00  0.00     0.122 A 
ENDBRANCH   6   9
ENDBRANCH   1   5
BRANCH   2  15
HETATM   15  C11 UNL     1      26.881   4.281  49.205  1.00  0.00     0.072 C 
HETATM   16  C12 UNL     1      26.860   5.497  48.738  1.00  0.00     0.003 C 
BRANCH  16  17
HETATM   17  C13 UNL     1      25.820   6.551  48.777  1.00  0.00     0.097 C 
HETATM   18  C14 UNL     1      25.867   7.262  50.105  1.00  0.00     0.036 C 
BRANCH  17  19
HETATM   19  N3  UNL     1      26.025   7.433  47.660  1.00  0.00    -0.414 N 
HETATM   20  C15 UNL     1      24.843   7.857  46.988  1.00  0.00     0.143 C 
HETATM   21  C16 UNL     1      27.013   8.435  47.889  1.00  0.00     0.143 C 
ENDBRANCH  17  19
ENDBRANCH  16  17
ENDBRANCH   2  15
TORSDOF 6
ENDMDL
