MODEL 1
REMARK VINA RESULT:      -9.2      0.000      0.000
REMARK  0 active torsions:
REMARK  status: ('A' for Active; 'I' for Inactive)
ROOT
HETATM    1  C1  UNL     1      26.800  -1.689  52.361  1.00  0.00     0.038 C 
HETATM    2  C2  UNL     1      26.237  -0.298  52.249  1.00  0.00    -0.004 C 
HETATM    3  C3  UNL     1      26.021   0.624  53.195  1.00  0.00     0.034 C 
HETATM    4  C4  UNL     1      25.601   1.915  53.748  1.00  0.00     0.097 C 
HETATM    5  C5  UNL     1      24.920   2.818  52.796  1.00  0.00    -0.052 A 
HETATM    6  C6  UNL     1      24.245   3.859  53.447  1.00  0.00     0.010 A 
HETATM    7  C7  UNL     1      23.501   4.770  52.734  1.00  0.00     0.030 A 
HETATM    8  C8  UNL     1      23.428   4.646  51.362  1.00  0.00     0.033 A 
HETATM    9  C9  UNL     1      24.094   3.623  50.712  1.00  0.00     0.030 A 
HETATM   10  C10 UNL     1      24.838   2.713  51.429  1.00  0.00     0.010 A 
HETATM   11  N1  UNL     1      22.663   5.507  50.530  1.00  0.00    -0.341 N 
HETATM   12  C11 UNL     1      21.489   4.711  50.782  1.00  0.00     0.129 C 
HETATM   13  C12 UNL     1      21.385   3.717  51.711  1.00  0.00     0.054 C 
HETATM   14  C13 UNL     1      21.563   2.413  52.110  1.00  0.00     0.054 C 
HETATM   15  C14 UNL     1      21.495   1.203  51.466  1.00  0.00     0.123 C 
HETATM   16  N2  UNL     1      21.487   1.512  50.160  1.00  0.00    -0.242 NA
HETATM   17  C15 UNL     1      20.392   1.141  49.452  1.00  0.00     0.138 C 
HETATM   18  C16 UNL     1      19.880   2.206  48.716  1.00  0.00     0.137 C 
HETATM   19  N3  UNL     1      19.833   3.456  48.220  1.00  0.00    -0.253 NA
HETATM   20  C17 UNL     1      20.486   4.489  48.744  1.00  0.00     0.234 C 
HETATM   21  N4  UNL     1      20.402   4.997  50.004  1.00  0.00    -0.225 NA
HETATM   22  N5  UNL     1      21.450  -0.051  52.060  1.00  0.00    -0.371 N 
HETATM   23  C18 UNL     1      21.577  -0.766  53.289  1.00  0.00     0.148 C 
HETATM   24  C19 UNL     1      22.926  -0.727  53.850  1.00  0.00    -0.006 C 
HETATM   25  C20 UNL     1      24.200  -0.529  54.125  1.00  0.00     0.017 C 
HETATM   26  C21 UNL     1      25.390  -0.709  54.955  1.00  0.00     0.116 C 
HETATM   27  N6  UNL     1      26.386  -0.067  54.424  1.00  0.00    -0.266 NA
HETATM   28  H11 UNL     1      22.629   6.344  49.918  1.00  0.00     0.167 HD
HETATM   29  H17 UNL     1      21.236  -0.719  51.257  1.00  0.00     0.161 HD
ENDROOT
TORSDOF 0
ENDMDL
MODEL 2
REMARK VINA RESULT:      -9.1      1.691      6.123
REMARK  0 active torsions:
REMARK  status: ('A' for Active; 'I' for Inactive)
ROOT
HETATM    1  C1  UNL     1      21.123   6.144  50.408  1.00  0.00     0.038 C 
HETATM    2  C2  UNL     1      22.270   5.363  50.988  1.00  0.00    -0.004 C 
HETATM    3  C3  UNL     1      23.419   4.971  50.423  1.00  0.00     0.034 C 
HETATM    4  C4  UNL     1      24.735   4.327  50.350  1.00  0.00     0.097 C 
HETATM    5  C5  UNL     1      25.116   3.536  51.538  1.00  0.00    -0.052 A 
HETATM    6  C6  UNL     1      26.194   2.679  51.278  1.00  0.00     0.010 A 
HETATM    7  C7  UNL     1      26.658   1.816  52.244  1.00  0.00     0.030 A 
HETATM    8  C8  UNL     1      26.045   1.805  53.480  1.00  0.00     0.033 A 
HETATM    9  C9  UNL     1      24.982   2.649  53.745  1.00  0.00     0.030 A 
HETATM   10  C10 UNL     1      24.521   3.511  52.776  1.00  0.00     0.010 A 
HETATM   11  N1  UNL     1      26.417   0.933  54.538  1.00  0.00    -0.341 N 
HETATM   12  C11 UNL     1      25.581  -0.100  53.984  1.00  0.00     0.129 C 
HETATM   13  C12 UNL     1      24.977  -0.066  52.760  1.00  0.00     0.054 C 
HETATM   14  C13 UNL     1      23.948   0.312  51.931  1.00  0.00     0.054 C 
HETATM   15  C14 UNL     1      22.594   0.464  52.103  1.00  0.00     0.123 C 
HETATM   16  N2  UNL     1      22.415   0.444  53.432  1.00  0.00    -0.242 NA
HETATM   17  C15 UNL     1      21.642  -0.554  53.928  1.00  0.00     0.138 C 
HETATM   18  C16 UNL     1      22.278  -1.213  54.978  1.00  0.00     0.137 C 
HETATM   19  N3  UNL     1      23.245  -1.451  55.882  1.00  0.00    -0.253 NA
HETATM   20  C17 UNL     1      24.489  -0.992  55.779  1.00  0.00     0.234 C 
HETATM   21  N4  UNL     1      25.389  -1.197  54.778  1.00  0.00    -0.225 NA
HETATM   22  N5  UNL     1      21.644   0.609  51.102  1.00  0.00    -0.371 N 
HETATM   23  C18 UNL     1      21.442   0.816  49.703  1.00  0.00     0.148 C 
HETATM   24  C19 UNL     1      21.899   2.123  49.235  1.00  0.00    -0.006 C 
HETATM   25  C20 UNL     1      22.388   3.337  49.089  1.00  0.00     0.017 C 
HETATM   26  C21 UNL     1      22.712   4.516  48.286  1.00  0.00     0.116 C 
HETATM   27  N6  UNL     1      23.279   5.408  49.041  1.00  0.00    -0.266 NA
HETATM   28  H11 UNL     1      26.965   0.780  55.406  1.00  0.00     0.167 HD
HETATM   29  H17 UNL     1      20.708   0.532  51.609  1.00  0.00     0.161 HD
ENDROOT
TORSDOF 0
ENDMDL
MODEL 3
REMARK VINA RESULT:      -8.7      2.063      4.688
REMARK  0 active torsions:
REMARK  status: ('A' for Active; 'I' for Inactive)
ROOT
HETATM    1  C1  UNL     1      20.764   0.524  54.866  1.00  0.00     0.038 C 
HETATM    2  C2  UNL     1      20.793   1.014  53.444  1.00  0.00    -0.004 C 
HETATM    3  C3  UNL     1      21.153   0.380  52.321  1.00  0.00     0.034 C 
HETATM    4  C4  UNL     1      21.398   0.217  50.885  1.00  0.00     0.097 C 
HETATM    5  C5  UNL     1      21.274   1.450  50.080  1.00  0.00    -0.052 A 
HETATM    6  C6  UNL     1      21.849   1.311  48.809  1.00  0.00     0.010 A 
HETATM    7  C7  UNL     1      21.887   2.371  47.933  1.00  0.00     0.030 A 
HETATM    8  C8  UNL     1      21.347   3.580  48.323  1.00  0.00     0.033 A 
HETATM    9  C9  UNL     1      20.775   3.723  49.573  1.00  0.00     0.030 A 
HETATM   10  C10 UNL     1      20.739   2.660  50.447  1.00  0.00     0.010 A 
HETATM   11  N1  UNL     1      21.362   4.748  47.515  1.00  0.00    -0.341 N 
HETATM   12  C11 UNL     1      22.688   5.057  47.981  1.00  0.00     0.129 C 
HETATM   13  C12 UNL     1      23.487   4.231  48.718  1.00  0.00     0.054 C 
HETATM   14  C13 UNL     1      23.890   3.695  49.918  1.00  0.00     0.054 C 
HETATM   15  C14 UNL     1      23.990   4.188  51.195  1.00  0.00     0.123 C 
HETATM   16  N2  UNL     1      23.303   5.340  51.169  1.00  0.00    -0.242 NA
HETATM   17  C15 UNL     1      24.000   6.471  51.446  1.00  0.00     0.138 C 
HETATM   18  C16 UNL     1      23.788   7.446  50.475  1.00  0.00     0.137 C 
HETATM   19  N3  UNL     1      23.245   7.996  49.373  1.00  0.00    -0.253 NA
HETATM   20  C17 UNL     1      22.648   7.298  48.411  1.00  0.00     0.234 C 
HETATM   21  N4  UNL     1      23.161   6.296  47.646  1.00  0.00    -0.225 NA
HETATM   22  N5  UNL     1      24.656   3.599  52.261  1.00  0.00    -0.371 N 
HETATM   23  C18 UNL     1      25.321   2.419  52.715  1.00  0.00     0.148 C 
HETATM   24  C19 UNL     1      24.437   1.262  52.839  1.00  0.00    -0.006 C 
HETATM   25  C20 UNL     1      23.439   0.402  52.854  1.00  0.00     0.017 C 
HETATM   26  C21 UNL     1      22.875  -0.925  53.100  1.00  0.00     0.116 C 
HETATM   27  N6  UNL     1      21.611  -0.917  52.801  1.00  0.00    -0.266 NA
HETATM   28  H11 UNL     1      20.870   5.359  46.835  1.00  0.00     0.167 HD
HETATM   29  H17 UNL     1      24.652   4.345  53.023  1.00  0.00     0.161 HD
ENDROOT
TORSDOF 0
ENDMDL
MODEL 4
REMARK VINA RESULT:      -8.5      1.650      6.744
REMARK  0 active torsions:
REMARK  status: ('A' for Active; 'I' for Inactive)
ROOT
HETATM    1  C1  UNL     1      20.782   5.027  47.274  1.00  0.00     0.038 C 
HETATM    2  C2  UNL     1      20.838   4.003  48.374  1.00  0.00    -0.004 C 
HETATM    3  C3  UNL     1      20.179   3.952  49.538  1.00  0.00     0.034 C 
HETATM    4  C4  UNL     1      19.782   3.404  50.840  1.00  0.00     0.097 C 
HETATM    5  C5  UNL     1      20.555   2.229  51.293  1.00  0.00    -0.052 A 
HETATM    6  C6  UNL     1      20.376   1.974  52.659  1.00  0.00     0.010 A 
HETATM    7  C7  UNL     1      21.061   0.955  53.281  1.00  0.00     0.030 A 
HETATM    8  C8  UNL     1      21.930   0.183  52.539  1.00  0.00     0.033 A 
HETATM    9  C9  UNL     1      22.109   0.427  51.190  1.00  0.00     0.030 A 
HETATM   10  C10 UNL     1      21.423   1.447  50.570  1.00  0.00     0.010 A 
HETATM   11  N1  UNL     1      22.713  -0.870  53.083  1.00  0.00    -0.341 N 
HETATM   12  C11 UNL     1      23.716   0.081  53.486  1.00  0.00     0.129 C 
HETATM   13  C12 UNL     1      23.584   1.439  53.458  1.00  0.00     0.054 C 
HETATM   14  C13 UNL     1      23.633   2.644  52.797  1.00  0.00     0.054 C 
HETATM   15  C14 UNL     1      24.429   3.152  51.801  1.00  0.00     0.123 C 
HETATM   16  N2  UNL     1      25.074   2.085  51.304  1.00  0.00    -0.242 NA
HETATM   17  C15 UNL     1      26.426   2.091  51.403  1.00  0.00     0.138 C 
HETATM   18  C16 UNL     1      26.898   0.903  51.958  1.00  0.00     0.137 C 
HETATM   19  N3  UNL     1      26.821  -0.345  52.455  1.00  0.00    -0.253 NA
HETATM   20  C17 UNL     1      25.702  -0.892  52.920  1.00  0.00     0.234 C 
HETATM   21  N4  UNL     1      24.896  -0.453  53.925  1.00  0.00    -0.225 NA
HETATM   22  N5  UNL     1      24.521   4.480  51.411  1.00  0.00    -0.371 N 
HETATM   23  C18 UNL     1      23.955   5.784  51.557  1.00  0.00     0.148 C 
HETATM   24  C19 UNL     1      22.596   5.892  51.030  1.00  0.00    -0.006 C 
HETATM   25  C20 UNL     1      21.407   5.710  50.493  1.00  0.00     0.017 C 
HETATM   26  C21 UNL     1      20.087   6.182  50.077  1.00  0.00     0.116 C 
HETATM   27  N6  UNL     1      19.424   5.196  49.551  1.00  0.00    -0.266 NA
HETATM   28  H11 UNL     1      22.821  -1.885  53.271  1.00  0.00     0.167 HD
HETATM   29  H17 UNL     1      25.348   4.504  50.737  1.00  0.00     0.161 HD
ENDROOT
TORSDOF 0
ENDMDL
MODEL 5
REMARK VINA RESULT:      -7.9      2.220      6.147
REMARK  0 active torsions:
REMARK  status: ('A' for Active; 'I' for Inactive)
ROOT
HETATM    1  C1  UNL     1      22.029   8.727  49.319  1.00  0.00     0.038 C 
HETATM    2  C2  UNL     1      22.727   7.544  49.933  1.00  0.00    -0.004 C 
HETATM    3  C3  UNL     1      23.795   6.858  49.509  1.00  0.00     0.034 C 
HETATM    4  C4  UNL     1      24.834   5.823  49.544  1.00  0.00     0.097 C 
HETATM    5  C5  UNL     1      24.685   4.817  50.616  1.00  0.00    -0.052 A 
HETATM    6  C6  UNL     1      25.480   3.685  50.391  1.00  0.00     0.010 A 
HETATM    7  C7  UNL     1      25.435   2.610  51.249  1.00  0.00     0.030 A 
HETATM    8  C8  UNL     1      24.593   2.661  52.341  1.00  0.00     0.033 A 
HETATM    9  C9  UNL     1      23.808   3.776  52.571  1.00  0.00     0.030 A 
HETATM   10  C10 UNL     1      23.856   4.850  51.711  1.00  0.00     0.010 A 
HETATM   11  N1  UNL     1      24.440   1.599  53.271  1.00  0.00    -0.341 N 
HETATM   12  C11 UNL     1      23.471   0.978  52.406  1.00  0.00     0.129 C 
HETATM   13  C12 UNL     1      23.189   1.354  51.124  1.00  0.00     0.054 C 
HETATM   14  C13 UNL     1      22.532   2.150  50.216  1.00  0.00     0.054 C 
HETATM   15  C14 UNL     1      21.287   2.726  50.180  1.00  0.00     0.123 C 
HETATM   16  N2  UNL     1      20.824   2.612  51.435  1.00  0.00    -0.242 NA
HETATM   17  C15 UNL     1      19.694   1.881  51.604  1.00  0.00     0.138 C 
HETATM   18  C16 UNL     1      19.853   0.930  52.609  1.00  0.00     0.137 C 
HETATM   19  N3  UNL     1      20.478   0.278  53.606  1.00  0.00    -0.253 NA
HETATM   20  C17 UNL     1      21.794   0.301  53.799  1.00  0.00     0.234 C 
HETATM   21  N4  UNL     1      22.785  -0.075  52.944  1.00  0.00    -0.225 NA
HETATM   22  N5  UNL     1      20.669   3.296  49.077  1.00  0.00    -0.371 N 
HETATM   23  C18 UNL     1      20.851   3.720  47.725  1.00  0.00     0.148 C 
HETATM   24  C19 UNL     1      21.776   4.844  47.585  1.00  0.00    -0.006 C 
HETATM   25  C20 UNL     1      22.632   5.832  47.746  1.00  0.00     0.017 C 
HETATM   26  C21 UNL     1      23.468   6.919  47.237  1.00  0.00     0.116 C 
HETATM   27  N6  UNL     1      24.101   7.474  48.225  1.00  0.00    -0.266 NA
HETATM   28  H11 UNL     1      24.711   1.170  54.177  1.00  0.00     0.167 HD
HETATM   29  H17 UNL     1      19.668   3.479  49.396  1.00  0.00     0.161 HD
ENDROOT
TORSDOF 0
ENDMDL
MODEL 6
REMARK VINA RESULT:      -7.8     10.425     13.229
REMARK  0 active torsions:
REMARK  status: ('A' for Active; 'I' for Inactive)
ROOT
HETATM    1  C1  UNL     1      28.148  11.229  46.423  1.00  0.00     0.038 C 
HETATM    2  C2  UNL     1      28.860  10.039  47.006  1.00  0.00    -0.004 C 
HETATM    3  C3  UNL     1      29.436   9.881  48.204  1.00  0.00     0.034 C 
HETATM    4  C4  UNL     1      30.163   9.182  49.269  1.00  0.00     0.097 C 
HETATM    5  C5  UNL     1      30.709   7.860  48.897  1.00  0.00    -0.052 A 
HETATM    6  C6  UNL     1      31.668   7.408  49.814  1.00  0.00     0.010 A 
HETATM    7  C7  UNL     1      32.336   6.223  49.608  1.00  0.00     0.030 A 
HETATM    8  C8  UNL     1      32.047   5.479  48.483  1.00  0.00     0.033 A 
HETATM    9  C9  UNL     1      31.100   5.917  47.576  1.00  0.00     0.030 A 
HETATM   10  C10 UNL     1      30.433   7.104  47.784  1.00  0.00     0.010 A 
HETATM   11  N1  UNL     1      32.698   4.261  48.153  1.00  0.00    -0.341 N 
HETATM   12  C11 UNL     1      33.769   4.998  47.534  1.00  0.00     0.129 C 
HETATM   13  C12 UNL     1      33.956   6.347  47.610  1.00  0.00     0.054 C 
HETATM   14  C13 UNL     1      33.695   7.628  47.184  1.00  0.00     0.054 C 
HETATM   15  C14 UNL     1      33.425   8.188  45.960  1.00  0.00     0.123 C 
HETATM   16  N2  UNL     1      33.153   7.145  45.162  1.00  0.00    -0.242 NA
HETATM   17  C15 UNL     1      33.972   6.963  44.096  1.00  0.00     0.138 C 
HETATM   18  C16 UNL     1      34.434   5.650  44.032  1.00  0.00     0.137 C 
HETATM   19  N3  UNL     1      34.537   4.358  44.390  1.00  0.00    -0.253 NA
HETATM   20  C17 UNL     1      34.191   3.887  45.585  1.00  0.00     0.234 C 
HETATM   21  N4  UNL     1      34.659   4.254  46.810  1.00  0.00    -0.225 NA
HETATM   22  N5  UNL     1      33.434   9.540  45.647  1.00  0.00    -0.371 N 
HETATM   23  C18 UNL     1      33.514  10.863  46.181  1.00  0.00     0.148 C 
HETATM   24  C19 UNL     1      32.367  11.228  47.010  1.00  0.00    -0.006 C 
HETATM   25  C20 UNL     1      31.244  11.288  47.698  1.00  0.00     0.017 C 
HETATM   26  C21 UNL     1      30.284  11.986  48.553  1.00  0.00     0.116 C 
HETATM   27  N6  UNL     1      29.292  11.192  48.821  1.00  0.00    -0.266 NA
HETATM   28  H11 UNL     1      32.699   3.223  48.181  1.00  0.00     0.167 HD
HETATM   29  H17 UNL     1      33.342   9.569  44.585  1.00  0.00     0.161 HD
ENDROOT
TORSDOF 0
ENDMDL
MODEL 7
REMARK VINA RESULT:      -7.7      2.620      5.552
REMARK  0 active torsions:
REMARK  status: ('A' for Active; 'I' for Inactive)
ROOT
HETATM    1  C1  UNL     1      23.218   7.713  50.294  1.00  0.00     0.038 C 
HETATM    2  C2  UNL     1      22.931   6.365  50.896  1.00  0.00    -0.004 C 
HETATM    3  C3  UNL     1      23.705   5.276  50.979  1.00  0.00     0.034 C 
HETATM    4  C4  UNL     1      24.060   3.898  51.335  1.00  0.00     0.097 C 
HETATM    5  C5  UNL     1      22.955   3.083  51.884  1.00  0.00    -0.052 A 
HETATM    6  C6  UNL     1      23.254   1.714  51.874  1.00  0.00     0.010 A 
HETATM    7  C7  UNL     1      22.326   0.788  52.290  1.00  0.00     0.030 A 
HETATM    8  C8  UNL     1      21.091   1.226  52.721  1.00  0.00     0.033 A 
HETATM    9  C9  UNL     1      20.790   2.575  52.736  1.00  0.00     0.030 A 
HETATM   10  C10 UNL     1      21.721   3.500  52.318  1.00  0.00     0.010 A 
HETATM   11  N1  UNL     1      20.046   0.358  53.139  1.00  0.00    -0.341 N 
HETATM   12  C11 UNL     1      19.639   0.185  51.769  1.00  0.00     0.129 C 
HETATM   13  C12 UNL     1      20.331   0.608  50.671  1.00  0.00     0.054 C 
HETATM   14  C13 UNL     1      20.683   1.580  49.766  1.00  0.00     0.054 C 
HETATM   15  C14 UNL     1      20.014   2.632  49.190  1.00  0.00     0.123 C 
HETATM   16  N2  UNL     1      18.896   2.764  49.920  1.00  0.00    -0.242 NA
HETATM   17  C15 UNL     1      17.719   2.591  49.269  1.00  0.00     0.138 C 
HETATM   18  C16 UNL     1      16.895   1.693  49.943  1.00  0.00     0.137 C 
HETATM   19  N3  UNL     1      16.520   0.866  50.936  1.00  0.00    -0.253 NA
HETATM   20  C17 UNL     1      17.361   0.331  51.816  1.00  0.00     0.234 C 
HETATM   21  N4  UNL     1      18.446  -0.458  51.582  1.00  0.00    -0.225 NA
HETATM   22  N5  UNL     1      20.429   3.379  48.096  1.00  0.00    -0.371 N 
HETATM   23  C18 UNL     1      21.514   3.644  47.206  1.00  0.00     0.148 C 
HETATM   24  C19 UNL     1      22.667   4.260  47.861  1.00  0.00    -0.006 C 
HETATM   25  C20 UNL     1      23.544   4.793  48.688  1.00  0.00     0.017 C 
HETATM   26  C21 UNL     1      24.839   5.403  48.987  1.00  0.00     0.116 C 
HETATM   27  N6  UNL     1      24.908   5.664  50.257  1.00  0.00    -0.266 NA
HETATM   28  H11 UNL     1      19.550  -0.118  53.916  1.00  0.00     0.167 HD
HETATM   29  H17 UNL     1      19.584   3.981  47.848  1.00  0.00     0.161 HD
ENDROOT
TORSDOF 0
ENDMDL
MODEL 8
REMARK VINA RESULT:      -7.5      1.830      6.929
REMARK  0 active torsions:
REMARK  status: ('A' for Active; 'I' for Inactive)
ROOT
HETATM    1  C1  UNL     1      21.095   5.058  45.913  1.00  0.00     0.038 C 
HETATM    2  C2  UNL     1      21.074   4.198  47.147  1.00  0.00    -0.004 C 
HETATM    3  C3  UNL     1      20.320   4.292  48.250  1.00  0.00     0.034 C 
HETATM    4  C4  UNL     1      19.824   3.920  49.579  1.00  0.00     0.097 C 
HETATM    5  C5  UNL     1      20.573   2.839  50.253  1.00  0.00    -0.052 A 
HETATM    6  C6  UNL     1      20.284   2.771  51.622  1.00  0.00     0.010 A 
HETATM    7  C7  UNL     1      20.928   1.867  52.435  1.00  0.00     0.030 A 
HETATM    8  C8  UNL     1      21.868   1.021  51.881  1.00  0.00     0.033 A 
HETATM    9  C9  UNL     1      22.156   1.080  50.530  1.00  0.00     0.030 A 
HETATM   10  C10 UNL     1      21.509   1.987  49.720  1.00  0.00     0.010 A 
HETATM   11  N1  UNL     1      22.617   0.074  52.628  1.00  0.00    -0.341 N 
HETATM   12  C11 UNL     1      23.570   1.097  52.974  1.00  0.00     0.129 C 
HETATM   13  C12 UNL     1      23.422   2.435  52.745  1.00  0.00     0.054 C 
HETATM   14  C13 UNL     1      23.508   3.537  51.928  1.00  0.00     0.054 C 
HETATM   15  C14 UNL     1      24.377   3.922  50.938  1.00  0.00     0.123 C 
HETATM   16  N2  UNL     1      25.076   2.815  50.649  1.00  0.00    -0.242 NA
HETATM   17  C15 UNL     1      26.416   2.868  50.855  1.00  0.00     0.138 C 
HETATM   18  C16 UNL     1      26.856   1.782  51.607  1.00  0.00     0.137 C 
HETATM   19  N3  UNL     1      26.756   0.613  52.267  1.00  0.00    -0.253 NA
HETATM   20  C17 UNL     1      25.609   0.106  52.712  1.00  0.00     0.234 C 
HETATM   21  N4  UNL     1      24.716   0.660  53.577  1.00  0.00    -0.225 NA
HETATM   22  N5  UNL     1      24.483   5.186  50.374  1.00  0.00    -0.371 N 
HETATM   23  C18 UNL     1      23.889   6.482  50.290  1.00  0.00     0.148 C 
HETATM   24  C19 UNL     1      22.577   6.481  49.645  1.00  0.00    -0.006 C 
HETATM   25  C20 UNL     1      21.440   6.196  49.044  1.00  0.00     0.017 C 
HETATM   26  C21 UNL     1      20.152   6.572  48.461  1.00  0.00     0.116 C 
HETATM   27  N6  UNL     1      19.549   5.506  48.027  1.00  0.00    -0.266 NA
HETATM   28  H11 UNL     1      22.724  -0.902  52.965  1.00  0.00     0.167 HD
HETATM   29  H17 UNL     1      25.363   5.137  49.773  1.00  0.00     0.161 HD
ENDROOT
TORSDOF 0
ENDMDL
MODEL 9
REMARK VINA RESULT:      -7.4      5.634      8.631
REMARK  0 active torsions:
REMARK  status: ('A' for Active; 'I' for Inactive)
ROOT
HETATM    1  C1  UNL     1      28.992  11.174  46.594  1.00  0.00     0.038 C 
HETATM    2  C2  UNL     1      28.416  10.023  47.372  1.00  0.00    -0.004 C 
HETATM    3  C3  UNL     1      28.605   8.705  47.228  1.00  0.00     0.034 C 
HETATM    4  C4  UNL     1      28.439   7.278  47.527  1.00  0.00     0.097 C 
HETATM    5  C5  UNL     1      27.411   6.962  48.540  1.00  0.00    -0.052 A 
HETATM    6  C6  UNL     1      27.057   5.606  48.527  1.00  0.00     0.010 A 
HETATM    7  C7  UNL     1      26.071   5.127  49.358  1.00  0.00     0.030 A 
HETATM    8  C8  UNL     1      25.431   6.003  50.211  1.00  0.00     0.033 A 
HETATM    9  C9  UNL     1      25.777   7.342  50.231  1.00  0.00     0.030 A 
HETATM   10  C10 UNL     1      26.764   7.817  49.398  1.00  0.00     0.010 A 
HETATM   11  N1  UNL     1      24.377   5.626  51.086  1.00  0.00    -0.341 N 
HETATM   12  C11 UNL     1      23.428   5.790  50.016  1.00  0.00     0.129 C 
HETATM   13  C12 UNL     1      23.734   5.989  48.701  1.00  0.00     0.054 C 
HETATM   14  C13 UNL     1      24.080   6.807  47.652  1.00  0.00     0.054 C 
HETATM   15  C14 UNL     1      23.763   8.098  47.307  1.00  0.00     0.123 C 
HETATM   16  N2  UNL     1      23.206   8.618  48.411  1.00  0.00    -0.242 NA
HETATM   17  C15 UNL     1      21.919   9.034  48.306  1.00  0.00     0.138 C 
HETATM   18  C16 UNL     1      21.133   8.509  49.329  1.00  0.00     0.137 C 
HETATM   19  N3  UNL     1      20.866   7.822  50.455  1.00  0.00    -0.253 NA
HETATM   20  C17 UNL     1      21.666   6.889  50.963  1.00  0.00     0.234 C 
HETATM   21  N4  UNL     1      22.111   5.742  50.380  1.00  0.00    -0.225 NA
HETATM   22  N5  UNL     1      23.987   8.706  46.080  1.00  0.00    -0.371 N 
HETATM   23  C18 UNL     1      24.627   8.575  44.810  1.00  0.00     0.148 C 
HETATM   24  C19 UNL     1      26.086   8.566  44.890  1.00  0.00    -0.006 C 
HETATM   25  C20 UNL     1      27.355   8.582  45.245  1.00  0.00     0.017 C 
HETATM   26  C21 UNL     1      28.786   8.544  44.945  1.00  0.00     0.116 C 
HETATM   27  N6  UNL     1      29.460   8.615  46.053  1.00  0.00    -0.266 NA
HETATM   28  H11 UNL     1      24.079   5.329  52.035  1.00  0.00     0.167 HD
HETATM   29  H17 UNL     1      23.465   9.634  46.143  1.00  0.00     0.161 HD
ENDROOT
TORSDOF 0
ENDMDL
