MODEL 1
REMARK VINA RESULT:      -7.2      0.000      0.000
REMARK  8 active torsions:
REMARK  status: ('A' for Active; 'I' for Inactive)
REMARK    1  A    between atoms: C2_2  and  C3_4 
REMARK    2  A    between atoms: C3_4  and  C4_5 
REMARK    3  A    between atoms: C4_5  and  C5_6 
REMARK    4  A    between atoms: C5_6  and  C6_7 
REMARK    5  A    between atoms: C6_7  and  N1_8 
REMARK    6  A    between atoms: N1_8  and  C7_9 
REMARK    7  A    between atoms: C12_16  and  N4_17 
REMARK       I    between atoms: N4_17  and  C13_18 
REMARK    8  A    between atoms: C13_18  and  C14_20 
ROOT
HETATM    1  C14 UNL     1      27.717  -0.252  53.065  1.00  0.00    -0.006 C 
HETATM    2  C15 UNL     1      28.706  -0.864  53.385  1.00  0.00    -0.101 C 
HETATM    3  C16 UNL     1      29.924  -1.616  53.779  1.00  0.00     0.112 C 
ENDROOT
BRANCH   1   4
HETATM    4  C13 UNL     1      26.544   0.497  52.688  1.00  0.00     0.300 C 
HETATM    5  N4  UNL     1      25.771   1.099  53.751  1.00  0.00    -0.316 N 
HETATM    6  H11 UNL     1      26.101   0.956  54.732  1.00  0.00     0.170 HD
HETATM    7  O1  UNL     1      26.312   0.550  51.453  1.00  0.00    -0.258 OA
BRANCH   5   8
HETATM    8  C12 UNL     1      24.654   1.809  53.223  1.00  0.00     0.036 A 
HETATM    9  C11 UNL     1      23.624   0.883  53.008  1.00  0.00     0.032 A 
HETATM   10  C10 UNL     1      22.387   1.292  52.499  1.00  0.00     0.035 A 
HETATM   11  C9  UNL     1      22.191   2.633  52.209  1.00  0.00     0.072 A 
HETATM   12  N3  UNL     1      21.005   3.098  51.720  1.00  0.00    -0.241 NA
HETATM   13  C18 UNL     1      23.219   3.513  52.431  1.00  0.00     0.041 A 
HETATM   14  C8  UNL     1      20.863   4.410  51.464  1.00  0.00     0.236 A 
HETATM   15  N2  UNL     1      21.882   5.258  51.687  1.00  0.00    -0.224 NA
HETATM   16  C7  UNL     1      23.066   4.869  52.163  1.00  0.00     0.141 A 
HETATM   17  C17 UNL     1      24.439   3.124  52.931  1.00  0.00     0.047 A 
BRANCH  16  18
HETATM   18  N1  UNL     1      24.138   5.819  52.372  1.00  0.00    -0.350 N 
HETATM   19  H7  UNL     1      24.873   5.914  53.121  1.00  0.00     0.166 HD
BRANCH  18  20
HETATM   20  C6  UNL     1      24.021   6.701  51.291  1.00  0.00     0.090 C 
BRANCH  20  21
HETATM   21  C5  UNL     1      23.972   7.439  50.241  1.00  0.00     0.017 C 
BRANCH  21  22
HETATM   22  C4  UNL     1      24.456   6.571  49.160  1.00  0.00     0.002 C 
BRANCH  22  23
HETATM   23  C3  UNL     1      25.527   5.867  48.931  1.00  0.00     0.015 C 
BRANCH  23  24
HETATM   24  C2  UNL     1      26.824   5.209  48.856  1.00  0.00    -0.011 C 
HETATM   25  C1  UNL     1      28.066   5.407  48.413  1.00  0.00     0.051 C 
HETATM   26 BR1  UNL     1      26.554   3.510  49.669  1.00  0.00    -0.056 Br
ENDBRANCH  23  24
ENDBRANCH  22  23
ENDBRANCH  21  22
ENDBRANCH  20  21
ENDBRANCH  18  20
ENDBRANCH  16  18
ENDBRANCH   5   8
ENDBRANCH   1   4
TORSDOF 8
ENDMDL
MODEL 2
REMARK VINA RESULT:      -7.0      1.613      1.934
REMARK  8 active torsions:
REMARK  status: ('A' for Active; 'I' for Inactive)
REMARK    1  A    between atoms: C2_2  and  C3_4 
REMARK    2  A    between atoms: C3_4  and  C4_5 
REMARK    3  A    between atoms: C4_5  and  C5_6 
REMARK    4  A    between atoms: C5_6  and  C6_7 
REMARK    5  A    between atoms: C6_7  and  N1_8 
REMARK    6  A    between atoms: N1_8  and  C7_9 
REMARK    7  A    between atoms: C12_16  and  N4_17 
REMARK       I    between atoms: N4_17  and  C13_18 
REMARK    8  A    between atoms: C13_18  and  C14_20 
ROOT
HETATM    1  C14 UNL     1      27.744   0.253  53.011  1.00  0.00    -0.006 C 
HETATM    2  C15 UNL     1      28.744  -0.332  53.343  1.00  0.00    -0.101 C 
HETATM    3  C16 UNL     1      29.976  -1.053  53.753  1.00  0.00     0.112 C 
ENDROOT
BRANCH   1   4
HETATM    4  C13 UNL     1      26.559   0.971  52.610  1.00  0.00     0.300 C 
HETATM    5  N4  UNL     1      25.503   1.108  53.589  1.00  0.00    -0.316 N 
HETATM    6  H11 UNL     1      25.654   0.677  54.528  1.00  0.00     0.170 HD
HETATM    7  O1  UNL     1      26.567   1.411  51.432  1.00  0.00    -0.258 OA
BRANCH   5   8
HETATM    8  C12 UNL     1      24.408   1.843  53.050  1.00  0.00     0.036 A 
HETATM    9  C11 UNL     1      23.414   0.925  52.689  1.00  0.00     0.032 A 
HETATM   10  C10 UNL     1      22.204   1.358  52.136  1.00  0.00     0.035 A 
HETATM   11  C9  UNL     1      22.000   2.716  51.949  1.00  0.00     0.072 A 
HETATM   12  N3  UNL     1      20.839   3.204  51.424  1.00  0.00    -0.241 NA
HETATM   13  C18 UNL     1      22.993   3.589  52.313  1.00  0.00     0.041 A 
HETATM   14  C8  UNL     1      20.687   4.531  51.272  1.00  0.00     0.236 A 
HETATM   15  N2  UNL     1      21.673   5.371  51.634  1.00  0.00    -0.224 NA
HETATM   16  C7  UNL     1      22.831   4.960  52.152  1.00  0.00     0.141 A 
HETATM   17  C17 UNL     1      24.186   3.176  52.857  1.00  0.00     0.047 A 
BRANCH  16  18
HETATM   18  N1  UNL     1      23.867   5.904  52.512  1.00  0.00    -0.350 N 
HETATM   19  H7  UNL     1      24.306   6.168  53.433  1.00  0.00     0.166 HD
BRANCH  18  20
HETATM   20  C6  UNL     1      24.231   6.485  51.291  1.00  0.00     0.090 C 
BRANCH  20  21
HETATM   21  C5  UNL     1      24.496   7.098  50.194  1.00  0.00     0.017 C 
BRANCH  21  22
HETATM   22  C4  UNL     1      24.652   6.027  49.203  1.00  0.00     0.002 C 
BRANCH  22  23
HETATM   23  C3  UNL     1      23.891   5.101  48.694  1.00  0.00     0.015 C 
BRANCH  23  24
HETATM   24  C2  UNL     1      22.991   4.007  48.357  1.00  0.00    -0.011 C 
HETATM   25  C1  UNL     1      22.884   2.682  48.453  1.00  0.00     0.051 C 
HETATM   26 BR1  UNL     1      21.520   4.841  47.484  1.00  0.00    -0.056 Br
ENDBRANCH  23  24
ENDBRANCH  22  23
ENDBRANCH  21  22
ENDBRANCH  20  21
ENDBRANCH  18  20
ENDBRANCH  16  18
ENDBRANCH   5   8
ENDBRANCH   1   4
TORSDOF 8
ENDMDL
MODEL 3
REMARK VINA RESULT:      -7.0      2.590      5.944
REMARK  8 active torsions:
REMARK  status: ('A' for Active; 'I' for Inactive)
REMARK    1  A    between atoms: C2_2  and  C3_4 
REMARK    2  A    between atoms: C3_4  and  C4_5 
REMARK    3  A    between atoms: C4_5  and  C5_6 
REMARK    4  A    between atoms: C5_6  and  C6_7 
REMARK    5  A    between atoms: C6_7  and  N1_8 
REMARK    6  A    between atoms: N1_8  and  C7_9 
REMARK    7  A    between atoms: C12_16  and  N4_17 
REMARK       I    between atoms: N4_17  and  C13_18 
REMARK    8  A    between atoms: C13_18  and  C14_20 
ROOT
HETATM    1  C14 UNL     1      27.449   4.851  48.753  1.00  0.00    -0.006 C 
HETATM    2  C15 UNL     1      28.338   5.594  48.417  1.00  0.00    -0.101 C 
HETATM    3  C16 UNL     1      29.432   6.508  48.004  1.00  0.00     0.112 C 
ENDROOT
BRANCH   1   4
HETATM    4  C13 UNL     1      26.380   3.978  49.168  1.00  0.00     0.300 C 
HETATM    5  N4  UNL     1      25.034   4.506  49.117  1.00  0.00    -0.316 N 
HETATM    6  H11 UNL     1      24.912   5.489  48.787  1.00  0.00     0.170 HD
HETATM    7  O1  UNL     1      26.734   2.829  49.538  1.00  0.00    -0.258 OA
BRANCH   5   8
HETATM    8  C12 UNL     1      24.092   3.529  49.549  1.00  0.00     0.036 A 
HETATM    9  C11 UNL     1      23.229   3.265  48.477  1.00  0.00     0.032 A 
HETATM   10  C10 UNL     1      22.197   2.329  48.601  1.00  0.00     0.035 A 
HETATM   11  C9  UNL     1      22.037   1.662  49.805  1.00  0.00     0.072 A 
HETATM   12  N3  UNL     1      21.056   0.732  49.988  1.00  0.00    -0.241 NA
HETATM   13  C18 UNL     1      22.898   1.944  50.835  1.00  0.00     0.041 A 
HETATM   14  C8  UNL     1      20.949   0.106  51.173  1.00  0.00     0.236 A 
HETATM   15  N2  UNL     1      21.802   0.395  52.171  1.00  0.00    -0.224 NA
HETATM   16  C7  UNL     1      22.782   1.294  52.059  1.00  0.00     0.141 A 
HETATM   17  C17 UNL     1      23.916   2.860  50.726  1.00  0.00     0.047 A 
BRANCH  16  18
HETATM   18  N1  UNL     1      23.665   1.581  53.169  1.00  0.00    -0.350 N 
HETATM   19  H7  UNL     1      23.826   2.446  53.748  1.00  0.00     0.166 HD
BRANCH  18  20
HETATM   20  C6  UNL     1      24.359   0.381  53.365  1.00  0.00     0.090 C 
BRANCH  20  21
HETATM   21  C5  UNL     1      25.076  -0.661  53.589  1.00  0.00     0.017 C 
BRANCH  21  22
HETATM   22  C4  UNL     1      26.292  -0.447  52.795  1.00  0.00     0.002 C 
BRANCH  22  23
HETATM   23  C3  UNL     1      27.570  -0.376  53.036  1.00  0.00     0.015 C 
BRANCH  23  24
HETATM   24  C2  UNL     1      28.935  -0.330  53.539  1.00  0.00    -0.011 C 
HETATM   25  C1  UNL     1      30.014  -1.098  53.690  1.00  0.00     0.051 C 
HETATM   26 BR1  UNL     1      29.153   1.446  54.186  1.00  0.00    -0.056 Br
ENDBRANCH  23  24
ENDBRANCH  22  23
ENDBRANCH  21  22
ENDBRANCH  20  21
ENDBRANCH  18  20
ENDBRANCH  16  18
ENDBRANCH   5   8
ENDBRANCH   1   4
TORSDOF 8
ENDMDL
MODEL 4
REMARK VINA RESULT:      -6.9      2.403      5.981
REMARK  8 active torsions:
REMARK  status: ('A' for Active; 'I' for Inactive)
REMARK    1  A    between atoms: C2_2  and  C3_4 
REMARK    2  A    between atoms: C3_4  and  C4_5 
REMARK    3  A    between atoms: C4_5  and  C5_6 
REMARK    4  A    between atoms: C5_6  and  C6_7 
REMARK    5  A    between atoms: C6_7  and  N1_8 
REMARK    6  A    between atoms: N1_8  and  C7_9 
REMARK    7  A    between atoms: C12_16  and  N4_17 
REMARK       I    between atoms: N4_17  and  C13_18 
REMARK    8  A    between atoms: C13_18  and  C14_20 
ROOT
HETATM    1  C14 UNL     1      26.589   4.437  49.262  1.00  0.00    -0.006 C 
HETATM    2  C15 UNL     1      27.598   4.901  48.792  1.00  0.00    -0.101 C 
HETATM    3  C16 UNL     1      28.841   5.473  48.215  1.00  0.00     0.112 C 
ENDROOT
BRANCH   1   4
HETATM    4  C13 UNL     1      25.374   3.901  49.822  1.00  0.00     0.300 C 
HETATM    5  N4  UNL     1      25.151   4.102  51.238  1.00  0.00    -0.316 N 
HETATM    6  H11 UNL     1      25.883   4.619  51.775  1.00  0.00     0.170 HD
HETATM    7  O1  UNL     1      24.621   3.305  49.010  1.00  0.00    -0.258 OA
BRANCH   5   8
HETATM    8  C12 UNL     1      23.912   3.526  51.640  1.00  0.00     0.036 A 
HETATM    9  C11 UNL     1      22.951   4.546  51.653  1.00  0.00     0.032 A 
HETATM   10  C10 UNL     1      21.623   4.277  52.001  1.00  0.00     0.035 A 
HETATM   11  C9  UNL     1      21.268   2.980  52.336  1.00  0.00     0.072 A 
HETATM   12  N3  UNL     1      19.988   2.649  52.676  1.00  0.00    -0.241 NA
HETATM   13  C18 UNL     1      22.232   2.004  52.314  1.00  0.00     0.041 A 
HETATM   14  C8  UNL     1      19.693   1.374  52.984  1.00  0.00     0.236 A 
HETATM   15  N2  UNL     1      20.652   0.432  52.957  1.00  0.00    -0.224 NA
HETATM   16  C7  UNL     1      21.921   0.687  52.634  1.00  0.00     0.141 A 
HETATM   17  C17 UNL     1      23.539   2.256  51.973  1.00  0.00     0.047 A 
BRANCH  16  18
HETATM   18  N1  UNL     1      22.919  -0.360  52.636  1.00  0.00    -0.350 N 
HETATM   19  H7  UNL     1      23.554  -0.743  51.887  1.00  0.00     0.166 HD
BRANCH  18  20
HETATM   20  C6  UNL     1      22.898  -0.843  53.950  1.00  0.00     0.090 C 
BRANCH  20  21
HETATM   21  C5  UNL     1      22.962  -1.219  55.176  1.00  0.00     0.017 C 
BRANCH  21  22
HETATM   22  C4  UNL     1      24.392  -1.164  55.503  1.00  0.00     0.002 C 
BRANCH  22  23
HETATM   23  C3  UNL     1      25.451  -0.606  54.989  1.00  0.00     0.015 C 
BRANCH  23  24
HETATM   24  C2  UNL     1      26.638  -0.174  54.266  1.00  0.00    -0.011 C 
HETATM   25  C1  UNL     1      27.693   0.632  54.386  1.00  0.00     0.051 C 
HETATM   26 BR1  UNL     1      26.566  -1.112  52.612  1.00  0.00    -0.056 Br
ENDBRANCH  23  24
ENDBRANCH  22  23
ENDBRANCH  21  22
ENDBRANCH  20  21
ENDBRANCH  18  20
ENDBRANCH  16  18
ENDBRANCH   5   8
ENDBRANCH   1   4
TORSDOF 8
ENDMDL
MODEL 5
REMARK VINA RESULT:      -6.8      2.751      5.247
REMARK  8 active torsions:
REMARK  status: ('A' for Active; 'I' for Inactive)
REMARK    1  A    between atoms: C2_2  and  C3_4 
REMARK    2  A    between atoms: C3_4  and  C4_5 
REMARK    3  A    between atoms: C4_5  and  C5_6 
REMARK    4  A    between atoms: C5_6  and  C6_7 
REMARK    5  A    between atoms: C6_7  and  N1_8 
REMARK    6  A    between atoms: N1_8  and  C7_9 
REMARK    7  A    between atoms: C12_16  and  N4_17 
REMARK       I    between atoms: N4_17  and  C13_18 
REMARK    8  A    between atoms: C13_18  and  C14_20 
ROOT
HETATM    1  C14 UNL     1      27.154   4.506  49.136  1.00  0.00    -0.006 C 
HETATM    2  C15 UNL     1      27.834   5.299  48.533  1.00  0.00    -0.101 C 
HETATM    3  C16 UNL     1      28.671   6.276  47.792  1.00  0.00     0.112 C 
ENDROOT
BRANCH   1   4
HETATM    4  C13 UNL     1      26.325   3.573  49.858  1.00  0.00     0.300 C 
HETATM    5  N4  UNL     1      26.746   3.207  51.193  1.00  0.00    -0.316 N 
HETATM    6  H11 UNL     1      27.626   3.635  51.558  1.00  0.00     0.170 HD
HETATM    7  O1  UNL     1      25.306   3.167  49.243  1.00  0.00    -0.258 OA
BRANCH   5   8
HETATM    8  C12 UNL     1      25.827   2.289  51.778  1.00  0.00     0.036 A 
HETATM    9  C11 UNL     1      26.571   1.256  52.364  1.00  0.00     0.032 A 
HETATM   10  C10 UNL     1      25.936   0.203  53.031  1.00  0.00     0.035 A 
HETATM   11  C9  UNL     1      24.552   0.194  53.104  1.00  0.00     0.072 A 
HETATM   12  N3  UNL     1      23.871  -0.799  53.747  1.00  0.00    -0.241 NA
HETATM   13  C18 UNL     1      23.853   1.220  52.519  1.00  0.00     0.041 A 
HETATM   14  C8  UNL     1      22.529  -0.756  53.798  1.00  0.00     0.236 A 
HETATM   15  N2  UNL     1      21.861   0.257  53.218  1.00  0.00    -0.224 NA
HETATM   16  C7  UNL     1      22.464   1.258  52.574  1.00  0.00     0.141 A 
HETATM   17  C17 UNL     1      24.466   2.259  51.862  1.00  0.00     0.047 A 
BRANCH  16  18
HETATM   18  N1  UNL     1      21.699   2.318  51.953  1.00  0.00    -0.350 N 
HETATM   19  H7  UNL     1      21.512   3.318  52.225  1.00  0.00     0.166 HD
BRANCH  18  20
HETATM   20  C6  UNL     1      21.180   1.724  50.796  1.00  0.00     0.090 C 
BRANCH  20  21
HETATM   21  C5  UNL     1      20.633   1.126  49.799  1.00  0.00     0.017 C 
BRANCH  21  22
HETATM   22  C4  UNL     1      21.591   1.297  48.699  1.00  0.00     0.002 C 
BRANCH  22  23
HETATM   23  C3  UNL     1      21.828   2.202  47.793  1.00  0.00     0.015 C 
BRANCH  23  24
HETATM   24  C2  UNL     1      21.975   3.365  46.931  1.00  0.00    -0.011 C 
HETATM   25  C1  UNL     1      21.961   3.714  45.644  1.00  0.00     0.051 C 
HETATM   26 BR1  UNL     1      22.308   4.812  48.121  1.00  0.00    -0.056 Br
ENDBRANCH  23  24
ENDBRANCH  22  23
ENDBRANCH  21  22
ENDBRANCH  20  21
ENDBRANCH  18  20
ENDBRANCH  16  18
ENDBRANCH   5   8
ENDBRANCH   1   4
TORSDOF 8
ENDMDL
MODEL 6
REMARK VINA RESULT:      -6.6      2.089      3.181
REMARK  8 active torsions:
REMARK  status: ('A' for Active; 'I' for Inactive)
REMARK    1  A    between atoms: C2_2  and  C3_4 
REMARK    2  A    between atoms: C3_4  and  C4_5 
REMARK    3  A    between atoms: C4_5  and  C5_6 
REMARK    4  A    between atoms: C5_6  and  C6_7 
REMARK    5  A    between atoms: C6_7  and  N1_8 
REMARK    6  A    between atoms: N1_8  and  C7_9 
REMARK    7  A    between atoms: C12_16  and  N4_17 
REMARK       I    between atoms: N4_17  and  C13_18 
REMARK    8  A    between atoms: C13_18  and  C14_20 
ROOT
HETATM    1  C14 UNL     1      27.902  -0.935  53.480  1.00  0.00    -0.006 C 
HETATM    2  C15 UNL     1      29.090  -1.038  53.661  1.00  0.00    -0.101 C 
HETATM    3  C16 UNL     1      30.553  -1.164  53.883  1.00  0.00     0.112 C 
ENDROOT
BRANCH   1   4
HETATM    4  C13 UNL     1      26.481  -0.834  53.260  1.00  0.00     0.300 C 
HETATM    5  N4  UNL     1      25.652  -0.528  54.406  1.00  0.00    -0.316 N 
HETATM    6  H11 UNL     1      26.127  -0.400  55.327  1.00  0.00     0.170 HD
HETATM    7  O1  UNL     1      26.103  -1.026  52.077  1.00  0.00    -0.258 OA
BRANCH   5   8
HETATM    8  C12 UNL     1      24.280  -0.454  54.030  1.00  0.00     0.036 A 
HETATM    9  C11 UNL     1      23.545  -1.219  54.946  1.00  0.00     0.032 A 
HETATM   10  C10 UNL     1      22.155  -1.328  54.839  1.00  0.00     0.035 A 
HETATM   11  C9  UNL     1      21.508  -0.664  53.807  1.00  0.00     0.072 A 
HETATM   12  N3  UNL     1      20.154  -0.722  53.652  1.00  0.00    -0.241 NA
HETATM   13  C18 UNL     1      22.256   0.076  52.927  1.00  0.00     0.041 A 
HETATM   14  C8  UNL     1      19.574  -0.053  52.640  1.00  0.00     0.236 A 
HETATM   15  N2  UNL     1      20.324   0.667  51.787  1.00  0.00    -0.224 NA
HETATM   16  C7  UNL     1      21.651   0.765  51.882  1.00  0.00     0.141 A 
HETATM   17  C17 UNL     1      23.622   0.190  53.023  1.00  0.00     0.047 A 
BRANCH  16  18
HETATM   18  N1  UNL     1      22.416   1.541  50.929  1.00  0.00    -0.350 N 
HETATM   19  H7  UNL     1      22.905   1.288  50.030  1.00  0.00     0.166 HD
BRANCH  18  20
HETATM   20  C6  UNL     1      22.403   2.835  51.462  1.00  0.00     0.090 C 
BRANCH  20  21
HETATM   21  C5  UNL     1      22.308   4.044  51.886  1.00  0.00     0.017 C 
BRANCH  21  22
HETATM   22  C4  UNL     1      23.435   4.743  51.256  1.00  0.00     0.002 C 
BRANCH  22  23
HETATM   23  C3  UNL     1      24.547   4.397  50.675  1.00  0.00     0.015 C 
BRANCH  23  24
HETATM   24  C2  UNL     1      25.832   3.878  50.227  1.00  0.00    -0.011 C 
HETATM   25  C1  UNL     1      26.751   4.056  49.278  1.00  0.00     0.051 C 
HETATM   26 BR1  UNL     1      26.245   2.481  51.452  1.00  0.00    -0.056 Br
ENDBRANCH  23  24
ENDBRANCH  22  23
ENDBRANCH  21  22
ENDBRANCH  20  21
ENDBRANCH  18  20
ENDBRANCH  16  18
ENDBRANCH   5   8
ENDBRANCH   1   4
TORSDOF 8
ENDMDL
MODEL 7
REMARK VINA RESULT:      -6.6      2.195      4.799
REMARK  8 active torsions:
REMARK  status: ('A' for Active; 'I' for Inactive)
REMARK    1  A    between atoms: C2_2  and  C3_4 
REMARK    2  A    between atoms: C3_4  and  C4_5 
REMARK    3  A    between atoms: C4_5  and  C5_6 
REMARK    4  A    between atoms: C5_6  and  C6_7 
REMARK    5  A    between atoms: C6_7  and  N1_8 
REMARK    6  A    between atoms: N1_8  and  C7_9 
REMARK    7  A    between atoms: C12_16  and  N4_17 
REMARK       I    between atoms: N4_17  and  C13_18 
REMARK    8  A    between atoms: C13_18  and  C14_20 
ROOT
HETATM    1  C14 UNL     1      28.238   0.519  53.104  1.00  0.00    -0.006 C 
HETATM    2  C15 UNL     1      28.980  -0.363  53.461  1.00  0.00    -0.101 C 
HETATM    3  C16 UNL     1      29.894  -1.447  53.900  1.00  0.00     0.112 C 
ENDROOT
BRANCH   1   4
HETATM    4  C13 UNL     1      27.356   1.568  52.657  1.00  0.00     0.300 C 
HETATM    5  N4  UNL     1      26.726   1.400  51.366  1.00  0.00    -0.316 N 
HETATM    6  H11 UNL     1      26.946   0.533  50.828  1.00  0.00     0.170 HD
HETATM    7  O1  UNL     1      27.224   2.536  53.449  1.00  0.00    -0.258 OA
BRANCH   5   8
HETATM    8  C12 UNL     1      25.883   2.510  51.068  1.00  0.00     0.036 A 
HETATM    9  C11 UNL     1      26.552   3.316  50.138  1.00  0.00     0.032 A 
HETATM   10  C10 UNL     1      25.961   4.484  49.644  1.00  0.00     0.035 A 
HETATM   11  C9  UNL     1      24.697   4.837  50.091  1.00  0.00     0.072 A 
HETATM   12  N3  UNL     1      24.062   5.958  49.642  1.00  0.00    -0.241 NA
HETATM   13  C18 UNL     1      24.070   4.026  51.002  1.00  0.00     0.041 A 
HETATM   14  C8  UNL     1      22.832   6.250  50.100  1.00  0.00     0.236 A 
HETATM   15  N2  UNL     1      22.233   5.444  50.994  1.00  0.00    -0.224 NA
HETATM   16  C7  UNL     1      22.798   4.334  51.473  1.00  0.00     0.141 A 
HETATM   17  C17 UNL     1      24.639   2.876  51.494  1.00  0.00     0.047 A 
BRANCH  16  18
HETATM   18  N1  UNL     1      22.117   3.507  52.446  1.00  0.00    -0.350 N 
HETATM   19  H7  UNL     1      22.104   3.508  53.500  1.00  0.00     0.166 HD
BRANCH  18  20
HETATM   20  C6  UNL     1      21.399   2.593  51.666  1.00  0.00     0.090 C 
BRANCH  20  21
HETATM   21  C5  UNL     1      20.786   1.800  50.863  1.00  0.00     0.017 C 
BRANCH  21  22
HETATM   22  C4  UNL     1      21.382   0.483  51.120  1.00  0.00     0.002 C 
BRANCH  22  23
HETATM   23  C3  UNL     1      21.853  -0.146  52.158  1.00  0.00     0.015 C 
BRANCH  23  24
HETATM   24  C2  UNL     1      22.261  -0.682  53.449  1.00  0.00    -0.011 C 
HETATM   25  C1  UNL     1      21.769  -1.311  54.516  1.00  0.00     0.051 C 
HETATM   26 BR1  UNL     1      24.122  -0.299  53.567  1.00  0.00    -0.056 Br
ENDBRANCH  23  24
ENDBRANCH  22  23
ENDBRANCH  21  22
ENDBRANCH  20  21
ENDBRANCH  18  20
ENDBRANCH  16  18
ENDBRANCH   5   8
ENDBRANCH   1   4
TORSDOF 8
ENDMDL
MODEL 8
REMARK VINA RESULT:      -6.5      2.625      5.708
REMARK  8 active torsions:
REMARK  status: ('A' for Active; 'I' for Inactive)
REMARK    1  A    between atoms: C2_2  and  C3_4 
REMARK    2  A    between atoms: C3_4  and  C4_5 
REMARK    3  A    between atoms: C4_5  and  C5_6 
REMARK    4  A    between atoms: C5_6  and  C6_7 
REMARK    5  A    between atoms: C6_7  and  N1_8 
REMARK    6  A    between atoms: N1_8  and  C7_9 
REMARK    7  A    between atoms: C12_16  and  N4_17 
REMARK       I    between atoms: N4_17  and  C13_18 
REMARK    8  A    between atoms: C13_18  and  C14_20 
ROOT
HETATM    1  C14 UNL     1      19.347   0.556  50.881  1.00  0.00    -0.006 C 
HETATM    2  C15 UNL     1      18.204   0.597  50.497  1.00  0.00    -0.101 C 
HETATM    3  C16 UNL     1      16.798   0.648  50.024  1.00  0.00     0.112 C 
ENDROOT
BRANCH   1   4
HETATM    4  C13 UNL     1      20.716   0.527  51.333  1.00  0.00     0.300 C 
HETATM    5  N4  UNL     1      20.957   0.793  52.734  1.00  0.00    -0.316 N 
HETATM    6  H11 UNL     1      20.130   0.995  53.339  1.00  0.00     0.170 HD
HETATM    7  O1  UNL     1      21.571   0.270  50.448  1.00  0.00    -0.258 OA
BRANCH   5   8
HETATM    8  C12 UNL     1      22.350   0.722  53.028  1.00  0.00     0.036 A 
HETATM    9  C11 UNL     1      22.570  -0.446  53.770  1.00  0.00     0.032 A 
HETATM   10  C10 UNL     1      23.856  -0.792  54.198  1.00  0.00     0.035 A 
HETATM   11  C9  UNL     1      24.917   0.040  53.876  1.00  0.00     0.072 A 
HETATM   12  N3  UNL     1      26.197  -0.245  54.254  1.00  0.00    -0.241 NA
HETATM   13  C18 UNL     1      24.667   1.176  53.148  1.00  0.00     0.041 A 
HETATM   14  C8  UNL     1      27.191   0.590  53.908  1.00  0.00     0.236 A 
HETATM   15  N2  UNL     1      26.927   1.699  53.195  1.00  0.00    -0.224 NA
HETATM   16  C7  UNL     1      25.700   2.037  52.794  1.00  0.00     0.141 A 
HETATM   17  C17 UNL     1      23.409   1.527  52.722  1.00  0.00     0.047 A 
BRANCH  16  18
HETATM   18  N1  UNL     1      25.466   3.250  52.041  1.00  0.00    -0.350 N 
HETATM   19  H7  UNL     1      24.986   4.157  52.280  1.00  0.00     0.166 HD
BRANCH  18  20
HETATM   20  C6  UNL     1      26.044   2.988  50.794  1.00  0.00     0.090 C 
BRANCH  20  21
HETATM   21  C5  UNL     1      26.508   2.824  49.607  1.00  0.00     0.017 C 
BRANCH  21  22
HETATM   22  C4  UNL     1      26.950   4.164  49.198  1.00  0.00     0.002 C 
BRANCH  22  23
HETATM   23  C3  UNL     1      26.460   5.369  49.247  1.00  0.00     0.015 C 
BRANCH  23  24
HETATM   24  C2  UNL     1      25.781   6.634  49.490  1.00  0.00    -0.011 C 
HETATM   25  C1  UNL     1      25.878   7.741  50.225  1.00  0.00     0.051 C 
HETATM   26 BR1  UNL     1      24.259   6.594  48.348  1.00  0.00    -0.056 Br
ENDBRANCH  23  24
ENDBRANCH  22  23
ENDBRANCH  21  22
ENDBRANCH  20  21
ENDBRANCH  18  20
ENDBRANCH  16  18
ENDBRANCH   5   8
ENDBRANCH   1   4
TORSDOF 8
ENDMDL
MODEL 9
REMARK VINA RESULT:      -6.2      2.885      4.812
REMARK  8 active torsions:
REMARK  status: ('A' for Active; 'I' for Inactive)
REMARK    1  A    between atoms: C2_2  and  C3_4 
REMARK    2  A    between atoms: C3_4  and  C4_5 
REMARK    3  A    between atoms: C4_5  and  C5_6 
REMARK    4  A    between atoms: C5_6  and  C6_7 
REMARK    5  A    between atoms: C6_7  and  N1_8 
REMARK    6  A    between atoms: N1_8  and  C7_9 
REMARK    7  A    between atoms: C12_16  and  N4_17 
REMARK       I    between atoms: N4_17  and  C13_18 
REMARK    8  A    between atoms: C13_18  and  C14_20 
ROOT
HETATM    1  C14 UNL     1      23.583   0.913  53.085  1.00  0.00    -0.006 C 
HETATM    2  C15 UNL     1      23.052  -0.036  53.607  1.00  0.00    -0.101 C 
HETATM    3  C16 UNL     1      22.398  -1.204  54.250  1.00  0.00     0.112 C 
ENDROOT
BRANCH   1   4
HETATM    4  C13 UNL     1      24.235   2.044  52.473  1.00  0.00     0.300 C 
HETATM    5  N4  UNL     1      23.909   2.331  51.094  1.00  0.00    -0.316 N 
HETATM    6  H11 UNL     1      23.225   1.704  50.616  1.00  0.00     0.170 HD
HETATM    7  O1  UNL     1      25.032   2.673  53.215  1.00  0.00    -0.258 OA
BRANCH   5   8
HETATM    8  C12 UNL     1      24.623   3.476  50.635  1.00  0.00     0.036 A 
HETATM    9  C11 UNL     1      25.667   3.027  49.816  1.00  0.00     0.032 A 
HETATM   10  C10 UNL     1      26.541   3.934  49.206  1.00  0.00     0.035 A 
HETATM   11  C9  UNL     1      26.360   5.290  49.424  1.00  0.00     0.072 A 
HETATM   12  N3  UNL     1      27.172   6.227  48.852  1.00  0.00    -0.241 NA
HETATM   13  C18 UNL     1      25.329   5.697  50.232  1.00  0.00     0.041 A 
HETATM   14  C8  UNL     1      26.947   7.531  49.089  1.00  0.00     0.236 A 
HETATM   15  N2  UNL     1      25.932   7.910  49.884  1.00  0.00    -0.224 NA
HETATM   16  C7  UNL     1      25.102   7.047  50.474  1.00  0.00     0.141 A 
HETATM   17  C17 UNL     1      24.463   4.816  50.836  1.00  0.00     0.047 A 
BRANCH  16  18
HETATM   18  N1  UNL     1      24.033   7.505  51.334  1.00  0.00    -0.350 N 
HETATM   19  H7  UNL     1      23.888   7.466  52.377  1.00  0.00     0.166 HD
BRANCH  18  20
HETATM   20  C6  UNL     1      23.108   8.071  50.448  1.00  0.00     0.090 C 
BRANCH  20  21
HETATM   21  C5  UNL     1      22.228   8.488  49.610  1.00  0.00     0.017 C 
BRANCH  21  22
HETATM   22  C4  UNL     1      21.176   7.464  49.643  1.00  0.00     0.002 C 
BRANCH  22  23
HETATM   23  C3  UNL     1      21.098   6.191  49.379  1.00  0.00     0.015 C 
BRANCH  23  24
HETATM   24  C2  UNL     1      21.241   4.758  49.162  1.00  0.00    -0.011 C 
HETATM   25  C1  UNL     1      20.851   3.587  49.665  1.00  0.00     0.051 C 
HETATM   26 BR1  UNL     1      22.390   4.609  47.653  1.00  0.00    -0.056 Br
ENDBRANCH  23  24
ENDBRANCH  22  23
ENDBRANCH  21  22
ENDBRANCH  20  21
ENDBRANCH  18  20
ENDBRANCH  16  18
ENDBRANCH   5   8
ENDBRANCH   1   4
TORSDOF 8
ENDMDL
