MODEL 1
REMARK VINA RESULT:      -7.1      0.000      0.000
REMARK  8 active torsions:
REMARK  status: ('A' for Active; 'I' for Inactive)
REMARK    1  A    between atoms: C2_2  and  C3_3 
REMARK    2  A    between atoms: C3_3  and  N1_4 
REMARK    3  A    between atoms: N1_4  and  C4_5 
REMARK    4  A    between atoms: C5_7  and  N3_8 
REMARK    5  A    between atoms: C10_14  and  N5_15 
REMARK    6  A    between atoms: N5_15  and  C11_16 
REMARK    7  A    between atoms: C11_16  and  C12_17 
REMARK    8  A    between atoms: C12_17  and  O1_18 
ROOT
HETATM    1  C4  UNL     1      26.265  -0.254  54.745  1.00  0.00     0.726 A 
HETATM    2  N2  UNL     1      25.339  -0.980  55.411  1.00  0.00    -0.050 NA
HETATM    3  C5  UNL     1      24.068  -0.998  54.961  1.00  0.00     0.134 A 
HETATM    4  C6  UNL     1      23.640  -0.313  53.843  1.00  0.00     0.055 A 
HETATM    5  C7  UNL     1      22.339  -0.365  53.427  1.00  0.00     0.045 A 
HETATM    6  C8  UNL     1      22.049   0.379  52.278  1.00  0.00     0.091 A 
HETATM    7  C9  UNL     1      20.690   0.350  51.810  1.00  0.00     0.103 C 
HETATM    8  N4  UNL     1      19.597   0.320  51.435  1.00  0.00    -0.191 NA
HETATM    9  C10 UNL     1      23.019   1.110  51.621  1.00  0.00     0.146 A 
HETATM   10  N6  UNL     1      24.284   1.110  52.095  1.00  0.00    -0.209 NA
HETATM   11  C13 UNL     1      24.621   0.412  53.197  1.00  0.00     0.184 A 
HETATM   12  N7  UNL     1      25.881   0.425  53.652  1.00  0.00    -0.042 NA
ENDROOT
BRANCH   9  13
HETATM   13  N5  UNL     1      22.724   1.855  50.469  1.00  0.00    -0.371 N 
HETATM   14  H10 UNL     1      21.811   1.687  49.954  1.00  0.00     0.161 HD
BRANCH  13  15
HETATM   15  C11 UNL     1      23.609   2.845  49.951  1.00  0.00     0.147 C 
BRANCH  15  16
HETATM   16  C12 UNL     1      23.611   4.160  50.671  1.00  0.00     0.183 C 
BRANCH  16  17
HETATM   17  O1  UNL     1      24.594   4.264  51.639  1.00  0.00    -0.399 OA
HETATM   18  H15 UNL     1      24.773   5.220  51.903  1.00  0.00     0.209 HD
ENDBRANCH  16  17
ENDBRANCH  15  16
ENDBRANCH  13  15
ENDBRANCH   9  13
BRANCH   3  19
HETATM   19  N3  UNL     1      23.187  -1.784  55.729  1.00  0.00    -0.286 NA
HETATM   20  H7  UNL     1      22.962  -2.639  56.261  1.00  0.00     0.125 HD
HETATM   21  H8  UNL     1      23.712  -2.673  55.968  1.00  0.00     0.125 HD
ENDBRANCH   3  19
BRANCH   1  22
HETATM   22  N1  UNL     1      27.609  -0.224  55.207  1.00  0.00    -0.219 N 
HETATM   23  H6  UNL     1      27.854  -0.793  56.057  1.00  0.00     0.178 HD
BRANCH  22  24
HETATM   24  C3  UNL     1      28.531   0.616  54.435  1.00  0.00     0.164 C 
BRANCH  24  25
HETATM   25  C2  UNL     1      29.503  -0.202  53.681  1.00  0.00    -0.017 C 
HETATM   26  C1  UNL     1      29.572  -1.495  53.402  1.00  0.00     0.008 C 
ENDBRANCH  24  25
ENDBRANCH  22  24
ENDBRANCH   1  22
TORSDOF 8
ENDMDL
MODEL 2
REMARK VINA RESULT:      -7.0      2.421      3.965
REMARK  8 active torsions:
REMARK  status: ('A' for Active; 'I' for Inactive)
REMARK    1  A    between atoms: C2_2  and  C3_3 
REMARK    2  A    between atoms: C3_3  and  N1_4 
REMARK    3  A    between atoms: N1_4  and  C4_5 
REMARK    4  A    between atoms: C5_7  and  N3_8 
REMARK    5  A    between atoms: C10_14  and  N5_15 
REMARK    6  A    between atoms: N5_15  and  C11_16 
REMARK    7  A    between atoms: C11_16  and  C12_17 
REMARK    8  A    between atoms: C12_17  and  O1_18 
ROOT
HETATM    1  C4  UNL     1      27.759   1.087  53.612  1.00  0.00     0.726 A 
HETATM    2  N2  UNL     1      27.856   2.006  52.625  1.00  0.00    -0.050 NA
HETATM    3  C5  UNL     1      26.759   2.320  51.907  1.00  0.00     0.134 A 
HETATM    4  C6  UNL     1      25.518   1.755  52.116  1.00  0.00     0.055 A 
HETATM    5  C7  UNL     1      24.435   2.109  51.360  1.00  0.00     0.045 A 
HETATM    6  C8  UNL     1      23.242   1.455  51.684  1.00  0.00     0.091 A 
HETATM    7  C9  UNL     1      22.080   1.800  50.911  1.00  0.00     0.103 C 
HETATM    8  N4  UNL     1      21.148   2.083  50.288  1.00  0.00    -0.191 NA
HETATM    9  C10 UNL     1      23.177   0.521  52.699  1.00  0.00     0.146 A 
HETATM   10  N6  UNL     1      24.293   0.226  53.402  1.00  0.00    -0.209 NA
HETATM   11  C13 UNL     1      25.469   0.825  53.133  1.00  0.00     0.184 A 
HETATM   12  N7  UNL     1      26.564   0.518  53.841  1.00  0.00    -0.042 NA
ENDROOT
BRANCH   9  13
HETATM   13  N5  UNL     1      21.977  -0.133  53.021  1.00  0.00    -0.371 N 
HETATM   14  H10 UNL     1      21.337  -0.468  52.244  1.00  0.00     0.161 HD
BRANCH  13  15
HETATM   15  C11 UNL     1      21.574  -0.371  54.367  1.00  0.00     0.147 C 
BRANCH  15  16
HETATM   16  C12 UNL     1      21.881  -1.734  54.909  1.00  0.00     0.183 C 
BRANCH  16  17
HETATM   17  O1  UNL     1      22.978  -1.764  55.753  1.00  0.00    -0.399 OA
HETATM   18  H15 UNL     1      23.729  -1.176  55.426  1.00  0.00     0.209 HD
ENDBRANCH  16  17
ENDBRANCH  15  16
ENDBRANCH  13  15
ENDBRANCH   9  13
BRANCH   3  19
HETATM   19  N3  UNL     1      26.973   3.287  50.905  1.00  0.00    -0.286 NA
HETATM   20  H7  UNL     1      27.317   3.570  49.975  1.00  0.00     0.125 HD
HETATM   21  H8  UNL     1      27.448   2.785  50.102  1.00  0.00     0.125 HD
ENDBRANCH   3  19
BRANCH   1  22
HETATM   22  N1  UNL     1      28.907   0.745  54.378  1.00  0.00    -0.219 N 
HETATM   23  H6  UNL     1      28.893   0.948  55.410  1.00  0.00     0.178 HD
BRANCH  22  24
HETATM   24  C3  UNL     1      30.012   0.133  53.632  1.00  0.00     0.164 C 
BRANCH  24  25
HETATM   25  C2  UNL     1      29.952  -1.341  53.693  1.00  0.00    -0.017 C 
HETATM   26  C1  UNL     1      29.091  -2.232  53.225  1.00  0.00     0.008 C 
ENDBRANCH  24  25
ENDBRANCH  22  24
ENDBRANCH   1  22
TORSDOF 8
ENDMDL
MODEL 3
REMARK VINA RESULT:      -6.8      2.208      5.822
REMARK  8 active torsions:
REMARK  status: ('A' for Active; 'I' for Inactive)
REMARK    1  A    between atoms: C2_2  and  C3_3 
REMARK    2  A    between atoms: C3_3  and  N1_4 
REMARK    3  A    between atoms: N1_4  and  C4_5 
REMARK    4  A    between atoms: C5_7  and  N3_8 
REMARK    5  A    between atoms: C10_14  and  N5_15 
REMARK    6  A    between atoms: N5_15  and  C11_16 
REMARK    7  A    between atoms: C11_16  and  C12_17 
REMARK    8  A    between atoms: C12_17  and  O1_18 
ROOT
HETATM    1  C4  UNL     1      21.096   0.143  53.539  1.00  0.00     0.726 A 
HETATM    2  N2  UNL     1      21.430  -0.707  54.536  1.00  0.00    -0.050 NA
HETATM    3  C5  UNL     1      22.729  -1.007  54.740  1.00  0.00     0.134 A 
HETATM    4  C6  UNL     1      23.762  -0.493  53.985  1.00  0.00     0.055 A 
HETATM    5  C7  UNL     1      25.064  -0.828  54.234  1.00  0.00     0.045 A 
HETATM    6  C8  UNL     1      26.006  -0.231  53.389  1.00  0.00     0.091 A 
HETATM    7  C9  UNL     1      27.386  -0.559  53.618  1.00  0.00     0.103 C 
HETATM    8  N4  UNL     1      28.496  -0.823  53.809  1.00  0.00    -0.191 NA
HETATM    9  C10 UNL     1      25.632   0.634  52.379  1.00  0.00     0.146 A 
HETATM   10  N6  UNL     1      24.323   0.915  52.197  1.00  0.00    -0.209 NA
HETATM   11  C13 UNL     1      23.373   0.370  52.981  1.00  0.00     0.184 A 
HETATM   12  N7  UNL     1      22.080   0.661  52.784  1.00  0.00    -0.042 NA
ENDROOT
BRANCH   9  13
HETATM   13  N5  UNL     1      26.580   1.230  51.533  1.00  0.00    -0.371 N 
HETATM   14  H10 UNL     1      27.250   0.619  50.982  1.00  0.00     0.161 HD
BRANCH  13  15
HETATM   15  C11 UNL     1      26.685   2.643  51.379  1.00  0.00     0.147 C 
BRANCH  15  16
HETATM   16  C12 UNL     1      26.499   3.164  49.985  1.00  0.00     0.183 C 
BRANCH  16  17
HETATM   17  O1  UNL     1      27.391   4.164  49.641  1.00  0.00    -0.399 OA
HETATM   18  H15 UNL     1      27.489   4.857  50.367  1.00  0.00     0.209 HD
ENDBRANCH  16  17
ENDBRANCH  15  16
ENDBRANCH  13  15
ENDBRANCH   9  13
BRANCH   3  19
HETATM   19  N3  UNL     1      22.962  -1.901  55.804  1.00  0.00    -0.286 NA
HETATM   20  H7  UNL     1      22.970  -2.851  56.206  1.00  0.00     0.125 HD
HETATM   21  H8  UNL     1      22.716  -2.866  55.441  1.00  0.00     0.125 HD
ENDBRANCH   3  19
BRANCH   1  22
HETATM   22  N1  UNL     1      19.731   0.468  53.310  1.00  0.00    -0.219 N 
HETATM   23  H6  UNL     1      19.342   1.328  53.775  1.00  0.00     0.178 HD
BRANCH  22  24
HETATM   24  C3  UNL     1      18.995  -0.449  52.433  1.00  0.00     0.164 C 
BRANCH  24  25
HETATM   25  C2  UNL     1      18.007  -1.242  53.191  1.00  0.00    -0.017 C 
HETATM   26  C1  UNL     1      17.998  -2.490  53.636  1.00  0.00     0.008 C 
ENDBRANCH  24  25
ENDBRANCH  22  24
ENDBRANCH   1  22
TORSDOF 8
ENDMDL
MODEL 4
REMARK VINA RESULT:      -6.5      2.970      5.785
REMARK  8 active torsions:
REMARK  status: ('A' for Active; 'I' for Inactive)
REMARK    1  A    between atoms: C2_2  and  C3_3 
REMARK    2  A    between atoms: C3_3  and  N1_4 
REMARK    3  A    between atoms: N1_4  and  C4_5 
REMARK    4  A    between atoms: C5_7  and  N3_8 
REMARK    5  A    between atoms: C10_14  and  N5_15 
REMARK    6  A    between atoms: N5_15  and  C11_16 
REMARK    7  A    between atoms: C11_16  and  C12_17 
REMARK    8  A    between atoms: C12_17  and  O1_18 
ROOT
HETATM    1  C4  UNL     1      24.802   3.534  50.279  1.00  0.00     0.726 A 
HETATM    2  N2  UNL     1      23.465   3.631  50.459  1.00  0.00    -0.050 NA
HETATM    3  C5  UNL     1      22.850   2.779  51.304  1.00  0.00     0.134 A 
HETATM    4  C6  UNL     1      23.507   1.796  52.015  1.00  0.00     0.055 A 
HETATM    5  C7  UNL     1      22.837   0.958  52.862  1.00  0.00     0.045 A 
HETATM    6  C8  UNL     1      23.631   0.010  53.516  1.00  0.00     0.091 A 
HETATM    7  C9  UNL     1      22.963  -0.890  54.415  1.00  0.00     0.103 C 
HETATM    8  N4  UNL     1      22.420  -1.610  55.140  1.00  0.00    -0.191 NA
HETATM    9  C10 UNL     1      24.995  -0.062  53.311  1.00  0.00     0.146 A 
HETATM   10  N6  UNL     1      25.584   0.804  52.457  1.00  0.00    -0.209 NA
HETATM   11  C13 UNL     1      24.869   1.737  51.800  1.00  0.00     0.184 A 
HETATM   12  N7  UNL     1      25.471   2.587  50.957  1.00  0.00    -0.042 NA
ENDROOT
BRANCH   9  13
HETATM   13  N5  UNL     1      25.788  -1.015  53.969  1.00  0.00    -0.371 N 
HETATM   14  H10 UNL     1      25.389  -1.551  54.793  1.00  0.00     0.161 HD
BRANCH  13  15
HETATM   15  C11 UNL     1      27.127  -1.299  53.572  1.00  0.00     0.147 C 
BRANCH  15  16
HETATM   16  C12 UNL     1      27.288  -2.385  52.551  1.00  0.00     0.183 C 
BRANCH  16  17
HETATM   17  O1  UNL     1      28.293  -3.287  52.852  1.00  0.00    -0.399 OA
HETATM   18  H15 UNL     1      28.509  -3.894  52.075  1.00  0.00     0.209 HD
ENDBRANCH  16  17
ENDBRANCH  15  16
ENDBRANCH  13  15
ENDBRANCH   9  13
BRANCH   3  19
HETATM   19  N3  UNL     1      21.459   2.968  51.415  1.00  0.00    -0.286 NA
HETATM   20  H7  UNL     1      20.635   3.429  51.832  1.00  0.00     0.125 HD
HETATM   21  H8  UNL     1      21.317   3.711  52.157  1.00  0.00     0.125 HD
ENDBRANCH   3  19
BRANCH   1  22
HETATM   22  N1  UNL     1      25.465   4.423  49.390  1.00  0.00    -0.219 N 
HETATM   23  H6  UNL     1      24.900   5.190  48.944  1.00  0.00     0.178 HD
BRANCH  22  24
HETATM   24  C3  UNL     1      26.895   4.172  49.185  1.00  0.00     0.164 C 
BRANCH  24  25
HETATM   25  C2  UNL     1      27.555   5.319  48.529  1.00  0.00    -0.017 C 
HETATM   26  C1  UNL     1      27.215   6.589  48.370  1.00  0.00     0.008 C 
ENDBRANCH  24  25
ENDBRANCH  22  24
ENDBRANCH   1  22
TORSDOF 8
ENDMDL
MODEL 5
REMARK VINA RESULT:      -6.5      2.189      5.528
REMARK  8 active torsions:
REMARK  status: ('A' for Active; 'I' for Inactive)
REMARK    1  A    between atoms: C2_2  and  C3_3 
REMARK    2  A    between atoms: C3_3  and  N1_4 
REMARK    3  A    between atoms: N1_4  and  C4_5 
REMARK    4  A    between atoms: C5_7  and  N3_8 
REMARK    5  A    between atoms: C10_14  and  N5_15 
REMARK    6  A    between atoms: N5_15  and  C11_16 
REMARK    7  A    between atoms: C11_16  and  C12_17 
REMARK    8  A    between atoms: C12_17  and  O1_18 
ROOT
HETATM    1  C4  UNL     1      21.608  -1.126  54.225  1.00  0.00     0.726 A 
HETATM    2  N2  UNL     1      22.538  -1.509  55.128  1.00  0.00    -0.050 NA
HETATM    3  C5  UNL     1      23.795  -1.034  55.021  1.00  0.00     0.134 A 
HETATM    4  C6  UNL     1      24.205  -0.165  54.032  1.00  0.00     0.055 A 
HETATM    5  C7  UNL     1      25.493   0.289  53.968  1.00  0.00     0.045 A 
HETATM    6  C8  UNL     1      25.765   1.165  52.912  1.00  0.00     0.091 A 
HETATM    7  C9  UNL     1      27.109   1.664  52.810  1.00  0.00     0.103 C 
HETATM    8  N4  UNL     1      28.191   2.066  52.735  1.00  0.00    -0.191 NA
HETATM    9  C10 UNL     1      24.791   1.537  52.005  1.00  0.00     0.146 A 
HETATM   10  N6  UNL     1      23.540   1.044  52.137  1.00  0.00    -0.209 NA
HETATM   11  C13 UNL     1      23.221   0.198  53.135  1.00  0.00     0.184 A 
HETATM   12  N7  UNL     1      21.975  -0.280  53.248  1.00  0.00    -0.042 NA
ENDROOT
BRANCH   9  13
HETATM   13  N5  UNL     1      25.069   2.416  50.947  1.00  0.00    -0.371 N 
HETATM   14  H10 UNL     1      25.533   2.048  50.067  1.00  0.00     0.161 HD
BRANCH  13  15
HETATM   15  C11 UNL     1      24.750   3.804  51.003  1.00  0.00     0.147 C 
BRANCH  15  16
HETATM   16  C12 UNL     1      23.722   4.196  52.022  1.00  0.00     0.183 C 
BRANCH  16  17
HETATM   17  O1  UNL     1      22.420   3.969  51.615  1.00  0.00    -0.399 OA
HETATM   18  H15 UNL     1      21.872   3.505  52.323  1.00  0.00     0.209 HD
ENDBRANCH  16  17
ENDBRANCH  15  16
ENDBRANCH  13  15
ENDBRANCH   9  13
BRANCH   3  19
HETATM   19  N3  UNL     1      24.682  -1.497  56.014  1.00  0.00    -0.286 NA
HETATM   20  H7  UNL     1      25.628  -1.746  56.342  1.00  0.00     0.125 HD
HETATM   21  H8  UNL     1      25.647  -1.493  55.576  1.00  0.00     0.125 HD
ENDBRANCH   3  19
BRANCH   1  22
HETATM   22  N1  UNL     1      20.278  -1.619  54.324  1.00  0.00    -0.219 N 
HETATM   23  H6  UNL     1      20.105  -2.462  54.929  1.00  0.00     0.178 HD
BRANCH  22  24
HETATM   24  C3  UNL     1      19.267  -0.885  53.555  1.00  0.00     0.164 C 
BRANCH  24  25
HETATM   25  C2  UNL     1      18.025  -1.671  53.410  1.00  0.00    -0.017 C 
HETATM   26  C1  UNL     1      17.720  -2.936  53.661  1.00  0.00     0.008 C 
ENDBRANCH  24  25
ENDBRANCH  22  24
ENDBRANCH   1  22
TORSDOF 8
ENDMDL
MODEL 6
REMARK VINA RESULT:      -6.4      2.421      4.441
REMARK  8 active torsions:
REMARK  status: ('A' for Active; 'I' for Inactive)
REMARK    1  A    between atoms: C2_2  and  C3_3 
REMARK    2  A    between atoms: C3_3  and  N1_4 
REMARK    3  A    between atoms: N1_4  and  C4_5 
REMARK    4  A    between atoms: C5_7  and  N3_8 
REMARK    5  A    between atoms: C10_14  and  N5_15 
REMARK    6  A    between atoms: N5_15  and  C11_16 
REMARK    7  A    between atoms: C11_16  and  C12_17 
REMARK    8  A    between atoms: C12_17  and  O1_18 
ROOT
HETATM    1  C4  UNL     1      26.072   2.717  51.335  1.00  0.00     0.726 A 
HETATM    2  N2  UNL     1      26.643   2.140  52.416  1.00  0.00    -0.050 NA
HETATM    3  C5  UNL     1      25.922   1.277  53.160  1.00  0.00     0.134 A 
HETATM    4  C6  UNL     1      24.615   0.934  52.885  1.00  0.00     0.055 A 
HETATM    5  C7  UNL     1      23.928   0.052  53.671  1.00  0.00     0.045 A 
HETATM    6  C8  UNL     1      22.611  -0.202  53.274  1.00  0.00     0.091 A 
HETATM    7  C9  UNL     1      21.855  -1.125  54.075  1.00  0.00     0.103 C 
HETATM    8  N4  UNL     1      21.252  -1.871  54.721  1.00  0.00    -0.191 NA
HETATM    9  C10 UNL     1      22.058   0.404  52.163  1.00  0.00     0.146 A 
HETATM   10  N6  UNL     1      22.803   1.266  51.437  1.00  0.00    -0.209 NA
HETATM   11  C13 UNL     1      24.077   1.547  51.773  1.00  0.00     0.184 A 
HETATM   12  N7  UNL     1      24.800   2.405  51.040  1.00  0.00    -0.042 NA
ENDROOT
BRANCH   9  13
HETATM   13  N5  UNL     1      20.735   0.147  51.767  1.00  0.00    -0.371 N 
HETATM   14  H10 UNL     1      20.324  -0.820  51.909  1.00  0.00     0.161 HD
BRANCH  13  15
HETATM   15  C11 UNL     1      19.908   1.145  51.175  1.00  0.00     0.147 C 
BRANCH  15  16
HETATM   16  C12 UNL     1      19.315   2.146  52.120  1.00  0.00     0.183 C 
BRANCH  16  17
HETATM   17  O1  UNL     1      20.201   3.133  52.514  1.00  0.00    -0.399 OA
HETATM   18  H15 UNL     1      20.611   3.616  51.729  1.00  0.00     0.209 HD
ENDBRANCH  16  17
ENDBRANCH  15  16
ENDBRANCH  13  15
ENDBRANCH   9  13
BRANCH   3  19
HETATM   19  N3  UNL     1      26.614   0.735  54.262  1.00  0.00    -0.286 NA
HETATM   20  H7  UNL     1      27.402   0.208  54.669  1.00  0.00     0.125 HD
HETATM   21  H8  UNL     1      27.469   0.249  53.866  1.00  0.00     0.125 HD
ENDBRANCH   3  19
BRANCH   1  22
HETATM   22  N1  UNL     1      26.819   3.631  50.541  1.00  0.00    -0.219 N 
HETATM   23  H6  UNL     1      27.868   3.584  50.587  1.00  0.00     0.178 HD
BRANCH  22  24
HETATM   24  C3  UNL     1      26.029   4.560  49.726  1.00  0.00     0.164 C 
BRANCH  24  25
HETATM   25  C2  UNL     1      26.875   5.263  48.740  1.00  0.00    -0.017 C 
HETATM   26  C1  UNL     1      28.168   5.212  48.457  1.00  0.00     0.008 C 
ENDBRANCH  24  25
ENDBRANCH  22  24
ENDBRANCH   1  22
TORSDOF 8
ENDMDL
MODEL 7
REMARK VINA RESULT:      -6.4      3.304      6.185
REMARK  8 active torsions:
REMARK  status: ('A' for Active; 'I' for Inactive)
REMARK    1  A    between atoms: C2_2  and  C3_3 
REMARK    2  A    between atoms: C3_3  and  N1_4 
REMARK    3  A    between atoms: N1_4  and  C4_5 
REMARK    4  A    between atoms: C5_7  and  N3_8 
REMARK    5  A    between atoms: C10_14  and  N5_15 
REMARK    6  A    between atoms: N5_15  and  C11_16 
REMARK    7  A    between atoms: C11_16  and  C12_17 
REMARK    8  A    between atoms: C12_17  and  O1_18 
ROOT
HETATM    1  C4  UNL     1      26.453   4.058  49.789  1.00  0.00     0.726 A 
HETATM    2  N2  UNL     1      25.132   4.312  49.918  1.00  0.00    -0.050 NA
HETATM    3  C5  UNL     1      24.379   3.508  50.697  1.00  0.00     0.134 A 
HETATM    4  C6  UNL     1      24.878   2.423  51.386  1.00  0.00     0.055 A 
HETATM    5  C7  UNL     1      24.073   1.639  52.164  1.00  0.00     0.045 A 
HETATM    6  C8  UNL     1      24.715   0.573  52.804  1.00  0.00     0.091 A 
HETATM    7  C9  UNL     1      23.901  -0.275  53.632  1.00  0.00     0.103 C 
HETATM    8  N4  UNL     1      23.242  -0.952  54.299  1.00  0.00    -0.191 NA
HETATM    9  C10 UNL     1      26.068   0.342  52.651  1.00  0.00     0.146 A 
HETATM   10  N6  UNL     1      26.796   1.163  51.864  1.00  0.00    -0.209 NA
HETATM   11  C13 UNL     1      26.231   2.205  51.224  1.00  0.00     0.184 A 
HETATM   12  N7  UNL     1      26.970   3.008  50.447  1.00  0.00    -0.042 NA
ENDROOT
BRANCH   9  13
HETATM   13  N5  UNL     1      26.708  -0.729  53.295  1.00  0.00    -0.371 N 
HETATM   14  H10 UNL     1      26.163  -1.613  53.511  1.00  0.00     0.161 HD
BRANCH  13  15
HETATM   15  C11 UNL     1      28.080  -0.680  53.678  1.00  0.00     0.147 C 
BRANCH  15  16
HETATM   16  C12 UNL     1      28.397   0.186  54.860  1.00  0.00     0.183 C 
BRANCH  16  17
HETATM   17  O1  UNL     1      28.719   1.489  54.526  1.00  0.00    -0.399 OA
HETATM   18  H15 UNL     1      28.208   2.163  55.076  1.00  0.00     0.209 HD
ENDBRANCH  16  17
ENDBRANCH  15  16
ENDBRANCH  13  15
ENDBRANCH   9  13
BRANCH   3  19
HETATM   19  N3  UNL     1      23.017   3.863  50.760  1.00  0.00    -0.286 NA
HETATM   20  H7  UNL     1      22.215   4.303  51.237  1.00  0.00     0.125 HD
HETATM   21  H8  UNL     1      22.886   4.376  51.678  1.00  0.00     0.125 HD
ENDBRANCH   3  19
BRANCH   1  22
HETATM   22  N1  UNL     1      27.260   4.896  48.971  1.00  0.00    -0.219 N 
HETATM   23  H6  UNL     1      28.212   4.547  48.691  1.00  0.00     0.178 HD
BRANCH  22  24
HETATM   24  C3  UNL     1      26.667   6.184  48.597  1.00  0.00     0.164 C 
BRANCH  24  25
HETATM   25  C2  UNL     1      27.690   7.120  48.087  1.00  0.00    -0.017 C 
HETATM   26  C1  UNL     1      28.915   6.950  47.612  1.00  0.00     0.008 C 
ENDBRANCH  24  25
ENDBRANCH  22  24
ENDBRANCH   1  22
TORSDOF 8
ENDMDL
MODEL 8
REMARK VINA RESULT:      -6.4      2.206      4.622
REMARK  8 active torsions:
REMARK  status: ('A' for Active; 'I' for Inactive)
REMARK    1  A    between atoms: C2_2  and  C3_3 
REMARK    2  A    between atoms: C3_3  and  N1_4 
REMARK    3  A    between atoms: N1_4  and  C4_5 
REMARK    4  A    between atoms: C5_7  and  N3_8 
REMARK    5  A    between atoms: C10_14  and  N5_15 
REMARK    6  A    between atoms: N5_15  and  C11_16 
REMARK    7  A    between atoms: C11_16  and  C12_17 
REMARK    8  A    between atoms: C12_17  and  O1_18 
ROOT
HETATM    1  C4  UNL     1      25.115  -0.755  54.371  1.00  0.00     0.726 A 
HETATM    2  N2  UNL     1      26.428  -0.890  54.082  1.00  0.00    -0.050 NA
HETATM    3  C5  UNL     1      26.985  -0.086  53.154  1.00  0.00     0.134 A 
HETATM    4  C6  UNL     1      26.291   0.887  52.467  1.00  0.00     0.055 A 
HETATM    5  C7  UNL     1      26.903   1.679  51.535  1.00  0.00     0.045 A 
HETATM    6  C8  UNL     1      26.076   2.622  50.917  1.00  0.00     0.091 A 
HETATM    7  C9  UNL     1      26.682   3.473  49.931  1.00  0.00     0.103 C 
HETATM    8  N4  UNL     1      27.177   4.158  49.141  1.00  0.00    -0.191 NA
HETATM    9  C10 UNL     1      24.736   2.735  51.236  1.00  0.00     0.146 A 
HETATM   10  N6  UNL     1      24.205   1.915  52.169  1.00  0.00    -0.209 NA
HETATM   11  C13 UNL     1      24.955   0.988  52.797  1.00  0.00     0.184 A 
HETATM   12  N7  UNL     1      24.410   0.184  53.719  1.00  0.00    -0.042 NA
ENDROOT
BRANCH   9  13
HETATM   13  N5  UNL     1      23.910   3.684  50.613  1.00  0.00    -0.371 N 
HETATM   14  H10 UNL     1      23.667   3.574  49.586  1.00  0.00     0.161 HD
BRANCH  13  15
HETATM   15  C11 UNL     1      23.373   4.804  51.311  1.00  0.00     0.147 C 
BRANCH  15  16
HETATM   16  C12 UNL     1      24.087   6.106  51.103  1.00  0.00     0.183 C 
BRANCH  16  17
HETATM   17  O1  UNL     1      24.413   6.757  52.279  1.00  0.00    -0.399 OA
HETATM   18  H15 UNL     1      24.063   7.702  52.305  1.00  0.00     0.209 HD
ENDBRANCH  16  17
ENDBRANCH  15  16
ENDBRANCH  13  15
ENDBRANCH   9  13
BRANCH   3  19
HETATM   19  N3  UNL     1      28.358  -0.313  52.931  1.00  0.00    -0.286 NA
HETATM   20  H7  UNL     1      29.316   0.024  52.752  1.00  0.00     0.125 HD
HETATM   21  H8  UNL     1      28.802   0.642  52.810  1.00  0.00     0.125 HD
ENDBRANCH   3  19
BRANCH   1  22
HETATM   22  N1  UNL     1      24.512  -1.596  55.346  1.00  0.00    -0.219 N 
HETATM   23  H6  UNL     1      25.073  -2.406  55.717  1.00  0.00     0.178 HD
BRANCH  22  24
HETATM   24  C3  UNL     1      23.145  -1.239  55.740  1.00  0.00     0.164 C 
BRANCH  24  25
HETATM   25  C2  UNL     1      22.145  -1.935  54.904  1.00  0.00    -0.017 C 
HETATM   26  C1  UNL     1      21.174  -1.507  54.112  1.00  0.00     0.008 C 
ENDBRANCH  24  25
ENDBRANCH  22  24
ENDBRANCH   1  22
TORSDOF 8
ENDMDL
MODEL 9
REMARK VINA RESULT:      -6.3      2.804      4.099
REMARK  8 active torsions:
REMARK  status: ('A' for Active; 'I' for Inactive)
REMARK    1  A    between atoms: C2_2  and  C3_3 
REMARK    2  A    between atoms: C3_3  and  N1_4 
REMARK    3  A    between atoms: N1_4  and  C4_5 
REMARK    4  A    between atoms: C5_7  and  N3_8 
REMARK    5  A    between atoms: C10_14  and  N5_15 
REMARK    6  A    between atoms: N5_15  and  C11_16 
REMARK    7  A    between atoms: C11_16  and  C12_17 
REMARK    8  A    between atoms: C12_17  and  O1_18 
ROOT
HETATM    1  C4  UNL     1      25.738  -0.307  53.449  1.00  0.00     0.726 A 
HETATM    2  N2  UNL     1      26.013   0.894  52.893  1.00  0.00    -0.050 NA
HETATM    3  C5  UNL     1      24.998   1.725  52.581  1.00  0.00     0.134 A 
HETATM    4  C6  UNL     1      23.669   1.426  52.798  1.00  0.00     0.055 A 
HETATM    5  C7  UNL     1      22.676   2.304  52.465  1.00  0.00     0.045 A 
HETATM    6  C8  UNL     1      21.375   1.868  52.741  1.00  0.00     0.091 A 
HETATM    7  C9  UNL     1      20.303   2.764  52.405  1.00  0.00     0.103 C 
HETATM    8  N4  UNL     1      19.444   3.490  52.136  1.00  0.00    -0.191 NA
HETATM    9  C10 UNL     1      21.128   0.634  53.311  1.00  0.00     0.146 A 
HETATM   10  N6  UNL     1      22.166  -0.177  53.611  1.00  0.00    -0.209 NA
HETATM   11  C13 UNL     1      23.438   0.191  53.368  1.00  0.00     0.184 A 
HETATM   12  N7  UNL     1      24.453  -0.628  53.673  1.00  0.00    -0.042 NA
ENDROOT
BRANCH   9  13
HETATM   13  N5  UNL     1      19.822   0.200  53.586  1.00  0.00    -0.371 N 
HETATM   14  H10 UNL     1      19.378   0.433  54.522  1.00  0.00     0.161 HD
BRANCH  13  15
HETATM   15  C11 UNL     1      19.053  -0.550  52.650  1.00  0.00     0.147 C 
BRANCH  15  16
HETATM   16  C12 UNL     1      17.902  -1.323  53.221  1.00  0.00     0.183 C 
BRANCH  16  17
HETATM   17  O1  UNL     1      18.284  -2.318  54.104  1.00  0.00    -0.399 OA
HETATM   18  H15 UNL     1      18.945  -1.988  54.790  1.00  0.00     0.209 HD
ENDBRANCH  16  17
ENDBRANCH  15  16
ENDBRANCH  13  15
ENDBRANCH   9  13
BRANCH   3  19
HETATM   19  N3  UNL     1      25.398   2.948  52.007  1.00  0.00    -0.286 NA
HETATM   20  H7  UNL     1      25.593   3.959  52.069  1.00  0.00     0.125 HD
HETATM   21  H8  UNL     1      25.352   3.670  52.782  1.00  0.00     0.125 HD
ENDBRANCH   3  19
BRANCH   1  22
HETATM   22  N1  UNL     1      26.797  -1.194  53.782  1.00  0.00    -0.219 N 
HETATM   23  H6  UNL     1      26.637  -1.889  54.555  1.00  0.00     0.178 HD
BRANCH  22  24
HETATM   24  C3  UNL     1      28.027  -1.043  52.997  1.00  0.00     0.164 C 
BRANCH  24  25
HETATM   25  C2  UNL     1      29.107  -0.433  53.800  1.00  0.00    -0.017 C 
HETATM   26  C1  UNL     1      29.369   0.812  54.166  1.00  0.00     0.008 C 
ENDBRANCH  24  25
ENDBRANCH  22  24
ENDBRANCH   1  22
TORSDOF 8
ENDMDL
