MODEL 1
REMARK VINA RESULT:      -9.2      0.000      0.000
REMARK  5 active torsions:
REMARK  status: ('A' for Active; 'I' for Inactive)
REMARK    1  A    between atoms: N1_1  and  C1_2 
REMARK    2  A    between atoms: C5_10  and  C6_11 
REMARK    3  A    between atoms: N4_22  and  C16_23 
REMARK    4  A    between atoms: C16_23  and  C17_24 
REMARK    5  A    between atoms: C17_24  and  N5_25 
ROOT
HETATM    1  C1  UNL     1      22.256   1.395  52.304  1.00  0.00     0.343 C 
HETATM    2  C2  UNL     1      21.385   2.486  52.152  1.00  0.00     0.231 C 
HETATM    3  O1  UNL     1      20.695   3.587  52.033  1.00  0.00    -0.349 OA
HETATM    4  P1  UNL     1      21.908   4.803  51.706  1.00  0.00     0.104 P 
HETATM    5  C3  UNL     1      21.805   4.912  50.108  1.00  0.00     0.124 C 
HETATM    6  N2  UNL     1      22.844   5.160  49.417  1.00  0.00    -0.236 NA
HETATM    7  C4  UNL     1      23.847   5.836  50.213  1.00  0.00     0.404 C 
HETATM    8  N3  UNL     1      25.124   5.888  50.378  1.00  0.00    -0.371 NA
HETATM    9  C5  UNL     1      26.012   5.080  49.607  1.00  0.00     0.034 C 
HETATM   10  C12 UNL     1      25.952   3.776  49.756  1.00  0.00     0.031 C 
HETATM   11  C13 UNL     1      25.097   3.029  50.616  1.00  0.00     0.031 C 
HETATM   12  C14 UNL     1      24.151   3.167  51.518  1.00  0.00     0.035 C 
HETATM   13  C15 UNL     1      23.496   4.398  52.099  1.00  0.00     0.070 C 
HETATM   14  N4  UNL     1      23.660   1.840  51.969  1.00  0.00    -0.348 N 
ENDROOT
BRANCH  14  15
HETATM   15  C16 UNL     1      24.715   0.880  52.115  1.00  0.00     0.145 C 
BRANCH  15  16
HETATM   16  C17 UNL     1      25.221   0.569  53.464  1.00  0.00     0.145 C 
BRANCH  16  17
HETATM   17  N5  UNL     1      26.678   0.828  53.584  1.00  0.00    -0.347 N 
HETATM   18  C18 UNL     1      27.105   2.207  53.574  1.00  0.00     0.152 C 
HETATM   19  C19 UNL     1      28.605   2.239  53.768  1.00  0.00     0.188 C 
HETATM   20  O2  UNL     1      29.046   1.255  54.639  1.00  0.00    -0.380 OA
HETATM   21  C20 UNL     1      28.973   0.049  53.944  1.00  0.00     0.270 C 
HETATM   22  C21 UNL     1      27.534  -0.316  53.698  1.00  0.00     0.243 C 
HETATM   23  O3  UNL     1      27.159  -1.493  53.607  1.00  0.00    -0.271 OA
ENDBRANCH  16  17
ENDBRANCH  15  16
ENDBRANCH  14  15
BRANCH   1  24
HETATM   24  N1  UNL     1      21.871   0.302  51.399  1.00  0.00     0.103 N 
HETATM   25  H1  UNL     1      22.477  -0.527  51.506  1.00  0.00     0.315 HD
HETATM   26  H2  UNL     1      20.852   0.102  51.469  1.00  0.00     0.315 HD
ENDBRANCH   1  24
BRANCH   9  27
HETATM   27  C6  UNL     1      26.894   5.831  48.732  1.00  0.00    -0.010 A 
HETATM   28  C7  UNL     1      28.209   5.483  48.508  1.00  0.00     0.017 A 
HETATM   29  C8  UNL     1      29.057   6.182  47.685  1.00  0.00     0.043 A 
HETATM   30  C9  UNL     1      28.617   7.302  47.023  1.00  0.00     0.116 A 
HETATM   31  F1  UNL     1      29.471   7.971  46.218  1.00  0.00    -0.206 F 
HETATM   32  C10 UNL     1      27.317   7.700  47.207  1.00  0.00     0.043 A 
HETATM   33  C11 UNL     1      26.513   6.961  48.042  1.00  0.00     0.017 A 
ENDBRANCH   9  27
TORSDOF 5
ENDMDL
MODEL 2
REMARK VINA RESULT:      -9.0      5.018      7.942
REMARK  5 active torsions:
REMARK  status: ('A' for Active; 'I' for Inactive)
REMARK    1  A    between atoms: N1_1  and  C1_2 
REMARK    2  A    between atoms: C5_10  and  C6_11 
REMARK    3  A    between atoms: N4_22  and  C16_23 
REMARK    4  A    between atoms: C16_23  and  C17_24 
REMARK    5  A    between atoms: C17_24  and  N5_25 
ROOT
HETATM    1  C1  UNL     1      30.003   7.988  48.551  1.00  0.00     0.343 C 
HETATM    2  C2  UNL     1      29.013   8.947  48.817  1.00  0.00     0.231 C 
HETATM    3  O1  UNL     1      27.999   9.750  48.990  1.00  0.00    -0.349 OA
HETATM    4  P1  UNL     1      26.609   8.731  48.694  1.00  0.00     0.104 P 
HETATM    5  C3  UNL     1      26.187   8.350  50.194  1.00  0.00     0.124 C 
HETATM    6  N2  UNL     1      25.683   7.209  50.445  1.00  0.00    -0.236 NA
HETATM    7  C4  UNL     1      25.073   6.639  49.262  1.00  0.00     0.404 C 
HETATM    8  N3  UNL     1      24.908   5.508  48.668  1.00  0.00    -0.371 NA
HETATM    9  C5  UNL     1      25.432   4.296  49.209  1.00  0.00     0.034 C 
HETATM   10  C12 UNL     1      26.736   4.166  49.294  1.00  0.00     0.031 C 
HETATM   11  C13 UNL     1      27.739   5.100  48.901  1.00  0.00     0.031 C 
HETATM   12  C14 UNL     1      27.899   6.288  48.363  1.00  0.00     0.035 C 
HETATM   13  C15 UNL     1      26.899   7.299  47.854  1.00  0.00     0.070 C 
HETATM   14  N4  UNL     1      29.338   6.651  48.318  1.00  0.00    -0.348 N 
ENDROOT
BRANCH  14  15
HETATM   15  C16 UNL     1      30.179   5.542  47.974  1.00  0.00     0.145 C 
BRANCH  15  16
HETATM   16  C17 UNL     1      31.334   5.763  47.085  1.00  0.00     0.145 C 
BRANCH  16  17
HETATM   17  N5  UNL     1      32.523   4.986  47.514  1.00  0.00    -0.347 N 
HETATM   18  C18 UNL     1      32.521   3.569  47.233  1.00  0.00     0.152 C 
HETATM   19  C19 UNL     1      33.841   2.993  47.696  1.00  0.00     0.188 C 
HETATM   20  O2  UNL     1      34.899   3.864  47.488  1.00  0.00    -0.380 OA
HETATM   21  C20 UNL     1      34.783   4.865  48.452  1.00  0.00     0.270 C 
HETATM   22  C21 UNL     1      33.570   5.709  48.172  1.00  0.00     0.243 C 
HETATM   23  O3  UNL     1      33.512   6.905  48.491  1.00  0.00    -0.271 OA
ENDBRANCH  16  17
ENDBRANCH  15  16
ENDBRANCH  14  15
BRANCH   1  24
HETATM   24  N1  UNL     1      30.924   7.872  49.692  1.00  0.00     0.103 N 
HETATM   25  H1  UNL     1      31.148   8.790  50.109  1.00  0.00     0.315 HD
HETATM   26  H2  UNL     1      30.587   7.160  50.371  1.00  0.00     0.315 HD
ENDBRANCH   1  24
BRANCH   9  27
HETATM   27  C6  UNL     1      24.419   3.334  49.605  1.00  0.00    -0.010 A 
HETATM   28  C7  UNL     1      24.477   2.620  50.784  1.00  0.00     0.017 A 
HETATM   29  C8  UNL     1      23.529   1.707  51.173  1.00  0.00     0.043 A 
HETATM   30  C9  UNL     1      22.439   1.452  50.377  1.00  0.00     0.116 A 
HETATM   31  F1  UNL     1      21.520   0.550  50.784  1.00  0.00    -0.206 F 
HETATM   32  C10 UNL     1      22.327   2.132  49.190  1.00  0.00     0.043 A 
HETATM   33  C11 UNL     1      23.306   3.035  48.851  1.00  0.00     0.017 A 
ENDBRANCH   9  27
TORSDOF 5
ENDMDL
MODEL 3
REMARK VINA RESULT:      -8.8      4.737      7.905
REMARK  5 active torsions:
REMARK  status: ('A' for Active; 'I' for Inactive)
REMARK    1  A    between atoms: N1_1  and  C1_2 
REMARK    2  A    between atoms: C5_10  and  C6_11 
REMARK    3  A    between atoms: N4_22  and  C16_23 
REMARK    4  A    between atoms: C16_23  and  C17_24 
REMARK    5  A    between atoms: C17_24  and  N5_25 
ROOT
HETATM    1  C1  UNL     1      23.752   4.466  52.181  1.00  0.00     0.343 C 
HETATM    2  C2  UNL     1      22.788   5.094  51.376  1.00  0.00     0.231 C 
HETATM    3  O1  UNL     1      21.860   5.542  50.575  1.00  0.00    -0.349 OA
HETATM    4  P1  UNL     1      20.905   4.123  50.213  1.00  0.00     0.104 P 
HETATM    5  C3  UNL     1      19.690   4.304  51.246  1.00  0.00     0.124 C 
HETATM    6  N2  UNL     1      19.137   3.282  51.766  1.00  0.00    -0.236 NA
HETATM    7  C4  UNL     1      19.332   2.110  50.939  1.00  0.00     0.404 C 
HETATM    8  N3  UNL     1      19.546   0.843  51.035  1.00  0.00    -0.371 NA
HETATM    9  C5  UNL     1      19.662   0.198  52.303  1.00  0.00     0.034 C 
HETATM   10  C12 UNL     1      20.673   0.522  53.075  1.00  0.00     0.031 C 
HETATM   11  C13 UNL     1      21.714   1.458  52.811  1.00  0.00     0.031 C 
HETATM   12  C14 UNL     1      22.154   2.293  51.897  1.00  0.00     0.035 C 
HETATM   13  C15 UNL     1      21.634   2.634  50.521  1.00  0.00     0.070 C 
HETATM   14  N4  UNL     1      23.350   3.024  52.388  1.00  0.00    -0.348 N 
ENDROOT
BRANCH  14  15
HETATM   15  C16 UNL     1      24.237   2.189  53.144  1.00  0.00     0.145 C 
BRANCH  15  16
HETATM   16  C17 UNL     1      25.147   1.274  52.430  1.00  0.00     0.145 C 
BRANCH  16  17
HETATM   17  N5  UNL     1      26.484   1.208  53.072  1.00  0.00    -0.347 N 
HETATM   18  C18 UNL     1      27.423   2.257  52.749  1.00  0.00     0.152 C 
HETATM   19  C19 UNL     1      28.683   2.028  53.554  1.00  0.00     0.188 C 
HETATM   20  O2  UNL     1      28.417   1.532  54.821  1.00  0.00    -0.380 OA
HETATM   21  C20 UNL     1      28.055   0.196  54.656  1.00  0.00     0.270 C 
HETATM   22  C21 UNL     1      26.727   0.107  53.957  1.00  0.00     0.243 C 
HETATM   23  O3  UNL     1      25.944  -0.835  54.146  1.00  0.00    -0.271 OA
ENDBRANCH  16  17
ENDBRANCH  15  16
ENDBRANCH  14  15
BRANCH   1  24
HETATM   24  N1  UNL     1      23.838   5.131  53.490  1.00  0.00     0.103 N 
HETATM   25  H1  UNL     1      23.590   4.498  54.268  1.00  0.00     0.315 HD
HETATM   26  H2  UNL     1      24.752   5.614  53.602  1.00  0.00     0.315 HD
ENDBRANCH   1  24
BRANCH   9  27
HETATM   27  C6  UNL     1      18.610  -0.765  52.580  1.00  0.00    -0.010 A 
HETATM   28  C7  UNL     1      18.765  -1.820  53.454  1.00  0.00     0.017 A 
HETATM   29  C8  UNL     1      17.782  -2.739  53.727  1.00  0.00     0.043 A 
HETATM   30  C9  UNL     1      16.555  -2.647  53.118  1.00  0.00     0.116 A 
HETATM   31  F1  UNL     1      15.605  -3.563  53.404  1.00  0.00    -0.206 F 
HETATM   32  C10 UNL     1      16.341  -1.617  52.236  1.00  0.00     0.043 A 
HETATM   33  C11 UNL     1      17.360  -0.726  52.001  1.00  0.00     0.017 A 
ENDBRANCH   9  27
TORSDOF 5
ENDMDL
MODEL 4
REMARK VINA RESULT:      -8.4      4.155      7.314
REMARK  5 active torsions:
REMARK  status: ('A' for Active; 'I' for Inactive)
REMARK    1  A    between atoms: N1_1  and  C1_2 
REMARK    2  A    between atoms: C5_10  and  C6_11 
REMARK    3  A    between atoms: N4_22  and  C16_23 
REMARK    4  A    between atoms: C16_23  and  C17_24 
REMARK    5  A    between atoms: C17_24  and  N5_25 
ROOT
HETATM    1  C1  UNL     1      25.017   4.987  49.834  1.00  0.00     0.343 C 
HETATM    2  C2  UNL     1      24.144   5.335  48.791  1.00  0.00     0.231 C 
HETATM    3  O1  UNL     1      23.296   5.515  47.816  1.00  0.00    -0.349 OA
HETATM    4  P1  UNL     1      22.290   4.085  47.873  1.00  0.00     0.104 P 
HETATM    5  C3  UNL     1      21.023   4.639  48.686  1.00  0.00     0.124 C 
HETATM    6  N2  UNL     1      20.382   3.869  49.472  1.00  0.00    -0.236 NA
HETATM    7  C4  UNL     1      20.566   2.482  49.103  1.00  0.00     0.404 C 
HETATM    8  N3  UNL     1      20.704   1.315  49.632  1.00  0.00    -0.371 NA
HETATM    9  C5  UNL     1      20.702   1.132  51.048  1.00  0.00     0.034 C 
HETATM   10  C12 UNL     1      21.677   1.667  51.745  1.00  0.00     0.031 C 
HETATM   11  C13 UNL     1      22.783   2.429  51.267  1.00  0.00     0.031 C 
HETATM   12  C14 UNL     1      23.326   2.894  50.165  1.00  0.00     0.035 C 
HETATM   13  C15 UNL     1      22.915   2.767  48.717  1.00  0.00     0.070 C 
HETATM   14  N4  UNL     1      24.525   3.712  50.477  1.00  0.00    -0.348 N 
ENDROOT
BRANCH  14  15
HETATM   15  C16 UNL     1      25.314   3.155  51.537  1.00  0.00     0.145 C 
BRANCH  15  16
HETATM   16  C17 UNL     1      26.361   2.168  51.212  1.00  0.00     0.145 C 
BRANCH  16  17
HETATM   17  N5  UNL     1      26.629   1.249  52.346  1.00  0.00    -0.347 N 
HETATM   18  C18 UNL     1      25.652   0.217  52.603  1.00  0.00     0.152 C 
HETATM   19  C19 UNL     1      26.152  -0.633  53.750  1.00  0.00     0.188 C 
HETATM   20  O2  UNL     1      27.527  -0.801  53.722  1.00  0.00    -0.380 OA
HETATM   21  C20 UNL     1      28.083   0.411  54.131  1.00  0.00     0.270 C 
HETATM   22  C21 UNL     1      27.835   1.466  53.089  1.00  0.00     0.243 C 
HETATM   23  O3  UNL     1      28.612   2.416  52.914  1.00  0.00    -0.271 OA
ENDBRANCH  16  17
ENDBRANCH  15  16
ENDBRANCH  14  15
BRANCH   1  24
HETATM   24  N1  UNL     1      25.054   6.052  50.848  1.00  0.00     0.103 N 
HETATM   25  H1  UNL     1      25.456   6.929  50.480  1.00  0.00     0.315 HD
HETATM   26  H2  UNL     1      24.126   6.161  51.306  1.00  0.00     0.315 HD
ENDBRANCH   1  24
BRANCH   9  27
HETATM   27  C6  UNL     1      19.584   0.350  51.545  1.00  0.00    -0.010 A 
HETATM   28  C7  UNL     1      18.396   0.211  50.858  1.00  0.00     0.017 A 
HETATM   29  C8  UNL     1      17.330  -0.525  51.314  1.00  0.00     0.043 A 
HETATM   30  C9  UNL     1      17.400  -1.178  52.520  1.00  0.00     0.116 A 
HETATM   31  F1  UNL     1      16.337  -1.896  52.944  1.00  0.00    -0.206 F 
HETATM   32  C10 UNL     1      18.557  -1.076  53.250  1.00  0.00     0.043 A 
HETATM   33  C11 UNL     1      19.593  -0.327  52.745  1.00  0.00     0.017 A 
ENDBRANCH   9  27
TORSDOF 5
ENDMDL
MODEL 5
REMARK VINA RESULT:      -8.4      1.189      1.876
REMARK  5 active torsions:
REMARK  status: ('A' for Active; 'I' for Inactive)
REMARK    1  A    between atoms: N1_1  and  C1_2 
REMARK    2  A    between atoms: C5_10  and  C6_11 
REMARK    3  A    between atoms: N4_22  and  C16_23 
REMARK    4  A    between atoms: C16_23  and  C17_24 
REMARK    5  A    between atoms: C17_24  and  N5_25 
ROOT
HETATM    1  C1  UNL     1      22.595   2.484  51.702  1.00  0.00     0.343 C 
HETATM    2  C2  UNL     1      21.771   3.559  51.333  1.00  0.00     0.231 C 
HETATM    3  O1  UNL     1      21.122   4.647  51.016  1.00  0.00    -0.349 OA
HETATM    4  P1  UNL     1      22.391   5.807  50.693  1.00  0.00     0.104 P 
HETATM    5  C3  UNL     1      22.466   5.735  49.092  1.00  0.00     0.124 C 
HETATM    6  N2  UNL     1      23.580   5.894  48.497  1.00  0.00    -0.236 NA
HETATM    7  C4  UNL     1      24.505   6.645  49.320  1.00  0.00     0.404 C 
HETATM    8  N3  UNL     1      25.756   6.703  49.620  1.00  0.00    -0.371 NA
HETATM    9  C5  UNL     1      26.705   5.804  49.047  1.00  0.00     0.034 C 
HETATM   10  C12 UNL     1      26.601   4.526  49.332  1.00  0.00     0.031 C 
HETATM   11  C13 UNL     1      25.640   3.889  50.170  1.00  0.00     0.031 C 
HETATM   12  C14 UNL     1      24.604   4.138  50.939  1.00  0.00     0.035 C 
HETATM   13  C15 UNL     1      23.917   5.432  51.303  1.00  0.00     0.070 C 
HETATM   14  N4  UNL     1      24.037   2.875  51.477  1.00  0.00    -0.348 N 
ENDROOT
BRANCH  14  15
HETATM   15  C16 UNL     1      25.048   1.927  51.846  1.00  0.00     0.145 C 
BRANCH  15  16
HETATM   16  C17 UNL     1      25.563   1.927  53.228  1.00  0.00     0.145 C 
BRANCH  16  17
HETATM   17  N5  UNL     1      26.682   0.968  53.402  1.00  0.00    -0.347 N 
HETATM   18  C18 UNL     1      26.419  -0.417  53.087  1.00  0.00     0.152 C 
HETATM   19  C19 UNL     1      27.702  -1.197  53.275  1.00  0.00     0.188 C 
HETATM   20  O2  UNL     1      28.821  -0.472  52.896  1.00  0.00    -0.380 OA
HETATM   21  C20 UNL     1      29.033   0.480  53.891  1.00  0.00     0.270 C 
HETATM   22  C21 UNL     1      27.928   1.500  53.870  1.00  0.00     0.243 C 
HETATM   23  O3  UNL     1      28.106   2.673  54.228  1.00  0.00    -0.271 OA
ENDBRANCH  16  17
ENDBRANCH  15  16
ENDBRANCH  14  15
BRANCH   1  24
HETATM   24  N1  UNL     1      22.287   1.300  50.886  1.00  0.00     0.103 N 
HETATM   25  H1  UNL     1      22.515   0.419  51.374  1.00  0.00     0.315 HD
HETATM   26  H2  UNL     1      21.317   1.348  50.513  1.00  0.00     0.315 HD
ENDBRANCH   1  24
BRANCH   9  27
HETATM   27  C6  UNL     1      27.694   6.443  48.198  1.00  0.00    -0.010 A 
HETATM   28  C7  UNL     1      27.405   7.513  47.376  1.00  0.00     0.017 A 
HETATM   29  C8  UNL     1      28.328   8.129  46.568  1.00  0.00     0.043 A 
HETATM   30  C9  UNL     1      29.630   7.691  46.539  1.00  0.00     0.116 A 
HETATM   31  F1  UNL     1      30.518   8.316  45.735  1.00  0.00    -0.206 F 
HETATM   32  C10 UNL     1      29.978   6.629  47.335  1.00  0.00     0.043 A 
HETATM   33  C11 UNL     1      29.013   6.051  48.125  1.00  0.00     0.017 A 
ENDBRANCH   9  27
TORSDOF 5
ENDMDL
MODEL 6
REMARK VINA RESULT:      -8.3      1.734      2.418
REMARK  5 active torsions:
REMARK  status: ('A' for Active; 'I' for Inactive)
REMARK    1  A    between atoms: N1_1  and  C1_2 
REMARK    2  A    between atoms: C5_10  and  C6_11 
REMARK    3  A    between atoms: N4_22  and  C16_23 
REMARK    4  A    between atoms: C16_23  and  C17_24 
REMARK    5  A    between atoms: C17_24  and  N5_25 
ROOT
HETATM    1  C1  UNL     1      20.485   2.115  50.337  1.00  0.00     0.343 C 
HETATM    2  C2  UNL     1      19.908   3.269  49.783  1.00  0.00     0.231 C 
HETATM    3  O1  UNL     1      19.482   4.417  49.331  1.00  0.00    -0.349 OA
HETATM    4  P1  UNL     1      20.885   5.454  49.447  1.00  0.00     0.104 P 
HETATM    5  C3  UNL     1      21.431   5.395  47.940  1.00  0.00     0.124 C 
HETATM    6  N2  UNL     1      22.682   5.453  47.711  1.00  0.00    -0.236 NA
HETATM    7  C4  UNL     1      23.379   6.103  48.801  1.00  0.00     0.404 C 
HETATM    8  N3  UNL     1      24.483   6.037  49.463  1.00  0.00    -0.371 NA
HETATM    9  C5  UNL     1      25.477   5.058  49.162  1.00  0.00     0.034 C 
HETATM   10  C12 UNL     1      25.181   3.793  49.352  1.00  0.00     0.031 C 
HETATM   11  C13 UNL     1      23.960   3.241  49.839  1.00  0.00     0.031 C 
HETATM   12  C14 UNL     1      22.768   3.578  50.274  1.00  0.00     0.035 C 
HETATM   13  C15 UNL     1      22.119   4.928  50.469  1.00  0.00     0.070 C 
HETATM   14  N4  UNL     1      21.957   2.369  50.568  1.00  0.00    -0.348 N 
ENDROOT
BRANCH  14  15
HETATM   15  C16 UNL     1      22.723   1.324  51.182  1.00  0.00     0.145 C 
BRANCH  15  16
HETATM   16  C17 UNL     1      22.734   1.211  52.653  1.00  0.00     0.145 C 
BRANCH  16  17
HETATM   17  N5  UNL     1      24.104   0.993  53.182  1.00  0.00    -0.347 N 
HETATM   18  C18 UNL     1      24.522  -0.375  53.383  1.00  0.00     0.152 C 
HETATM   19  C19 UNL     1      25.957  -0.366  53.863  1.00  0.00     0.188 C 
HETATM   20  O2  UNL     1      26.706   0.637  53.268  1.00  0.00    -0.380 OA
HETATM   21  C20 UNL     1      26.303   1.836  53.856  1.00  0.00     0.270 C 
HETATM   22  C21 UNL     1      24.892   2.159  53.448  1.00  0.00     0.243 C 
HETATM   23  O3  UNL     1      24.482   3.325  53.361  1.00  0.00    -0.271 OA
ENDBRANCH  16  17
ENDBRANCH  15  16
ENDBRANCH  14  15
BRANCH   1  24
HETATM   24  N1  UNL     1      20.334   0.976  49.420  1.00  0.00     0.103 N 
HETATM   25  H1  UNL     1      21.241   0.651  49.047  1.00  0.00     0.315 HD
HETATM   26  H2  UNL     1      19.752   0.228  49.849  1.00  0.00     0.315 HD
ENDBRANCH   1  24
BRANCH   9  27
HETATM   27  C6  UNL     1      26.728   5.610  48.673  1.00  0.00    -0.010 A 
HETATM   28  C7  UNL     1      27.895   4.880  48.596  1.00  0.00     0.017 A 
HETATM   29  C8  UNL     1      29.086   5.386  48.135  1.00  0.00     0.043 A 
HETATM   30  C9  UNL     1      29.172   6.692  47.717  1.00  0.00     0.116 A 
HETATM   31  F1  UNL     1      30.355   7.164  47.267  1.00  0.00    -0.206 F 
HETATM   32  C10 UNL     1      28.042   7.469  47.771  1.00  0.00     0.043 A 
HETATM   33  C11 UNL     1      26.877   6.910  48.240  1.00  0.00     0.017 A 
ENDBRANCH   9  27
TORSDOF 5
ENDMDL
MODEL 7
REMARK VINA RESULT:      -8.2      4.394      7.542
REMARK  5 active torsions:
REMARK  status: ('A' for Active; 'I' for Inactive)
REMARK    1  A    between atoms: N1_1  and  C1_2 
REMARK    2  A    between atoms: C5_10  and  C6_11 
REMARK    3  A    between atoms: N4_22  and  C16_23 
REMARK    4  A    between atoms: C16_23  and  C17_24 
REMARK    5  A    between atoms: C17_24  and  N5_25 
ROOT
HETATM    1  C1  UNL     1      26.915   7.947  48.689  1.00  0.00     0.343 C 
HETATM    2  C2  UNL     1      25.637   8.475  48.930  1.00  0.00     0.231 C 
HETATM    3  O1  UNL     1      24.395   8.833  49.113  1.00  0.00    -0.349 OA
HETATM    4  P1  UNL     1      23.539   7.313  49.234  1.00  0.00     0.104 P 
HETATM    5  C3  UNL     1      23.422   7.157  50.827  1.00  0.00     0.124 C 
HETATM    6  N2  UNL     1      23.459   6.002  51.360  1.00  0.00    -0.236 NA
HETATM    7  C4  UNL     1      23.061   4.981  50.414  1.00  0.00     0.404 C 
HETATM    8  N3  UNL     1      23.341   3.771  50.071  1.00  0.00    -0.371 NA
HETATM    9  C5  UNL     1      24.360   3.023  50.734  1.00  0.00     0.034 C 
HETATM   10  C12 UNL     1      25.601   3.438  50.632  1.00  0.00     0.031 C 
HETATM   11  C13 UNL     1      26.093   4.571  49.919  1.00  0.00     0.031 C 
HETATM   12  C14 UNL     1      25.705   5.566  49.155  1.00  0.00     0.035 C 
HETATM   13  C15 UNL     1      24.341   5.956  48.636  1.00  0.00     0.070 C 
HETATM   14  N4  UNL     1      26.853   6.443  48.814  1.00  0.00    -0.348 N 
ENDROOT
BRANCH  14  15
HETATM   15  C16 UNL     1      28.054   5.704  48.549  1.00  0.00     0.145 C 
BRANCH  15  16
HETATM   16  C17 UNL     1      29.050   6.262  47.615  1.00  0.00     0.145 C 
BRANCH  16  17
HETATM   17  N5  UNL     1      30.439   5.942  48.029  1.00  0.00    -0.347 N 
HETATM   18  C18 UNL     1      30.979   4.673  47.600  1.00  0.00     0.152 C 
HETATM   19  C19 UNL     1      32.412   4.584  48.076  1.00  0.00     0.188 C 
HETATM   20  O2  UNL     1      33.063   5.807  48.024  1.00  0.00    -0.380 OA
HETATM   21  C20 UNL     1      32.562   6.568  49.080  1.00  0.00     0.270 C 
HETATM   22  C21 UNL     1      31.124   6.922  48.820  1.00  0.00     0.243 C 
HETATM   23  O3  UNL     1      30.611   7.961  49.259  1.00  0.00    -0.271 OA
ENDBRANCH  16  17
ENDBRANCH  15  16
ENDBRANCH  14  15
BRANCH   1  24
HETATM   24  N1  UNL     1      27.879   8.470  49.669  1.00  0.00     0.103 N 
HETATM   25  H1  UNL     1      28.844   8.162  49.471  1.00  0.00     0.315 HD
HETATM   26  H2  UNL     1      27.769   9.498  49.785  1.00  0.00     0.315 HD
ENDBRANCH   1  24
BRANCH   9  27
HETATM   27  C6  UNL     1      23.872   1.862  51.457  1.00  0.00    -0.010 A 
HETATM   28  C7  UNL     1      22.598   1.358  51.301  1.00  0.00     0.017 A 
HETATM   29  C8  UNL     1      22.121   0.261  51.976  1.00  0.00     0.043 A 
HETATM   30  C9  UNL     1      22.920  -0.408  52.870  1.00  0.00     0.116 A 
HETATM   31  F1  UNL     1      22.426  -1.484  53.520  1.00  0.00    -0.206 F 
HETATM   32  C10 UNL     1      24.199   0.048  53.068  1.00  0.00     0.043 A 
HETATM   33  C11 UNL     1      24.624   1.150  52.365  1.00  0.00     0.017 A 
ENDBRANCH   9  27
TORSDOF 5
ENDMDL
MODEL 8
REMARK VINA RESULT:      -8.2      4.133      7.306
REMARK  5 active torsions:
REMARK  status: ('A' for Active; 'I' for Inactive)
REMARK    1  A    between atoms: N1_1  and  C1_2 
REMARK    2  A    between atoms: C5_10  and  C6_11 
REMARK    3  A    between atoms: N4_22  and  C16_23 
REMARK    4  A    between atoms: C16_23  and  C17_24 
REMARK    5  A    between atoms: C17_24  and  N5_25 
ROOT
HETATM    1  C1  UNL     1      20.775   2.548  50.185  1.00  0.00     0.343 C 
HETATM    2  C2  UNL     1      21.563   3.584  49.657  1.00  0.00     0.231 C 
HETATM    3  O1  UNL     1      22.371   4.542  49.294  1.00  0.00    -0.349 OA
HETATM    4  P1  UNL     1      23.738   4.360  50.369  1.00  0.00     0.104 P 
HETATM    5  C3  UNL     1      24.754   3.546  49.432  1.00  0.00     0.124 C 
HETATM    6  N2  UNL     1      25.549   2.692  49.942  1.00  0.00    -0.236 NA
HETATM    7  C4  UNL     1      25.786   2.976  51.341  1.00  0.00     0.404 C 
HETATM    8  N3  UNL     1      25.960   2.375  52.468  1.00  0.00    -0.371 NA
HETATM    9  C5  UNL     1      25.946   0.951  52.566  1.00  0.00     0.034 C 
HETATM   10  C12 UNL     1      24.826   0.321  52.297  1.00  0.00     0.031 C 
HETATM   11  C13 UNL     1      23.574   0.882  51.912  1.00  0.00     0.031 C 
HETATM   12  C14 UNL     1      22.975   2.028  51.683  1.00  0.00     0.035 C 
HETATM   13  C15 UNL     1      23.474   3.451  51.764  1.00  0.00     0.070 C 
HETATM   14  N4  UNL     1      21.579   1.808  51.228  1.00  0.00    -0.348 N 
ENDROOT
BRANCH  14  15
HETATM   15  C16 UNL     1      20.930   0.738  51.931  1.00  0.00     0.145 C 
BRANCH  15  16
HETATM   16  C17 UNL     1      19.731   1.031  52.737  1.00  0.00     0.145 C 
BRANCH  16  17
HETATM   17  N5  UNL     1      18.687  -0.012  52.579  1.00  0.00    -0.347 N 
HETATM   18  C18 UNL     1      18.756  -1.153  53.461  1.00  0.00     0.152 C 
HETATM   19  C19 UNL     1      17.573  -2.049  53.170  1.00  0.00     0.188 C 
HETATM   20  O2  UNL     1      16.431  -1.329  52.855  1.00  0.00    -0.380 OA
HETATM   21  C20 UNL     1      16.615  -0.837  51.564  1.00  0.00     0.270 C 
HETATM   22  C21 UNL     1      17.701   0.205  51.562  1.00  0.00     0.243 C 
HETATM   23  O3  UNL     1      17.714   1.141  50.751  1.00  0.00    -0.271 OA
ENDBRANCH  16  17
ENDBRANCH  15  16
ENDBRANCH  14  15
BRANCH   1  24
HETATM   24  N1  UNL     1      20.388   1.607  49.123  1.00  0.00     0.103 N 
HETATM   25  H1  UNL     1      20.029   2.090  48.283  1.00  0.00     0.315 HD
HETATM   26  H2  UNL     1      21.150   0.925  48.934  1.00  0.00     0.315 HD
ENDBRANCH   1  24
BRANCH   9  27
HETATM   27  C6  UNL     1      27.215   0.369  52.966  1.00  0.00    -0.010 A 
HETATM   28  C7  UNL     1      27.477  -0.983  52.906  1.00  0.00     0.017 A 
HETATM   29  C8  UNL     1      28.670  -1.550  53.279  1.00  0.00     0.043 A 
HETATM   30  C9  UNL     1      29.696  -0.766  53.749  1.00  0.00     0.116 A 
HETATM   31  F1  UNL     1      30.860  -1.349  54.109  1.00  0.00    -0.206 F 
HETATM   32  C10 UNL     1      29.495   0.589  53.832  1.00  0.00     0.043 A 
HETATM   33  C11 UNL     1      28.280   1.101  53.444  1.00  0.00     0.017 A 
ENDBRANCH   9  27
TORSDOF 5
ENDMDL
MODEL 9
REMARK VINA RESULT:      -7.8      4.493      7.443
REMARK  5 active torsions:
REMARK  status: ('A' for Active; 'I' for Inactive)
REMARK    1  A    between atoms: N1_1  and  C1_2 
REMARK    2  A    between atoms: C5_10  and  C6_11 
REMARK    3  A    between atoms: N4_22  and  C16_23 
REMARK    4  A    between atoms: C16_23  and  C17_24 
REMARK    5  A    between atoms: C17_24  and  N5_25 
ROOT
HETATM    1  C1  UNL     1      19.437   3.432  48.692  1.00  0.00     0.343 C 
HETATM    2  C2  UNL     1      20.104   4.665  48.761  1.00  0.00     0.231 C 
HETATM    3  O1  UNL     1      20.757   5.777  48.965  1.00  0.00    -0.349 OA
HETATM    4  P1  UNL     1      21.745   5.425  50.365  1.00  0.00     0.104 P 
HETATM    5  C3  UNL     1      23.146   5.073  49.666  1.00  0.00     0.124 C 
HETATM    6  N2  UNL     1      23.915   4.200  50.183  1.00  0.00    -0.236 NA
HETATM    7  C4  UNL     1      23.656   4.053  51.599  1.00  0.00     0.404 C 
HETATM    8  N3  UNL     1      23.609   3.152  52.519  1.00  0.00    -0.371 NA
HETATM    9  C5  UNL     1      23.874   1.779  52.234  1.00  0.00     0.034 C 
HETATM   10  C12 UNL     1      23.049   1.140  51.437  1.00  0.00     0.031 C 
HETATM   11  C13 UNL     1      21.880   1.643  50.796  1.00  0.00     0.031 C 
HETATM   12  C14 UNL     1      21.145   2.726  50.677  1.00  0.00     0.035 C 
HETATM   13  C15 UNL     1      21.278   4.098  51.293  1.00  0.00     0.070 C 
HETATM   14  N4  UNL     1      20.030   2.499  49.722  1.00  0.00    -0.348 N 
ENDROOT
BRANCH  14  15
HETATM   15  C16 UNL     1      19.448   1.195  49.851  1.00  0.00     0.145 C 
BRANCH  15  16
HETATM   16  C17 UNL     1      18.038   1.075  50.268  1.00  0.00     0.145 C 
BRANCH  16  17
HETATM   17  N5  UNL     1      17.859   0.059  51.334  1.00  0.00    -0.347 N 
HETATM   18  C18 UNL     1      18.939  -0.100  52.281  1.00  0.00     0.152 C 
HETATM   19  C19 UNL     1      18.521  -1.132  53.305  1.00  0.00     0.188 C 
HETATM   20  O2  UNL     1      17.172  -1.056  53.612  1.00  0.00    -0.380 OA
HETATM   21  C20 UNL     1      16.486  -1.587  52.521  1.00  0.00     0.270 C 
HETATM   22  C21 UNL     1      16.630  -0.678  51.332  1.00  0.00     0.243 C 
HETATM   23  O3  UNL     1      15.758  -0.595  50.455  1.00  0.00    -0.271 OA
ENDBRANCH  16  17
ENDBRANCH  15  16
ENDBRANCH  14  15
BRANCH   1  24
HETATM   24  N1  UNL     1      19.598   2.836  47.357  1.00  0.00     0.103 N 
HETATM   25  H1  UNL     1      19.666   1.806  47.394  1.00  0.00     0.315 HD
HETATM   26  H2  UNL     1      18.877   3.197  46.700  1.00  0.00     0.315 HD
ENDBRANCH   1  24
BRANCH   9  27
HETATM   27  C6  UNL     1      25.058   1.252  52.888  1.00  0.00    -0.010 A 
HETATM   28  C7  UNL     1      25.991   2.051  53.516  1.00  0.00     0.017 A 
HETATM   29  C8  UNL     1      27.116   1.570  54.139  1.00  0.00     0.043 A 
HETATM   30  C9  UNL     1      27.374   0.221  54.165  1.00  0.00     0.116 A 
HETATM   31  F1  UNL     1      28.488  -0.226  54.786  1.00  0.00    -0.206 F 
HETATM   32  C10 UNL     1      26.482  -0.625  53.557  1.00  0.00     0.043 A 
HETATM   33  C11 UNL     1      25.372  -0.088  52.949  1.00  0.00     0.017 A 
ENDBRANCH   9  27
TORSDOF 5
ENDMDL
