MODEL 1
REMARK VINA RESULT:      -6.5      0.000      0.000
REMARK  10 active torsions:
REMARK  status: ('A' for Active; 'I' for Inactive)
REMARK    1  A    between atoms: N1_1  and  C1_2 
REMARK    2  A    between atoms: C2_3  and  C3_4 
REMARK    3  A    between atoms: C3_4  and  N2_5 
REMARK    4  A    between atoms: C3_4  and  O1_15 
REMARK    5  A    between atoms: C3_4  and  C12_17 
REMARK    6  A    between atoms: N2_5  and  C4_6 
REMARK    7  A    between atoms: C4_6  and  C5_7 
REMARK    8  A    between atoms: C5_7  and  C6_8 
REMARK    9  A    between atoms: C12_17  and  N3_18 
REMARK   10  A    between atoms: C12_17  and  C13_19 
ROOT
HETATM    1  C3  UNL     1      26.779   0.461  53.623  1.00  0.00     0.344 C 
ENDROOT
BRANCH   1   2
HETATM    2  C2  UNL     1      28.217   0.169  53.978  1.00  0.00     0.066 C 
HETATM    3  C1  UNL     1      28.815  -0.918  53.518  1.00  0.00     0.081 C 
BRANCH   3   4
HETATM    4  N1  UNL     1      30.163  -1.281  53.796  1.00  0.00    -0.408 N 
HETATM    5  H1  UNL     1      30.732  -1.629  52.970  1.00  0.00     0.155 HD
HETATM    6  H2  UNL     1      30.489  -1.176  54.786  1.00  0.00     0.155 HD
ENDBRANCH   3   4
ENDBRANCH   1   2
BRANCH   1   7
HETATM    7  N2  UNL     1      26.005  -0.020  54.708  1.00  0.00     0.128 N 
HETATM    8  H5  UNL     1      25.581   0.706  55.299  1.00  0.00     0.320 HD
BRANCH   7   9
HETATM    9  C4  UNL     1      25.121  -1.060  54.344  1.00  0.00     0.278 C 
BRANCH   9  10
HETATM   10  C5  UNL     1      23.807  -1.027  55.109  1.00  0.00     0.068 C 
BRANCH  10  11
HETATM   11  C6  UNL     1      22.674  -0.635  54.244  1.00  0.00    -0.056 A 
HETATM   12  C7  UNL     1      22.834  -0.406  52.881  1.00  0.00     0.009 A 
HETATM   13  C8  UNL     1      21.805  -0.035  52.027  1.00  0.00     0.024 A 
HETATM   14  C9  UNL     1      20.561   0.109  52.581  1.00  0.00     0.034 A 
HETATM   15 CL1  UNL     1      19.264   0.577  51.497  1.00  0.00    -0.084 Cl
HETATM   16  C10 UNL     1      20.317  -0.102  53.935  1.00  0.00     0.024 A 
HETATM   17  C11 UNL     1      21.387  -0.473  54.757  1.00  0.00     0.009 A 
ENDBRANCH  10  11
ENDBRANCH   9  10
ENDBRANCH   7   9
ENDBRANCH   1   7
BRANCH   1  18
HETATM   18  O1  UNL     1      26.453  -0.231  52.440  1.00  0.00    -0.148 OA
HETATM   19  F1  UNL     1      26.679   0.458  51.358  1.00  0.00    -0.045 F 
ENDBRANCH   1  18
BRANCH   1  20
HETATM   20  C12 UNL     1      26.726   1.914  53.311  1.00  0.00     0.298 C 
BRANCH  20  21
HETATM   21  N3  UNL     1      27.725   2.746  53.882  1.00  0.00     0.088 N 
HETATM   22  H15 UNL     1      28.597   2.847  53.319  1.00  0.00     0.313 HD
HETATM   23  H16 UNL     1      27.377   3.653  54.256  1.00  0.00     0.313 HD
ENDBRANCH  20  21
BRANCH  20  24
HETATM   24  C13 UNL     1      25.366   2.479  53.654  1.00  0.00     0.069 C 
HETATM   25  C14 UNL     1      24.544   2.722  52.617  1.00  0.00     0.421 C 
HETATM   26  F2  UNL     1      24.220   2.744  51.283  1.00  0.00    -0.455 F 
ENDBRANCH  20  24
ENDBRANCH   1  20
TORSDOF 10
ENDMDL
MODEL 2
REMARK VINA RESULT:      -6.4      2.141      3.933
REMARK  10 active torsions:
REMARK  status: ('A' for Active; 'I' for Inactive)
REMARK    1  A    between atoms: N1_1  and  C1_2 
REMARK    2  A    between atoms: C2_3  and  C3_4 
REMARK    3  A    between atoms: C3_4  and  N2_5 
REMARK    4  A    between atoms: C3_4  and  O1_15 
REMARK    5  A    between atoms: C3_4  and  C12_17 
REMARK    6  A    between atoms: N2_5  and  C4_6 
REMARK    7  A    between atoms: C4_6  and  C5_7 
REMARK    8  A    between atoms: C5_7  and  C6_8 
REMARK    9  A    between atoms: C12_17  and  N3_18 
REMARK   10  A    between atoms: C12_17  and  C13_19 
ROOT
HETATM    1  C3  UNL     1      27.232   0.659  53.890  1.00  0.00     0.344 C 
ENDROOT
BRANCH   1   2
HETATM    2  C2  UNL     1      26.395  -0.525  54.313  1.00  0.00     0.066 C 
HETATM    3  C1  UNL     1      25.631  -0.457  55.390  1.00  0.00     0.081 C 
BRANCH   3   4
HETATM    4  N1  UNL     1      24.809  -1.516  55.869  1.00  0.00    -0.408 N 
HETATM    5  H1  UNL     1      25.317  -2.381  56.216  1.00  0.00     0.155 HD
HETATM    6  H2  UNL     1      23.773  -1.362  55.843  1.00  0.00     0.155 HD
ENDBRANCH   3   4
ENDBRANCH   1   2
BRANCH   1   7
HETATM    7  N2  UNL     1      26.511   1.809  54.296  1.00  0.00     0.128 N 
HETATM    8  H5  UNL     1      26.968   2.380  55.017  1.00  0.00     0.320 HD
BRANCH   7   9
HETATM    9  C4  UNL     1      25.991   2.552  53.212  1.00  0.00     0.278 C 
BRANCH   9  10
HETATM   10  C5  UNL     1      24.511   2.870  53.358  1.00  0.00     0.068 C 
BRANCH  10  11
HETATM   11  C6  UNL     1      23.725   2.384  52.204  1.00  0.00    -0.056 A 
HETATM   12  C7  UNL     1      23.880   2.922  50.930  1.00  0.00     0.009 A 
HETATM   13  C8  UNL     1      23.167   2.501  49.815  1.00  0.00     0.024 A 
HETATM   14  C9  UNL     1      22.260   1.494  50.003  1.00  0.00     0.034 A 
HETATM   15 CL1  UNL     1      21.362   0.966  48.591  1.00  0.00    -0.084 Cl
HETATM   16  C10 UNL     1      22.045   0.902  51.245  1.00  0.00     0.024 A 
HETATM   17  C11 UNL     1      22.788   1.361  52.340  1.00  0.00     0.009 A 
ENDBRANCH  10  11
ENDBRANCH   9  10
ENDBRANCH   7   9
ENDBRANCH   1   7
BRANCH   1  18
HETATM   18  O1  UNL     1      27.375   0.636  52.489  1.00  0.00    -0.148 OA
HETATM   19  F1  UNL     1      26.634  -0.265  51.908  1.00  0.00    -0.045 F 
ENDBRANCH   1  18
BRANCH   1  20
HETATM   20  C12 UNL     1      28.580   0.432  54.474  1.00  0.00     0.298 C 
BRANCH  20  21
HETATM   21  N3  UNL     1      29.174   1.504  55.192  1.00  0.00     0.088 N 
HETATM   22  H15 UNL     1      28.613   2.383  55.225  1.00  0.00     0.313 HD
HETATM   23  H16 UNL     1      29.571   1.242  56.118  1.00  0.00     0.313 HD
ENDBRANCH  20  21
BRANCH  20  24
HETATM   24  C13 UNL     1      29.546  -0.038  53.411  1.00  0.00     0.069 C 
HETATM   25  C14 UNL     1      29.730  -1.367  53.318  1.00  0.00     0.421 C 
HETATM   26  F2  UNL     1      29.504  -2.669  53.691  1.00  0.00    -0.455 F 
ENDBRANCH  20  24
ENDBRANCH   1  20
TORSDOF 10
ENDMDL
MODEL 3
REMARK VINA RESULT:      -6.3      2.184      3.363
REMARK  10 active torsions:
REMARK  status: ('A' for Active; 'I' for Inactive)
REMARK    1  A    between atoms: N1_1  and  C1_2 
REMARK    2  A    between atoms: C2_3  and  C3_4 
REMARK    3  A    between atoms: C3_4  and  N2_5 
REMARK    4  A    between atoms: C3_4  and  O1_15 
REMARK    5  A    between atoms: C3_4  and  C12_17 
REMARK    6  A    between atoms: N2_5  and  C4_6 
REMARK    7  A    between atoms: C4_6  and  C5_7 
REMARK    8  A    between atoms: C5_7  and  C6_8 
REMARK    9  A    between atoms: C12_17  and  N3_18 
REMARK   10  A    between atoms: C12_17  and  C13_19 
ROOT
HETATM    1  C3  UNL     1      26.030   0.359  52.925  1.00  0.00     0.344 C 
ENDROOT
BRANCH   1   2
HETATM    2  C2  UNL     1      25.229  -0.540  53.837  1.00  0.00     0.066 C 
HETATM    3  C1  UNL     1      25.544  -0.652  55.116  1.00  0.00     0.081 C 
BRANCH   3   4
HETATM    4  N1  UNL     1      24.852  -1.471  56.053  1.00  0.00    -0.408 N 
HETATM    5  H1  UNL     1      23.809  -1.583  55.894  1.00  0.00     0.155 HD
HETATM    6  H2  UNL     1      25.422  -1.898  56.822  1.00  0.00     0.155 HD
ENDBRANCH   3   4
ENDBRANCH   1   2
BRANCH   1   7
HETATM    7  N2  UNL     1      25.082   1.111  52.189  1.00  0.00     0.128 N 
HETATM    8  H5  UNL     1      25.173   1.051  51.168  1.00  0.00     0.320 HD
BRANCH   7   9
HETATM    9  C4  UNL     1      23.760   0.960  52.664  1.00  0.00     0.278 C 
BRANCH   9  10
HETATM   10  C5  UNL     1      22.709   1.112  51.575  1.00  0.00     0.068 C 
BRANCH  10  11
HETATM   11  C6  UNL     1      21.408   0.539  51.979  1.00  0.00    -0.056 A 
HETATM   12  C7  UNL     1      21.237  -0.112  53.197  1.00  0.00     0.009 A 
HETATM   13  C8  UNL     1      20.038  -0.667  53.621  1.00  0.00     0.024 A 
HETATM   14  C9  UNL     1      18.969  -0.557  52.774  1.00  0.00     0.034 A 
HETATM   15 CL1  UNL     1      17.456  -1.260  53.316  1.00  0.00    -0.084 Cl
HETATM   16  C10 UNL     1      19.056   0.079  51.538  1.00  0.00     0.024 A 
HETATM   17  C11 UNL     1      20.287   0.622  51.153  1.00  0.00     0.009 A 
ENDBRANCH  10  11
ENDBRANCH   9  10
ENDBRANCH   7   9
ENDBRANCH   1   7
BRANCH   1  18
HETATM   18  O1  UNL     1      26.801  -0.443  52.061  1.00  0.00    -0.148 OA
HETATM   19  F1  UNL     1      26.508  -1.710  52.133  1.00  0.00    -0.045 F 
ENDBRANCH   1  18
BRANCH   1  20
HETATM   20  C12 UNL     1      26.977   1.091  53.808  1.00  0.00     0.298 C 
BRANCH  20  21
HETATM   21  N3  UNL     1      26.865   2.506  53.860  1.00  0.00     0.088 N 
HETATM   22  H15 UNL     1      27.745   3.014  54.096  1.00  0.00     0.313 HD
HETATM   23  H16 UNL     1      26.353   2.933  53.061  1.00  0.00     0.313 HD
ENDBRANCH  20  21
BRANCH  20  24
HETATM   24  C13 UNL     1      28.404   0.726  53.472  1.00  0.00     0.069 C 
HETATM   25  C14 UNL     1      29.363   1.416  54.115  1.00  0.00     0.421 C 
HETATM   26  F2  UNL     1      29.811   2.366  55.000  1.00  0.00    -0.455 F 
ENDBRANCH  20  24
ENDBRANCH   1  20
TORSDOF 10
ENDMDL
MODEL 4
REMARK VINA RESULT:      -6.3      3.858      5.811
REMARK  10 active torsions:
REMARK  status: ('A' for Active; 'I' for Inactive)
REMARK    1  A    between atoms: N1_1  and  C1_2 
REMARK    2  A    between atoms: C2_3  and  C3_4 
REMARK    3  A    between atoms: C3_4  and  N2_5 
REMARK    4  A    between atoms: C3_4  and  O1_15 
REMARK    5  A    between atoms: C3_4  and  C12_17 
REMARK    6  A    between atoms: N2_5  and  C4_6 
REMARK    7  A    between atoms: C4_6  and  C5_7 
REMARK    8  A    between atoms: C5_7  and  C6_8 
REMARK    9  A    between atoms: C12_17  and  N3_18 
REMARK   10  A    between atoms: C12_17  and  C13_19 
ROOT
HETATM    1  C3  UNL     1      22.932   2.288  52.146  1.00  0.00     0.344 C 
ENDROOT
BRANCH   1   2
HETATM    2  C2  UNL     1      22.910   1.589  50.807  1.00  0.00     0.066 C 
HETATM    3  C1  UNL     1      21.911   1.787  49.963  1.00  0.00     0.081 C 
BRANCH   3   4
HETATM    4  N1  UNL     1      21.799   1.176  48.682  1.00  0.00    -0.408 N 
HETATM    5  H1  UNL     1      22.653   0.645  48.342  1.00  0.00     0.155 HD
HETATM    6  H2  UNL     1      20.889   1.296  48.177  1.00  0.00     0.155 HD
ENDBRANCH   3   4
ENDBRANCH   1   2
BRANCH   1   7
HETATM    7  N2  UNL     1      22.653   1.289  53.111  1.00  0.00     0.128 N 
HETATM    8  H5  UNL     1      21.661   1.179  53.353  1.00  0.00     0.320 HD
BRANCH   7   9
HETATM    9  C4  UNL     1      23.328   0.072  52.866  1.00  0.00     0.278 C 
BRANCH   9  10
HETATM   10  C5  UNL     1      24.042  -0.477  54.091  1.00  0.00     0.068 C 
BRANCH  10  11
HETATM   11  C6  UNL     1      25.511  -0.457  53.930  1.00  0.00    -0.056 A 
HETATM   12  C7  UNL     1      26.344   0.163  54.855  1.00  0.00     0.009 A 
HETATM   13  C8  UNL     1      27.727   0.210  54.749  1.00  0.00     0.024 A 
HETATM   14  C9  UNL     1      28.286  -0.397  53.657  1.00  0.00     0.034 A 
HETATM   15 CL1  UNL     1      30.035  -0.335  53.528  1.00  0.00    -0.084 Cl
HETATM   16  C10 UNL     1      27.523  -1.040  52.686  1.00  0.00     0.024 A 
HETATM   17  C11 UNL     1      26.132  -1.060  52.836  1.00  0.00     0.009 A 
ENDBRANCH  10  11
ENDBRANCH   9  10
ENDBRANCH   7   9
ENDBRANCH   1   7
BRANCH   1  18
HETATM   18  O1  UNL     1      21.931   3.278  52.158  1.00  0.00    -0.148 OA
HETATM   19  F1  UNL     1      20.875   2.937  52.840  1.00  0.00    -0.045 F 
ENDBRANCH   1  18
BRANCH   1  20
HETATM   20  C12 UNL     1      24.243   2.986  52.216  1.00  0.00     0.298 C 
BRANCH  20  21
HETATM   21  N3  UNL     1      24.238   4.403  52.126  1.00  0.00     0.088 N 
HETATM   22  H15 UNL     1      25.149   4.836  51.858  1.00  0.00     0.313 HD
HETATM   23  H16 UNL     1      23.431   4.805  51.607  1.00  0.00     0.313 HD
ENDBRANCH  20  21
BRANCH  20  24
HETATM   24  C13 UNL     1      25.194   2.434  51.178  1.00  0.00     0.069 C 
HETATM   25  C14 UNL     1      26.493   2.389  51.524  1.00  0.00     0.421 C 
HETATM   26  F2  UNL     1      27.543   2.585  52.386  1.00  0.00    -0.455 F 
ENDBRANCH  20  24
ENDBRANCH   1  20
TORSDOF 10
ENDMDL
MODEL 5
REMARK VINA RESULT:      -6.3      2.164      3.686
REMARK  10 active torsions:
REMARK  status: ('A' for Active; 'I' for Inactive)
REMARK    1  A    between atoms: N1_1  and  C1_2 
REMARK    2  A    between atoms: C2_3  and  C3_4 
REMARK    3  A    between atoms: C3_4  and  N2_5 
REMARK    4  A    between atoms: C3_4  and  O1_15 
REMARK    5  A    between atoms: C3_4  and  C12_17 
REMARK    6  A    between atoms: N2_5  and  C4_6 
REMARK    7  A    between atoms: C4_6  and  C5_7 
REMARK    8  A    between atoms: C5_7  and  C6_8 
REMARK    9  A    between atoms: C12_17  and  N3_18 
REMARK   10  A    between atoms: C12_17  and  C13_19 
ROOT
HETATM    1  C3  UNL     1      26.884   1.133  53.324  1.00  0.00     0.344 C 
ENDROOT
BRANCH   1   2
HETATM    2  C2  UNL     1      27.243   2.317  52.459  1.00  0.00     0.066 C 
HETATM    3  C1  UNL     1      26.585   2.553  51.337  1.00  0.00     0.081 C 
BRANCH   3   4
HETATM    4  N1  UNL     1      26.848   3.641  50.456  1.00  0.00    -0.408 N 
HETATM    5  H1  UNL     1      27.550   3.455  49.682  1.00  0.00     0.155 HD
HETATM    6  H2  UNL     1      26.331   4.535  50.638  1.00  0.00     0.155 HD
ENDBRANCH   3   4
ENDBRANCH   1   2
BRANCH   1   7
HETATM    7  N2  UNL     1      26.012   0.332  52.545  1.00  0.00     0.128 N 
HETATM    8  H5  UNL     1      26.445  -0.494  52.113  1.00  0.00     0.320 HD
BRANCH   7   9
HETATM    9  C4  UNL     1      24.776   0.074  53.179  1.00  0.00     0.278 C 
BRANCH   9  10
HETATM   10  C5  UNL     1      23.615   0.841  52.565  1.00  0.00     0.068 C 
BRANCH  10  11
HETATM   11  C6  UNL     1      22.314   0.206  52.865  1.00  0.00    -0.056 A 
HETATM   12  C7  UNL     1      21.162   0.515  52.149  1.00  0.00     0.009 A 
HETATM   13  C8  UNL     1      19.919  -0.052  52.391  1.00  0.00     0.024 A 
HETATM   14  C9  UNL     1      19.843  -0.971  53.403  1.00  0.00     0.034 A 
HETATM   15 CL1  UNL     1      18.269  -1.684  53.704  1.00  0.00    -0.084 Cl
HETATM   16  C10 UNL     1      20.948  -1.336  54.166  1.00  0.00     0.024 A 
HETATM   17  C11 UNL     1      22.181  -0.736  53.885  1.00  0.00     0.009 A 
ENDBRANCH  10  11
ENDBRANCH   9  10
ENDBRANCH   7   9
ENDBRANCH   1   7
BRANCH   1  18
HETATM   18  O1  UNL     1      26.225   1.597  54.479  1.00  0.00    -0.148 OA
HETATM   19  F1  UNL     1      25.730   2.795  54.346  1.00  0.00    -0.045 F 
ENDBRANCH   1  18
BRANCH   1  20
HETATM   20  C12 UNL     1      28.177   0.543  53.761  1.00  0.00     0.298 C 
BRANCH  20  21
HETATM   21  N3  UNL     1      29.358   1.292  53.514  1.00  0.00     0.088 N 
HETATM   22  H15 UNL     1      30.143   1.118  54.177  1.00  0.00     0.313 HD
HETATM   23  H16 UNL     1      29.663   1.309  52.519  1.00  0.00     0.313 HD
ENDBRANCH  20  21
BRANCH  20  24
HETATM   24  C13 UNL     1      28.348  -0.844  53.185  1.00  0.00     0.069 C 
HETATM   25  C14 UNL     1      29.494  -1.478  53.491  1.00  0.00     0.421 C 
HETATM   26  F2  UNL     1      30.721  -1.576  54.099  1.00  0.00    -0.455 F 
ENDBRANCH  20  24
ENDBRANCH   1  20
TORSDOF 10
ENDMDL
MODEL 6
REMARK VINA RESULT:      -6.3      4.317      6.475
REMARK  10 active torsions:
REMARK  status: ('A' for Active; 'I' for Inactive)
REMARK    1  A    between atoms: N1_1  and  C1_2 
REMARK    2  A    between atoms: C2_3  and  C3_4 
REMARK    3  A    between atoms: C3_4  and  N2_5 
REMARK    4  A    between atoms: C3_4  and  O1_15 
REMARK    5  A    between atoms: C3_4  and  C12_17 
REMARK    6  A    between atoms: N2_5  and  C4_6 
REMARK    7  A    between atoms: C4_6  and  C5_7 
REMARK    8  A    between atoms: C5_7  and  C6_8 
REMARK    9  A    between atoms: C12_17  and  N3_18 
REMARK   10  A    between atoms: C12_17  and  C13_19 
ROOT
HETATM    1  C3  UNL     1      26.334   1.868  53.002  1.00  0.00     0.344 C 
ENDROOT
BRANCH   1   2
HETATM    2  C2  UNL     1      27.584   1.607  53.809  1.00  0.00     0.066 C 
HETATM    3  C1  UNL     1      28.589   2.466  53.786  1.00  0.00     0.081 C 
BRANCH   3   4
HETATM    4  N1  UNL     1      29.806   2.309  54.510  1.00  0.00    -0.408 N 
HETATM    5  H1  UNL     1      30.350   1.418  54.321  1.00  0.00     0.155 HD
HETATM    6  H2  UNL     1      30.069   3.082  55.168  1.00  0.00     0.155 HD
ENDBRANCH   3   4
ENDBRANCH   1   2
BRANCH   1   7
HETATM    7  N2  UNL     1      26.704   2.801  52.003  1.00  0.00     0.128 N 
HETATM    8  H5  UNL     1      27.614   3.257  52.144  1.00  0.00     0.320 HD
BRANCH   7   9
HETATM    9  C4  UNL     1      26.492   2.325  50.689  1.00  0.00     0.278 C 
BRANCH   9  10
HETATM   10  C5  UNL     1      25.463   3.134  49.915  1.00  0.00     0.068 C 
BRANCH  10  11
HETATM   11  C6  UNL     1      26.051   4.354  49.324  1.00  0.00    -0.056 A 
HETATM   12  C7  UNL     1      27.389   4.417  48.946  1.00  0.00     0.009 A 
HETATM   13  C8  UNL     1      27.988   5.537  48.388  1.00  0.00     0.024 A 
HETATM   14  C9  UNL     1      27.196   6.639  48.206  1.00  0.00     0.034 A 
HETATM   15 CL1  UNL     1      27.959   8.052  47.499  1.00  0.00    -0.084 Cl
HETATM   16  C10 UNL     1      25.849   6.658  48.556  1.00  0.00     0.024 A 
HETATM   17  C11 UNL     1      25.289   5.504  49.117  1.00  0.00     0.009 A 
ENDBRANCH  10  11
ENDBRANCH   9  10
ENDBRANCH   7   9
ENDBRANCH   1   7
BRANCH   1  18
HETATM   18  O1  UNL     1      25.353   2.417  53.850  1.00  0.00    -0.148 OA
HETATM   19  F1  UNL     1      24.638   3.344  53.280  1.00  0.00    -0.045 F 
ENDBRANCH   1  18
BRANCH   1  20
HETATM   20  C12 UNL     1      25.845   0.532  52.570  1.00  0.00     0.298 C 
BRANCH  20  21
HETATM   21  N3  UNL     1      24.447   0.293  52.632  1.00  0.00     0.088 N 
HETATM   22  H15 UNL     1      23.850   1.020  52.182  1.00  0.00     0.313 HD
HETATM   23  H16 UNL     1      24.158  -0.677  52.387  1.00  0.00     0.313 HD
ENDBRANCH  20  21
BRANCH  20  24
HETATM   24  C13 UNL     1      26.562  -0.564  53.324  1.00  0.00     0.069 C 
HETATM   25  C14 UNL     1      26.696  -1.739  52.682  1.00  0.00     0.421 C 
HETATM   26  F2  UNL     1      26.526  -2.582  51.612  1.00  0.00    -0.455 F 
ENDBRANCH  20  24
ENDBRANCH   1  20
TORSDOF 10
ENDMDL
MODEL 7
REMARK VINA RESULT:      -6.3      2.281      3.629
REMARK  10 active torsions:
REMARK  status: ('A' for Active; 'I' for Inactive)
REMARK    1  A    between atoms: N1_1  and  C1_2 
REMARK    2  A    between atoms: C2_3  and  C3_4 
REMARK    3  A    between atoms: C3_4  and  N2_5 
REMARK    4  A    between atoms: C3_4  and  O1_15 
REMARK    5  A    between atoms: C3_4  and  C12_17 
REMARK    6  A    between atoms: N2_5  and  C4_6 
REMARK    7  A    between atoms: C4_6  and  C5_7 
REMARK    8  A    between atoms: C5_7  and  C6_8 
REMARK    9  A    between atoms: C12_17  and  N3_18 
REMARK   10  A    between atoms: C12_17  and  C13_19 
ROOT
HETATM    1  C3  UNL     1      26.914   0.309  53.650  1.00  0.00     0.344 C 
ENDROOT
BRANCH   1   2
HETATM    2  C2  UNL     1      27.734  -0.948  53.816  1.00  0.00     0.066 C 
HETATM    3  C1  UNL     1      27.697  -1.900  52.899  1.00  0.00     0.081 C 
BRANCH   3   4
HETATM    4  N1  UNL     1      28.431  -3.118  52.965  1.00  0.00    -0.408 N 
HETATM    5  H1  UNL     1      27.868  -3.991  53.186  1.00  0.00     0.155 HD
HETATM    6  H2  UNL     1      29.463  -3.061  52.790  1.00  0.00     0.155 HD
ENDBRANCH   3   4
ENDBRANCH   1   2
BRANCH   1   7
HETATM    7  N2  UNL     1      26.935   0.607  52.265  1.00  0.00     0.128 N 
HETATM    8  H5  UNL     1      26.200   0.155  51.709  1.00  0.00     0.320 HD
BRANCH   7   9
HETATM    9  C4  UNL     1      27.103   1.984  51.993  1.00  0.00     0.278 C 
BRANCH   9  10
HETATM   10  C5  UNL     1      26.236   2.480  50.847  1.00  0.00     0.068 C 
BRANCH  10  11
HETATM   11  C6  UNL     1      24.825   2.644  51.253  1.00  0.00    -0.056 A 
HETATM   12  C7  UNL     1      23.775   2.158  50.480  1.00  0.00     0.009 A 
HETATM   13  C8  UNL     1      22.435   2.286  50.817  1.00  0.00     0.024 A 
HETATM   14  C9  UNL     1      22.149   2.935  51.988  1.00  0.00     0.034 A 
HETATM   15 CL1  UNL     1      20.453   3.094  52.409  1.00  0.00    -0.084 Cl
HETATM   16  C10 UNL     1      23.140   3.449  52.819  1.00  0.00     0.024 A 
HETATM   17  C11 UNL     1      24.478   3.296  52.436  1.00  0.00     0.009 A 
ENDBRANCH  10  11
ENDBRANCH   9  10
ENDBRANCH   7   9
ENDBRANCH   1   7
BRANCH   1  18
HETATM   18  O1  UNL     1      27.520   1.346  54.386  1.00  0.00    -0.148 OA
HETATM   19  F1  UNL     1      28.681   1.021  54.879  1.00  0.00    -0.045 F 
ENDBRANCH   1  18
BRANCH   1  20
HETATM   20  C12 UNL     1      25.601   0.025  54.288  1.00  0.00     0.298 C 
BRANCH  20  21
HETATM   21  N3  UNL     1      25.594  -0.826  55.425  1.00  0.00     0.088 N 
HETATM   22  H15 UNL     1      26.529  -1.174  55.727  1.00  0.00     0.313 HD
HETATM   23  H16 UNL     1      25.012  -0.487  56.219  1.00  0.00     0.313 HD
ENDBRANCH  20  21
BRANCH  20  24
HETATM   24  C13 UNL     1      24.623  -0.514  53.269  1.00  0.00     0.069 C 
HETATM   25  C14 UNL     1      23.327  -0.221  53.475  1.00  0.00     0.421 C 
HETATM   26  F2  UNL     1      22.291   0.354  54.169  1.00  0.00    -0.455 F 
ENDBRANCH  20  24
ENDBRANCH   1  20
TORSDOF 10
ENDMDL
MODEL 8
REMARK VINA RESULT:      -6.2      4.473      6.888
REMARK  10 active torsions:
REMARK  status: ('A' for Active; 'I' for Inactive)
REMARK    1  A    between atoms: N1_1  and  C1_2 
REMARK    2  A    between atoms: C2_3  and  C3_4 
REMARK    3  A    between atoms: C3_4  and  N2_5 
REMARK    4  A    between atoms: C3_4  and  O1_15 
REMARK    5  A    between atoms: C3_4  and  C12_17 
REMARK    6  A    between atoms: N2_5  and  C4_6 
REMARK    7  A    between atoms: C4_6  and  C5_7 
REMARK    8  A    between atoms: C5_7  and  C6_8 
REMARK    9  A    between atoms: C12_17  and  N3_18 
REMARK   10  A    between atoms: C12_17  and  C13_19 
ROOT
HETATM    1  C3  UNL     1      26.418   1.322  52.596  1.00  0.00     0.344 C 
ENDROOT
BRANCH   1   2
HETATM    2  C2  UNL     1      25.028   1.491  53.160  1.00  0.00     0.066 C 
HETATM    3  C1  UNL     1      24.036   0.721  52.744  1.00  0.00     0.081 C 
BRANCH   3   4
HETATM    4  N1  UNL     1      22.694   0.803  53.213  1.00  0.00    -0.408 N 
HETATM    5  H1  UNL     1      21.980   0.220  52.688  1.00  0.00     0.155 HD
HETATM    6  H2  UNL     1      22.517   1.428  54.035  1.00  0.00     0.155 HD
ENDBRANCH   3   4
ENDBRANCH   1   2
BRANCH   1   7
HETATM    7  N2  UNL     1      26.749   2.563  51.998  1.00  0.00     0.128 N 
HETATM    8  H5  UNL     1      27.646   2.967  52.295  1.00  0.00     0.320 HD
BRANCH   7   9
HETATM    9  C4  UNL     1      26.539   2.581  50.601  1.00  0.00     0.278 C 
BRANCH   9  10
HETATM   10  C5  UNL     1      25.565   3.661  50.154  1.00  0.00     0.068 C 
BRANCH  10  11
HETATM   11  C6  UNL     1      26.238   4.728  49.385  1.00  0.00    -0.056 A 
HETATM   12  C7  UNL     1      27.563   4.616  48.976  1.00  0.00     0.009 A 
HETATM   13  C8  UNL     1      28.240   5.589  48.254  1.00  0.00     0.024 A 
HETATM   14  C9  UNL     1      27.542   6.722  47.934  1.00  0.00     0.034 A 
HETATM   15 CL1  UNL     1      28.402   7.948  47.020  1.00  0.00    -0.084 Cl
HETATM   16  C10 UNL     1      26.213   6.912  48.304  1.00  0.00     0.024 A 
HETATM   17  C11 UNL     1      25.573   5.903  49.033  1.00  0.00     0.009 A 
ENDBRANCH  10  11
ENDBRANCH   9  10
ENDBRANCH   7   9
ENDBRANCH   1   7
BRANCH   1  18
HETATM   18  O1  UNL     1      26.395   0.299  51.628  1.00  0.00    -0.148 OA
HETATM   19  F1  UNL     1      26.874  -0.833  52.060  1.00  0.00    -0.045 F 
ENDBRANCH   1  18
BRANCH   1  20
HETATM   20  C12 UNL     1      27.258   0.840  53.725  1.00  0.00     0.298 C 
BRANCH  20  21
HETATM   21  N3  UNL     1      26.798   1.100  55.044  1.00  0.00     0.088 N 
HETATM   22  H15 UNL     1      27.099   0.409  55.765  1.00  0.00     0.313 HD
HETATM   23  H16 UNL     1      26.906   2.086  55.358  1.00  0.00     0.313 HD
ENDBRANCH  20  21
BRANCH  20  24
HETATM   24  C13 UNL     1      28.672   1.357  53.591  1.00  0.00     0.069 C 
HETATM   25  C14 UNL     1      29.650   0.435  53.638  1.00  0.00     0.421 C 
HETATM   26  F2  UNL     1      30.126  -0.848  53.751  1.00  0.00    -0.455 F 
ENDBRANCH  20  24
ENDBRANCH   1  20
TORSDOF 10
ENDMDL
MODEL 9
REMARK VINA RESULT:      -6.2      1.742      3.693
REMARK  10 active torsions:
REMARK  status: ('A' for Active; 'I' for Inactive)
REMARK    1  A    between atoms: N1_1  and  C1_2 
REMARK    2  A    between atoms: C2_3  and  C3_4 
REMARK    3  A    between atoms: C3_4  and  N2_5 
REMARK    4  A    between atoms: C3_4  and  O1_15 
REMARK    5  A    between atoms: C3_4  and  C12_17 
REMARK    6  A    between atoms: N2_5  and  C4_6 
REMARK    7  A    between atoms: C4_6  and  C5_7 
REMARK    8  A    between atoms: C5_7  and  C6_8 
REMARK    9  A    between atoms: C12_17  and  N3_18 
REMARK   10  A    between atoms: C12_17  and  C13_19 
ROOT
HETATM    1  C3  UNL     1      26.969   0.825  53.631  1.00  0.00     0.344 C 
ENDROOT
BRANCH   1   2
HETATM    2  C2  UNL     1      26.211   0.340  54.843  1.00  0.00     0.066 C 
HETATM    3  C1  UNL     1      25.577  -0.820  54.820  1.00  0.00     0.081 C 
BRANCH   3   4
HETATM    4  N1  UNL     1      24.837  -1.362  55.909  1.00  0.00    -0.408 N 
HETATM    5  H1  UNL     1      25.231  -1.180  56.877  1.00  0.00     0.155 HD
HETATM    6  H2  UNL     1      23.966  -1.895  55.672  1.00  0.00     0.155 HD
ENDBRANCH   3   4
ENDBRANCH   1   2
BRANCH   1   7
HETATM    7  N2  UNL     1      26.634   2.194  53.484  1.00  0.00     0.128 N 
HETATM    8  H5  UNL     1      26.985   2.641  52.628  1.00  0.00     0.320 HD
BRANCH   7   9
HETATM    9  C4  UNL     1      25.277   2.469  53.767  1.00  0.00     0.278 C 
BRANCH   9  10
HETATM   10  C5  UNL     1      24.481   2.892  52.541  1.00  0.00     0.068 C 
BRANCH  10  11
HETATM   11  C6  UNL     1      23.189   2.181  52.451  1.00  0.00    -0.056 A 
HETATM   12  C7  UNL     1      23.099   0.799  52.574  1.00  0.00     0.009 A 
HETATM   13  C8  UNL     1      21.911   0.085  52.496  1.00  0.00     0.024 A 
HETATM   14  C9  UNL     1      20.767   0.807  52.284  1.00  0.00     0.034 A 
HETATM   15 CL1  UNL     1      19.268  -0.100  52.187  1.00  0.00    -0.084 Cl
HETATM   16  C10 UNL     1      20.770   2.193  52.151  1.00  0.00     0.024 A 
HETATM   17  C11 UNL     1      21.994   2.868  52.236  1.00  0.00     0.009 A 
ENDBRANCH  10  11
ENDBRANCH   9  10
ENDBRANCH   7   9
ENDBRANCH   1   7
BRANCH   1  18
HETATM   18  O1  UNL     1      26.544   0.090  52.506  1.00  0.00    -0.148 OA
HETATM   19  F1  UNL     1      26.723   0.720  51.380  1.00  0.00    -0.045 F 
ENDBRANCH   1  18
BRANCH   1  20
HETATM   20  C12 UNL     1      28.393   0.473  53.875  1.00  0.00     0.298 C 
BRANCH  20  21
HETATM   21  N3  UNL     1      29.377   1.434  53.524  1.00  0.00     0.088 N 
HETATM   22  H15 UNL     1      30.035   1.698  54.289  1.00  0.00     0.313 HD
HETATM   23  H16 UNL     1      29.860   1.253  52.619  1.00  0.00     0.313 HD
ENDBRANCH  20  21
BRANCH  20  24
HETATM   24  C13 UNL     1      28.734  -0.842  53.212  1.00  0.00     0.069 C 
HETATM   25  C14 UNL     1      29.880  -1.427  53.604  1.00  0.00     0.421 C 
HETATM   26  F2  UNL     1      31.031  -1.501  54.349  1.00  0.00    -0.455 F 
ENDBRANCH  20  24
ENDBRANCH   1  20
TORSDOF 10
ENDMDL
