MODEL 1
REMARK VINA RESULT:      -7.9      0.000      0.000
REMARK  6 active torsions:
REMARK  status: ('A' for Active; 'I' for Inactive)
REMARK    1  A    between atoms: C7_7  and  N1_8 
REMARK    2  A    between atoms: N1_8  and  C8_9 
REMARK    3  A    between atoms: C12_16  and  C13_17 
REMARK    4  A    between atoms: C13_17  and  O1_18 
REMARK    5  A    between atoms: O1_18  and  C14_19 
REMARK    6  A    between atoms: C16_21  and  O2_22 
ROOT
HETATM    1  C1  UNL     1      22.493   5.199  47.930  1.00  0.00     0.018 C 
HETATM    2  C2  UNL     1      22.824   4.751  48.991  1.00  0.00    -0.078 C 
HETATM    3  C3  UNL     1      23.208   4.189  50.269  1.00  0.00     0.019 A 
HETATM    4  C4  UNL     1      23.132   5.053  51.335  1.00  0.00     0.021 A 
HETATM    5  C5  UNL     1      23.475   4.559  52.575  1.00  0.00     0.004 A 
HETATM    6  C6  UNL     1      23.876   3.250  52.710  1.00  0.00     0.029 A 
HETATM    7  C7  UNL     1      23.963   2.359  51.661  1.00  0.00     0.035 A 
HETATM    8  C18 UNL     1      23.610   2.906  50.454  1.00  0.00     0.050 A 
ENDROOT
BRANCH   7   9
HETATM    9  N1  UNL     1      24.349   0.997  51.766  1.00  0.00    -0.339 N 
HETATM   10  H5  UNL     1      24.323   0.407  50.931  1.00  0.00     0.167 HD
BRANCH   9  11
HETATM   11  C8  UNL     1      24.815   0.366  52.941  1.00  0.00     0.159 A 
HETATM   12  N2  UNL     1      26.121   0.441  53.263  1.00  0.00    -0.220 NA
HETATM   13  C9  UNL     1      26.620  -0.111  54.380  1.00  0.00     0.258 A 
HETATM   14  N3  UNL     1      25.786  -0.768  55.219  1.00  0.00    -0.161 NA
HETATM   15  N4  UNL     1      24.503  -0.852  54.922  1.00  0.00    -0.240 N 
HETATM   16  C10 UNL     1      23.518  -1.435  55.629  1.00  0.00     0.119 A 
HETATM   17  C17 UNL     1      23.998  -0.307  53.814  1.00  0.00     0.112 A 
HETATM   18  C11 UNL     1      22.383  -1.217  54.894  1.00  0.00     0.031 A 
HETATM   19  C12 UNL     1      22.658  -0.494  53.719  1.00  0.00    -0.001 A 
BRANCH  19  20
HETATM   20  C13 UNL     1      21.551  -0.194  52.772  1.00  0.00     0.210 C 
BRANCH  20  21
HETATM   21  O1  UNL     1      20.900   0.951  53.190  1.00  0.00    -0.372 OA
BRANCH  21  22
HETATM   22  C14 UNL     1      20.410   1.417  51.658  1.00  0.00     0.190 A 
HETATM   23  C15 UNL     1      20.244   2.244  52.011  1.00  0.00    -0.005 A 
HETATM   24  C16 UNL     1      20.115   2.852  52.286  1.00  0.00    -0.005 A 
HETATM   25  O2  UNL     1      20.004   3.362  52.531  1.00  0.00     0.000 OA
ENDBRANCH  21  22
ENDBRANCH  20  21
ENDBRANCH  19  20
ENDBRANCH   9  11
ENDBRANCH   7   9
TORSDOF 6
ENDMDL
MODEL 2
REMARK VINA RESULT:      -7.9      2.185      4.885
REMARK  6 active torsions:
REMARK  status: ('A' for Active; 'I' for Inactive)
REMARK    1  A    between atoms: C7_7  and  N1_8 
REMARK    2  A    between atoms: N1_8  and  C8_9 
REMARK    3  A    between atoms: C12_16  and  C13_17 
REMARK    4  A    between atoms: C13_17  and  O1_18 
REMARK    5  A    between atoms: O1_18  and  C14_19 
REMARK    6  A    between atoms: C16_21  and  O2_22 
ROOT
HETATM    1  C1  UNL     1      29.718  -1.897  53.388  1.00  0.00     0.018 C 
HETATM    2  C2  UNL     1      28.884  -1.038  53.343  1.00  0.00    -0.078 C 
HETATM    3  C3  UNL     1      27.868  -0.009  53.265  1.00  0.00     0.019 A 
HETATM    4  C4  UNL     1      28.300   1.263  53.553  1.00  0.00     0.021 A 
HETATM    5  C5  UNL     1      27.371   2.278  53.479  1.00  0.00     0.004 A 
HETATM    6  C6  UNL     1      26.071   2.000  53.128  1.00  0.00     0.029 A 
HETATM    7  C7  UNL     1      25.606   0.736  52.833  1.00  0.00     0.035 A 
HETATM    8  C18 UNL     1      26.574  -0.232  52.924  1.00  0.00     0.050 A 
ENDROOT
BRANCH   7   9
HETATM    9  N1  UNL     1      24.279   0.415  52.444  1.00  0.00    -0.339 N 
HETATM   10  H5  UNL     1      23.985   0.601  51.483  1.00  0.00     0.167 HD
BRANCH   9  11
HETATM   11  C8  UNL     1      23.306  -0.187  53.272  1.00  0.00     0.159 A 
HETATM   12  N2  UNL     1      23.688  -0.804  54.407  1.00  0.00    -0.220 NA
HETATM   13  C9  UNL     1      22.809  -1.368  55.251  1.00  0.00     0.258 A 
HETATM   14  N3  UNL     1      21.490  -1.318  54.957  1.00  0.00    -0.161 NA
HETATM   15  N4  UNL     1      21.094  -0.717  53.851  1.00  0.00    -0.240 N 
HETATM   16  C10 UNL     1      19.841  -0.543  53.396  1.00  0.00     0.119 A 
HETATM   17  C17 UNL     1      21.960  -0.155  53.006  1.00  0.00     0.112 A 
HETATM   18  C11 UNL     1      19.985   0.158  52.228  1.00  0.00     0.031 A 
HETATM   19  C12 UNL     1      21.338   0.423  51.948  1.00  0.00    -0.001 A 
BRANCH  19  20
HETATM   20  C13 UNL     1      21.696   1.144  50.697  1.00  0.00     0.210 C 
BRANCH  20  21
HETATM   21  O1  UNL     1      22.453   2.254  51.019  1.00  0.00    -0.372 OA
BRANCH  21  22
HETATM   22  C14 UNL     1      23.079   2.464  49.480  1.00  0.00     0.190 A 
HETATM   23  C15 UNL     1      23.725   2.986  49.861  1.00  0.00    -0.005 A 
HETATM   24  C16 UNL     1      24.195   3.380  50.155  1.00  0.00    -0.005 A 
HETATM   25  O2  UNL     1      24.586   3.716  50.413  1.00  0.00     0.000 OA
ENDBRANCH  21  22
ENDBRANCH  20  21
ENDBRANCH  19  20
ENDBRANCH   9  11
ENDBRANCH   7   9
TORSDOF 6
ENDMDL
MODEL 3
REMARK VINA RESULT:      -7.9      2.359      5.786
REMARK  6 active torsions:
REMARK  status: ('A' for Active; 'I' for Inactive)
REMARK    1  A    between atoms: C7_7  and  N1_8 
REMARK    2  A    between atoms: N1_8  and  C8_9 
REMARK    3  A    between atoms: C12_16  and  C13_17 
REMARK    4  A    between atoms: C13_17  and  O1_18 
REMARK    5  A    between atoms: O1_18  and  C14_19 
REMARK    6  A    between atoms: C16_21  and  O2_22 
ROOT
HETATM    1  C1  UNL     1      29.013  -2.589  53.098  1.00  0.00     0.018 C 
HETATM    2  C2  UNL     1      28.614  -1.465  53.214  1.00  0.00    -0.078 C 
HETATM    3  C3  UNL     1      28.118  -0.109  53.330  1.00  0.00     0.019 A 
HETATM    4  C4  UNL     1      29.070   0.839  53.621  1.00  0.00     0.021 A 
HETATM    5  C5  UNL     1      28.648   2.146  53.728  1.00  0.00     0.004 A 
HETATM    6  C6  UNL     1      27.321   2.460  53.548  1.00  0.00     0.029 A 
HETATM    7  C7  UNL     1      26.343   1.533  53.256  1.00  0.00     0.035 A 
HETATM    8  C18 UNL     1      26.821   0.251  53.161  1.00  0.00     0.050 A 
ENDROOT
BRANCH   7   9
HETATM    9  N1  UNL     1      24.970   1.824  53.040  1.00  0.00    -0.339 N 
HETATM   10  H5  UNL     1      24.343   1.885  53.845  1.00  0.00     0.167 HD
BRANCH   9  11
HETATM   11  C8  UNL     1      24.374   2.080  51.785  1.00  0.00     0.159 A 
HETATM   12  N2  UNL     1      25.019   2.852  50.888  1.00  0.00    -0.220 NA
HETATM   13  C9  UNL     1      24.520   3.108  49.668  1.00  0.00     0.258 A 
HETATM   14  N3  UNL     1      23.327   2.574  49.320  1.00  0.00    -0.161 NA
HETATM   15  N4  UNL     1      22.680   1.815  50.184  1.00  0.00    -0.240 N 
HETATM   16  C10 UNL     1      21.505   1.180  50.023  1.00  0.00     0.119 A 
HETATM   17  C17 UNL     1      23.166   1.555  51.398  1.00  0.00     0.112 A 
HETATM   18  C11 UNL     1      21.299   0.518  51.204  1.00  0.00     0.031 A 
HETATM   19  C12 UNL     1      22.351   0.739  52.111  1.00  0.00    -0.001 A 
BRANCH  19  20
HETATM   20  C13 UNL     1      22.286   0.129  53.466  1.00  0.00     0.210 C 
BRANCH  20  21
HETATM   21  O1  UNL     1      23.440  -0.598  53.688  1.00  0.00    -0.372 OA
BRANCH  21  22
HETATM   22  C14 UNL     1      22.947  -1.221  55.162  1.00  0.00     0.190 A 
HETATM   23  C15 UNL     1      23.831  -1.263  55.391  1.00  0.00    -0.005 A 
HETATM   24  C16 UNL     1      24.492  -1.297  55.546  1.00  0.00    -0.005 A 
HETATM   25  O2  UNL     1      25.055  -1.328  55.665  1.00  0.00     0.000 OA
ENDBRANCH  21  22
ENDBRANCH  20  21
ENDBRANCH  19  20
ENDBRANCH   9  11
ENDBRANCH   7   9
TORSDOF 6
ENDMDL
MODEL 4
REMARK VINA RESULT:      -7.9      2.913      4.413
REMARK  6 active torsions:
REMARK  status: ('A' for Active; 'I' for Inactive)
REMARK    1  A    between atoms: C7_7  and  N1_8 
REMARK    2  A    between atoms: N1_8  and  C8_9 
REMARK    3  A    between atoms: C12_16  and  C13_17 
REMARK    4  A    between atoms: C13_17  and  O1_18 
REMARK    5  A    between atoms: O1_18  and  C14_19 
REMARK    6  A    between atoms: C16_21  and  O2_22 
ROOT
HETATM    1  C1  UNL     1      27.364   5.025  48.584  1.00  0.00     0.018 C 
HETATM    2  C2  UNL     1      26.455   4.720  49.303  1.00  0.00    -0.078 C 
HETATM    3  C3  UNL     1      25.345   4.337  50.151  1.00  0.00     0.019 A 
HETATM    4  C4  UNL     1      24.743   5.370  50.829  1.00  0.00     0.021 A 
HETATM    5  C5  UNL     1      23.674   5.055  51.639  1.00  0.00     0.004 A 
HETATM    6  C6  UNL     1      23.247   3.752  51.745  1.00  0.00     0.029 A 
HETATM    7  C7  UNL     1      23.829   2.695  51.078  1.00  0.00     0.035 A 
HETATM    8  C18 UNL     1      24.888   3.067  50.289  1.00  0.00     0.050 A 
ENDROOT
BRANCH   7   9
HETATM    9  N1  UNL     1      23.402   1.342  51.146  1.00  0.00    -0.339 N 
HETATM   10  H5  UNL     1      23.645   0.706  50.383  1.00  0.00     0.167 HD
BRANCH   9  11
HETATM   11  C8  UNL     1      22.683   0.762  52.214  1.00  0.00     0.159 A 
HETATM   12  N2  UNL     1      21.337   0.826  52.221  1.00  0.00    -0.220 NA
HETATM   13  C9  UNL     1      20.595   0.268  53.191  1.00  0.00     0.258 A 
HETATM   14  N3  UNL     1      21.214  -0.384  54.200  1.00  0.00    -0.161 NA
HETATM   15  N4  UNL     1      22.532  -0.459  54.212  1.00  0.00    -0.240 N 
HETATM   16  C10 UNL     1      23.327  -1.075  55.105  1.00  0.00     0.119 A 
HETATM   17  C17 UNL     1      23.278   0.092  53.253  1.00  0.00     0.112 A 
HETATM   18  C11 UNL     1      24.599  -0.872  54.640  1.00  0.00     0.031 A 
HETATM   19  C12 UNL     1      24.603  -0.122  53.450  1.00  0.00    -0.001 A 
BRANCH  19  20
HETATM   20  C13 UNL     1      25.900   0.231  52.814  1.00  0.00     0.210 C 
BRANCH  20  21
HETATM   21  O1  UNL     1      26.647   0.980  53.704  1.00  0.00    -0.372 OA
BRANCH  21  22
HETATM   22  C14 UNL     1      27.382   1.922  52.531  1.00  0.00     0.190 A 
HETATM   23  C15 UNL     1      27.952   2.212  53.183  1.00  0.00    -0.005 A 
HETATM   24  C16 UNL     1      28.365   2.428  53.679  1.00  0.00    -0.005 A 
HETATM   25  O2  UNL     1      28.705   2.608  54.108  1.00  0.00     0.000 OA
ENDBRANCH  21  22
ENDBRANCH  20  21
ENDBRANCH  19  20
ENDBRANCH   9  11
ENDBRANCH   7   9
TORSDOF 6
ENDMDL
MODEL 5
REMARK VINA RESULT:      -7.9      2.919      6.310
REMARK  6 active torsions:
REMARK  status: ('A' for Active; 'I' for Inactive)
REMARK    1  A    between atoms: C7_7  and  N1_8 
REMARK    2  A    between atoms: N1_8  and  C8_9 
REMARK    3  A    between atoms: C12_16  and  C13_17 
REMARK    4  A    between atoms: C13_17  and  O1_18 
REMARK    5  A    between atoms: O1_18  and  C14_19 
REMARK    6  A    between atoms: C16_21  and  O2_22 
ROOT
HETATM    1  C1  UNL     1      18.942   0.236  51.610  1.00  0.00     0.018 C 
HETATM    2  C2  UNL     1      20.056   0.233  52.050  1.00  0.00    -0.078 C 
HETATM    3  C3  UNL     1      21.411   0.244  52.560  1.00  0.00     0.019 A 
HETATM    4  C4  UNL     1      21.893  -0.978  52.965  1.00  0.00     0.021 A 
HETATM    5  C5  UNL     1      23.184  -1.020  53.447  1.00  0.00     0.004 A 
HETATM    6  C6  UNL     1      23.936   0.129  53.508  1.00  0.00     0.029 A 
HETATM    7  C7  UNL     1      23.482   1.369  53.110  1.00  0.00     0.035 A 
HETATM    8  C18 UNL     1      22.193   1.349  52.641  1.00  0.00     0.050 A 
ENDROOT
BRANCH   7   9
HETATM    9  N1  UNL     1      24.237   2.571  53.136  1.00  0.00    -0.339 N 
HETATM   10  H5  UNL     1      24.907   2.720  53.894  1.00  0.00     0.167 HD
BRANCH   9  11
HETATM   11  C8  UNL     1      24.177   3.598  52.169  1.00  0.00     0.159 A 
HETATM   12  N2  UNL     1      23.242   4.562  52.280  1.00  0.00    -0.220 NA
HETATM   13  C9  UNL     1      23.152   5.582  51.410  1.00  0.00     0.258 A 
HETATM   14  N3  UNL     1      24.031   5.651  50.385  1.00  0.00    -0.161 NA
HETATM   15  N4  UNL     1      24.956   4.718  50.259  1.00  0.00    -0.240 N 
HETATM   16  C10 UNL     1      25.926   4.620  49.332  1.00  0.00     0.119 A 
HETATM   17  C17 UNL     1      25.053   3.700  51.117  1.00  0.00     0.112 A 
HETATM   18  C11 UNL     1      26.621   3.489  49.669  1.00  0.00     0.031 A 
HETATM   19  C12 UNL     1      26.083   2.873  50.814  1.00  0.00    -0.001 A 
BRANCH  19  20
HETATM   20  C13 UNL     1      26.685   1.607  51.311  1.00  0.00     0.210 C 
BRANCH  20  21
HETATM   21  O1  UNL     1      27.193   1.818  52.579  1.00  0.00    -0.372 OA
BRANCH  21  22
HETATM   22  C14 UNL     1      27.543   0.207  52.873  1.00  0.00     0.190 A 
HETATM   23  C15 UNL     1      27.624   0.431  53.755  1.00  0.00    -0.005 A 
HETATM   24  C16 UNL     1      27.690   0.612  54.408  1.00  0.00    -0.005 A 
HETATM   25  O2  UNL     1      27.750   0.776  54.957  1.00  0.00     0.000 OA
ENDBRANCH  21  22
ENDBRANCH  20  21
ENDBRANCH  19  20
ENDBRANCH   9  11
ENDBRANCH   7   9
TORSDOF 6
ENDMDL
MODEL 6
REMARK VINA RESULT:      -7.7      2.182      5.472
REMARK  6 active torsions:
REMARK  status: ('A' for Active; 'I' for Inactive)
REMARK    1  A    between atoms: C7_7  and  N1_8 
REMARK    2  A    between atoms: N1_8  and  C8_9 
REMARK    3  A    between atoms: C12_16  and  C13_17 
REMARK    4  A    between atoms: C13_17  and  O1_18 
REMARK    5  A    between atoms: O1_18  and  C14_19 
REMARK    6  A    between atoms: C16_21  and  O2_22 
ROOT
HETATM    1  C1  UNL     1      27.766  -2.560  52.637  1.00  0.00     0.018 C 
HETATM    2  C2  UNL     1      27.236  -1.498  52.806  1.00  0.00    -0.078 C 
HETATM    3  C3  UNL     1      26.606  -0.208  52.988  1.00  0.00     0.019 A 
HETATM    4  C4  UNL     1      26.844   0.395  54.200  1.00  0.00     0.021 A 
HETATM    5  C5  UNL     1      26.276   1.632  54.413  1.00  0.00     0.004 A 
HETATM    6  C6  UNL     1      25.506   2.216  53.435  1.00  0.00     0.029 A 
HETATM    7  C7  UNL     1      25.248   1.638  52.210  1.00  0.00     0.035 A 
HETATM    8  C18 UNL     1      25.839   0.409  52.055  1.00  0.00     0.050 A 
ENDROOT
BRANCH   7   9
HETATM    9  N1  UNL     1      24.478   2.221  51.169  1.00  0.00    -0.339 N 
HETATM   10  H5  UNL     1      24.553   1.840  50.223  1.00  0.00     0.167 HD
BRANCH   9  11
HETATM   11  C8  UNL     1      23.563   3.285  51.324  1.00  0.00     0.159 A 
HETATM   12  N2  UNL     1      23.983   4.553  51.152  1.00  0.00    -0.220 NA
HETATM   13  C9  UNL     1      23.156   5.606  51.255  1.00  0.00     0.258 A 
HETATM   14  N3  UNL     1      21.852   5.392  51.540  1.00  0.00    -0.161 NA
HETATM   15  N4  UNL     1      21.419   4.157  51.711  1.00  0.00    -0.240 N 
HETATM   16  C10 UNL     1      20.169   3.738  51.975  1.00  0.00     0.119 A 
HETATM   17  C17 UNL     1      22.233   3.105  51.611  1.00  0.00     0.112 A 
HETATM   18  C11 UNL     1      20.261   2.373  52.031  1.00  0.00     0.031 A 
HETATM   19  C12 UNL     1      21.578   1.933  51.802  1.00  0.00    -0.001 A 
BRANCH  19  20
HETATM   20  C13 UNL     1      21.881   0.478  51.860  1.00  0.00     0.210 C 
BRANCH  20  21
HETATM   21  O1  UNL     1      21.463  -0.020  53.079  1.00  0.00    -0.372 OA
BRANCH  21  22
HETATM   22  C14 UNL     1      22.857  -0.902  53.371  1.00  0.00     0.190 A 
HETATM   23  C15 UNL     1      22.517  -1.083  54.199  1.00  0.00    -0.005 A 
HETATM   24  C16 UNL     1      22.258  -1.203  54.816  1.00  0.00    -0.005 A 
HETATM   25  O2  UNL     1      22.032  -1.295  55.339  1.00  0.00     0.000 OA
ENDBRANCH  21  22
ENDBRANCH  20  21
ENDBRANCH  19  20
ENDBRANCH   9  11
ENDBRANCH   7   9
TORSDOF 6
ENDMDL
MODEL 7
REMARK VINA RESULT:      -7.6      2.429      3.183
REMARK  6 active torsions:
REMARK  status: ('A' for Active; 'I' for Inactive)
REMARK    1  A    between atoms: C7_7  and  N1_8 
REMARK    2  A    between atoms: N1_8  and  C8_9 
REMARK    3  A    between atoms: C12_16  and  C13_17 
REMARK    4  A    between atoms: C13_17  and  O1_18 
REMARK    5  A    between atoms: O1_18  and  C14_19 
REMARK    6  A    between atoms: C16_21  and  O2_22 
ROOT
HETATM    1  C1  UNL     1      28.022   6.218  48.080  1.00  0.00     0.018 C 
HETATM    2  C2  UNL     1      27.218   5.544  48.659  1.00  0.00    -0.078 C 
HETATM    3  C3  UNL     1      26.257   4.708  49.347  1.00  0.00     0.019 A 
HETATM    4  C4  UNL     1      24.956   5.150  49.298  1.00  0.00     0.021 A 
HETATM    5  C5  UNL     1      24.003   4.380  49.928  1.00  0.00     0.004 A 
HETATM    6  C6  UNL     1      24.367   3.220  50.572  1.00  0.00     0.029 A 
HETATM    7  C7  UNL     1      25.662   2.750  50.639  1.00  0.00     0.035 A 
HETATM    8  C18 UNL     1      26.565   3.557  49.995  1.00  0.00     0.050 A 
ENDROOT
BRANCH   7   9
HETATM    9  N1  UNL     1      26.070   1.547  51.273  1.00  0.00    -0.339 N 
HETATM   10  H5  UNL     1      25.815   0.652  50.850  1.00  0.00     0.167 HD
BRANCH   9  11
HETATM   11  C8  UNL     1      26.850   1.464  52.448  1.00  0.00     0.159 A 
HETATM   12  N2  UNL     1      28.003   2.156  52.530  1.00  0.00    -0.220 NA
HETATM   13  C9  UNL     1      28.773   2.143  53.630  1.00  0.00     0.258 A 
HETATM   14  N3  UNL     1      28.382   1.411  54.698  1.00  0.00    -0.161 NA
HETATM   15  N4  UNL     1      27.255   0.727  54.638  1.00  0.00    -0.240 N 
HETATM   16  C10 UNL     1      26.688  -0.035  55.590  1.00  0.00     0.119 A 
HETATM   17  C17 UNL     1      26.484   0.733  53.550  1.00  0.00     0.112 A 
HETATM   18  C11 UNL     1      25.527  -0.494  55.026  1.00  0.00     0.031 A 
HETATM   19  C12 UNL     1      25.366  -0.018  53.712  1.00  0.00    -0.001 A 
BRANCH  19  20
HETATM   20  C13 UNL     1      24.179  -0.442  52.923  1.00  0.00     0.210 C 
BRANCH  20  21
HETATM   21  O1  UNL     1      23.168  -0.806  53.792  1.00  0.00    -0.372 OA
BRANCH  21  22
HETATM   22  C14 UNL     1      21.987   0.121  53.050  1.00  0.00     0.190 A 
HETATM   23  C15 UNL     1      21.545   0.118  53.849  1.00  0.00    -0.005 A 
HETATM   24  C16 UNL     1      21.220   0.100  54.446  1.00  0.00    -0.005 A 
HETATM   25  O2  UNL     1      20.950   0.075  54.955  1.00  0.00     0.000 OA
ENDBRANCH  21  22
ENDBRANCH  20  21
ENDBRANCH  19  20
ENDBRANCH   9  11
ENDBRANCH   7   9
TORSDOF 6
ENDMDL
MODEL 8
REMARK VINA RESULT:      -7.5      1.765      2.035
REMARK  6 active torsions:
REMARK  status: ('A' for Active; 'I' for Inactive)
REMARK    1  A    between atoms: C7_7  and  N1_8 
REMARK    2  A    between atoms: N1_8  and  C8_9 
REMARK    3  A    between atoms: C12_16  and  C13_17 
REMARK    4  A    between atoms: C13_17  and  O1_18 
REMARK    5  A    between atoms: O1_18  and  C14_19 
REMARK    6  A    between atoms: C16_21  and  O2_22 
ROOT
HETATM    1  C1  UNL     1      26.597   5.475  48.710  1.00  0.00     0.018 C 
HETATM    2  C2  UNL     1      25.867   4.977  49.520  1.00  0.00    -0.078 C 
HETATM    3  C3  UNL     1      24.978   4.357  50.480  1.00  0.00     0.019 A 
HETATM    4  C4  UNL     1      24.109   5.214  51.111  1.00  0.00     0.021 A 
HETATM    5  C5  UNL     1      23.234   4.667  52.024  1.00  0.00     0.004 A 
HETATM    6  C6  UNL     1      23.252   3.315  52.274  1.00  0.00     0.029 A 
HETATM    7  C7  UNL     1      24.111   2.429  51.658  1.00  0.00     0.035 A 
HETATM    8  C18 UNL     1      24.957   3.030  50.761  1.00  0.00     0.050 A 
ENDROOT
BRANCH   7   9
HETATM    9  N1  UNL     1      24.142   1.026  51.874  1.00  0.00    -0.339 N 
HETATM   10  H5  UNL     1      23.807   0.403  51.135  1.00  0.00     0.167 HD
BRANCH   9  11
HETATM   11  C8  UNL     1      24.640   0.386  53.029  1.00  0.00     0.159 A 
HETATM   12  N2  UNL     1      25.941   0.516  53.353  1.00  0.00    -0.220 NA
HETATM   13  C9  UNL     1      26.469  -0.043  54.454  1.00  0.00     0.258 A 
HETATM   14  N3  UNL     1      25.669  -0.763  55.274  1.00  0.00    -0.161 NA
HETATM   15  N4  UNL     1      24.391  -0.902  54.975  1.00  0.00    -0.240 N 
HETATM   16  C10 UNL     1      23.437  -1.553  55.665  1.00  0.00     0.119 A 
HETATM   17  C17 UNL     1      23.858  -0.352  53.883  1.00  0.00     0.112 A 
HETATM   18  C11 UNL     1      22.292  -1.371  54.936  1.00  0.00     0.031 A 
HETATM   19  C12 UNL     1      22.529  -0.602  53.782  1.00  0.00    -0.001 A 
BRANCH  19  20
HETATM   20  C13 UNL     1      21.408  -0.329  52.844  1.00  0.00     0.210 C 
BRANCH  20  21
HETATM   21  O1  UNL     1      20.240  -0.838  53.380  1.00  0.00    -0.372 OA
BRANCH  21  22
HETATM   22  C14 UNL     1      19.224  -0.060  52.299  1.00  0.00     0.190 A 
HETATM   23  C15 UNL     1      18.537  -0.536  52.669  1.00  0.00    -0.005 A 
HETATM   24  C16 UNL     1      18.036  -0.902  52.946  1.00  0.00    -0.005 A 
HETATM   25  O2  UNL     1      17.619  -1.222  53.184  1.00  0.00     0.000 OA
ENDBRANCH  21  22
ENDBRANCH  20  21
ENDBRANCH  19  20
ENDBRANCH   9  11
ENDBRANCH   7   9
TORSDOF 6
ENDMDL
MODEL 9
REMARK VINA RESULT:      -7.5      2.230      5.453
REMARK  6 active torsions:
REMARK  status: ('A' for Active; 'I' for Inactive)
REMARK    1  A    between atoms: C7_7  and  N1_8 
REMARK    2  A    between atoms: N1_8  and  C8_9 
REMARK    3  A    between atoms: C12_16  and  C13_17 
REMARK    4  A    between atoms: C13_17  and  O1_18 
REMARK    5  A    between atoms: O1_18  and  C14_19 
REMARK    6  A    between atoms: C16_21  and  O2_22 
ROOT
HETATM    1  C1  UNL     1      29.128   2.484  53.826  1.00  0.00     0.018 C 
HETATM    2  C2  UNL     1      28.101   1.901  53.625  1.00  0.00    -0.078 C 
HETATM    3  C3  UNL     1      26.847   1.214  53.398  1.00  0.00     0.019 A 
HETATM    4  C4  UNL     1      26.881  -0.147  53.591  1.00  0.00     0.021 A 
HETATM    5  C5  UNL     1      25.707  -0.842  53.399  1.00  0.00     0.004 A 
HETATM    6  C6  UNL     1      24.563  -0.176  53.029  1.00  0.00     0.029 A 
HETATM    7  C7  UNL     1      24.495   1.187  52.827  1.00  0.00     0.035 A 
HETATM    8  C18 UNL     1      25.692   1.825  53.032  1.00  0.00     0.050 A 
ENDROOT
BRANCH   7   9
HETATM    9  N1  UNL     1      23.328   1.910  52.468  1.00  0.00    -0.339 N 
HETATM   10  H5  UNL     1      22.746   2.311  53.207  1.00  0.00     0.167 HD
BRANCH   9  11
HETATM   11  C8  UNL     1      22.897   2.169  51.148  1.00  0.00     0.159 A 
HETATM   12  N2  UNL     1      23.761   2.698  50.259  1.00  0.00    -0.220 NA
HETATM   13  C9  UNL     1      23.423   2.940  48.982  1.00  0.00     0.258 A 
HETATM   14  N3  UNL     1      22.171   2.642  48.566  1.00  0.00    -0.161 NA
HETATM   15  N4  UNL     1      21.310   2.122  49.421  1.00  0.00    -0.240 N 
HETATM   16  C10 UNL     1      20.040   1.740  49.200  1.00  0.00     0.119 A 
HETATM   17  C17 UNL     1      21.636   1.880  50.691  1.00  0.00     0.112 A 
HETATM   18  C11 UNL     1      19.606   1.250  50.403  1.00  0.00     0.031 A 
HETATM   19  C12 UNL     1      20.611   1.326  51.385  1.00  0.00    -0.001 A 
BRANCH  19  20
HETATM   20  C13 UNL     1      20.313   0.874  52.770  1.00  0.00     0.210 C 
BRANCH  20  21
HETATM   21  O1  UNL     1      21.063  -0.253  53.046  1.00  0.00    -0.372 OA
BRANCH  21  22
HETATM   22  C14 UNL     1      21.141   0.016  54.697  1.00  0.00     0.190 A 
HETATM   23  C15 UNL     1      21.470  -0.833  54.776  1.00  0.00    -0.005 A 
HETATM   24  C16 UNL     1      21.705  -1.469  54.823  1.00  0.00    -0.005 A 
HETATM   25  O2  UNL     1      21.899  -2.012  54.852  1.00  0.00     0.000 OA
ENDBRANCH  21  22
ENDBRANCH  20  21
ENDBRANCH  19  20
ENDBRANCH   9  11
ENDBRANCH   7   9
TORSDOF 6
ENDMDL
