MODEL 1
REMARK VINA RESULT:      -7.1      0.000      0.000
REMARK  8 active torsions:
REMARK  status: ('A' for Active; 'I' for Inactive)
REMARK    1  A    between atoms: N1_2  and  C3_4 
REMARK    2  A    between atoms: C3_4  and  C4_5 
REMARK    3  A    between atoms: C5_6  and  C6_7 
REMARK       I    between atoms: C6_7  and  N2_9 
REMARK    4  A    between atoms: C9_13  and  C10_14 
REMARK    5  A    between atoms: C10_14  and  C11_15 
REMARK    6  A    between atoms: C14_19  and  N4_20 
REMARK    7  A    between atoms: N4_20  and  C15_21 
REMARK    8  A    between atoms: C20_26  and  O3_27 
ROOT
HETATM    1  C11 UNL     1      22.137   0.452  53.347  1.00  0.00     0.080 A 
HETATM    2  C12 UNL     1      21.176   0.160  54.440  1.00  0.00     0.100 A 
HETATM    3  N3  UNL     1      21.625  -0.789  55.218  1.00  0.00    -0.274 NA
HETATM    4  C13 UNL     1      22.903  -1.217  54.735  1.00  0.00     0.141 A 
HETATM    5  C14 UNL     1      23.231  -0.511  53.640  1.00  0.00     0.033 A 
ENDROOT
BRANCH   1   6
HETATM    6  C10 UNL     1      21.586   0.137  51.975  1.00  0.00     0.050 C 
BRANCH   6   7
HETATM    7  C9  UNL     1      21.959   1.209  50.977  1.00  0.00     0.140 C 
HETATM    8  O2  UNL     1      21.666   2.448  51.507  1.00  0.00    -0.383 OA
HETATM    9  C8  UNL     1      20.415   2.930  51.194  1.00  0.00     0.188 C 
HETATM   10  C7  UNL     1      20.187   3.150  49.714  1.00  0.00     0.152 C 
HETATM   11  N2  UNL     1      21.151   2.291  49.021  1.00  0.00    -0.344 N 
HETATM   12  C6  UNL     1      21.952   2.609  47.860  1.00  0.00     0.243 C 
HETATM   13  C21 UNL     1      21.248   0.981  49.643  1.00  0.00     0.158 C 
HETATM   14  O1  UNL     1      22.724   1.717  47.429  1.00  0.00    -0.268 OA
BRANCH  12  15
HETATM   15  C5  UNL     1      21.828   3.921  47.254  1.00  0.00     0.072 C 
HETATM   16  C4  UNL     1      22.565   4.959  47.598  1.00  0.00     0.008 C 
BRANCH  16  17
HETATM   17  C3  UNL     1      23.649   5.225  48.569  1.00  0.00     0.299 C 
BRANCH  17  18
HETATM   18  N1  UNL     1      23.162   5.149  49.926  1.00  0.00     0.083 N 
HETATM   19  C1  UNL     1      24.310   5.084  50.806  1.00  0.00     0.309 C 
HETATM   20  C2  UNL     1      22.314   6.297  50.168  1.00  0.00     0.309 C 
ENDBRANCH  17  18
ENDBRANCH  16  17
ENDBRANCH  12  15
ENDBRANCH   6   7
ENDBRANCH   1   6
BRANCH   5  21
HETATM   21  N4  UNL     1      24.494  -0.910  53.133  1.00  0.00    -0.373 N 
HETATM   22  H21 UNL     1      24.363  -1.946  52.960  1.00  0.00     0.161 HD
BRANCH  21  23
HETATM   23  C15 UNL     1      25.671  -0.107  52.908  1.00  0.00     0.093 A 
HETATM   24  C16 UNL     1      26.796  -1.006  52.513  1.00  0.00     0.050 C 
HETATM   25  C17 UNL     1      25.440   1.037  52.026  1.00  0.00     0.011 A 
HETATM   26  C18 UNL     1      25.698   2.187  52.660  1.00  0.00     0.001 A 
HETATM   27  C19 UNL     1      26.127   1.904  54.034  1.00  0.00     0.035 A 
HETATM   28  C20 UNL     1      26.109   0.587  54.170  1.00  0.00     0.074 A 
BRANCH  28  29
HETATM   29  O3  UNL     1      26.434  -0.150  55.288  1.00  0.00    -0.362 OA
HETATM   30  H28 UNL     1      27.394  -0.256  55.574  1.00  0.00     0.217 HD
ENDBRANCH  28  29
ENDBRANCH  21  23
ENDBRANCH   5  21
TORSDOF 8
ENDMDL
MODEL 2
REMARK VINA RESULT:      -7.1      3.585      4.431
REMARK  8 active torsions:
REMARK  status: ('A' for Active; 'I' for Inactive)
REMARK    1  A    between atoms: N1_2  and  C3_4 
REMARK    2  A    between atoms: C3_4  and  C4_5 
REMARK    3  A    between atoms: C5_6  and  C6_7 
REMARK       I    between atoms: C6_7  and  N2_9 
REMARK    4  A    between atoms: C9_13  and  C10_14 
REMARK    5  A    between atoms: C10_14  and  C11_15 
REMARK    6  A    between atoms: C14_19  and  N4_20 
REMARK    7  A    between atoms: N4_20  and  C15_21 
REMARK    8  A    between atoms: C20_26  and  O3_27 
ROOT
HETATM    1  C11 UNL     1      23.758   1.547  52.706  1.00  0.00     0.080 A 
HETATM    2  C12 UNL     1      22.422   1.035  53.102  1.00  0.00     0.100 A 
HETATM    3  N3  UNL     1      22.501  -0.195  53.534  1.00  0.00    -0.274 NA
HETATM    4  C13 UNL     1      23.866  -0.621  53.472  1.00  0.00     0.141 A 
HETATM    5  C14 UNL     1      24.627   0.376  52.990  1.00  0.00     0.033 A 
ENDROOT
BRANCH   1   6
HETATM    6  C10 UNL     1      23.857   1.862  51.231  1.00  0.00     0.050 C 
BRANCH   6   7
HETATM    7  C9  UNL     1      24.733   3.070  50.987  1.00  0.00     0.140 C 
HETATM    8  O2  UNL     1      24.122   4.189  51.512  1.00  0.00    -0.383 OA
HETATM    9  C8  UNL     1      23.330   4.885  50.627  1.00  0.00     0.188 C 
HETATM   10  C7  UNL     1      24.077   5.452  49.438  1.00  0.00     0.152 C 
HETATM   11  N2  UNL     1      25.296   4.650  49.303  1.00  0.00    -0.344 N 
HETATM   12  C6  UNL     1      26.635   5.109  49.013  1.00  0.00     0.243 C 
HETATM   13  C21 UNL     1      25.031   3.234  49.498  1.00  0.00     0.158 C 
HETATM   14  O1  UNL     1      27.542   4.242  48.946  1.00  0.00    -0.268 OA
BRANCH  12  15
HETATM   15  C5  UNL     1      26.869   6.527  48.816  1.00  0.00     0.072 C 
HETATM   16  C4  UNL     1      27.983   7.024  48.316  1.00  0.00     0.008 C 
BRANCH  16  17
HETATM   17  C3  UNL     1      29.267   6.480  47.820  1.00  0.00     0.299 C 
BRANCH  17  18
HETATM   18  N1  UNL     1      30.383   7.030  48.553  1.00  0.00     0.083 N 
HETATM   19  C1  UNL     1      31.249   5.933  48.931  1.00  0.00     0.309 C 
HETATM   20  C2  UNL     1      31.033   8.016  47.715  1.00  0.00     0.309 C 
ENDBRANCH  17  18
ENDBRANCH  16  17
ENDBRANCH  12  15
ENDBRANCH   6   7
ENDBRANCH   1   6
BRANCH   5  21
HETATM   21  N4  UNL     1      25.990  -0.012  52.916  1.00  0.00    -0.373 N 
HETATM   22  H21 UNL     1      26.047  -0.494  51.975  1.00  0.00     0.161 HD
BRANCH  21  23
HETATM   23  C15 UNL     1      27.042   0.196  53.880  1.00  0.00     0.093 A 
HETATM   24  C16 UNL     1      26.455   0.132  55.252  1.00  0.00     0.050 C 
HETATM   25  C17 UNL     1      28.216  -0.648  53.657  1.00  0.00     0.011 A 
HETATM   26  C18 UNL     1      29.304   0.098  53.433  1.00  0.00     0.001 A 
HETATM   27  C19 UNL     1      28.943   1.520  53.487  1.00  0.00     0.035 A 
HETATM   28  C20 UNL     1      27.645   1.569  53.743  1.00  0.00     0.074 A 
BRANCH  28  29
HETATM   29  O3  UNL     1      26.856   2.689  53.885  1.00  0.00    -0.362 OA
HETATM   30  H28 UNL     1      25.852   2.615  53.885  1.00  0.00     0.217 HD
ENDBRANCH  28  29
ENDBRANCH  21  23
ENDBRANCH   5  21
TORSDOF 8
ENDMDL
MODEL 3
REMARK VINA RESULT:      -6.9      2.722      4.991
REMARK  8 active torsions:
REMARK  status: ('A' for Active; 'I' for Inactive)
REMARK    1  A    between atoms: N1_2  and  C3_4 
REMARK    2  A    between atoms: C3_4  and  C4_5 
REMARK    3  A    between atoms: C5_6  and  C6_7 
REMARK       I    between atoms: C6_7  and  N2_9 
REMARK    4  A    between atoms: C9_13  and  C10_14 
REMARK    5  A    between atoms: C10_14  and  C11_15 
REMARK    6  A    between atoms: C14_19  and  N4_20 
REMARK    7  A    between atoms: N4_20  and  C15_21 
REMARK    8  A    between atoms: C20_26  and  O3_27 
ROOT
HETATM    1  C11 UNL     1      23.222  -0.599  53.540  1.00  0.00     0.080 A 
HETATM    2  C12 UNL     1      23.056  -1.208  54.884  1.00  0.00     0.100 A 
HETATM    3  N3  UNL     1      21.807  -1.518  55.106  1.00  0.00    -0.274 NA
HETATM    4  C13 UNL     1      21.029  -1.158  53.960  1.00  0.00     0.141 A 
HETATM    5  C14 UNL     1      21.828  -0.617  53.025  1.00  0.00     0.033 A 
ENDROOT
BRANCH   1   6
HETATM    6  C10 UNL     1      23.687   0.838  53.594  1.00  0.00     0.050 C 
BRANCH   6   7
HETATM    7  C9  UNL     1      24.374   1.239  52.308  1.00  0.00     0.140 C 
HETATM    8  O2  UNL     1      25.505   0.471  52.135  1.00  0.00    -0.383 OA
HETATM    9  C8  UNL     1      26.661   1.022  52.642  1.00  0.00     0.188 C 
HETATM   10  C7  UNL     1      27.059   2.333  51.997  1.00  0.00     0.152 C 
HETATM   11  N2  UNL     1      25.834   2.889  51.416  1.00  0.00    -0.344 N 
HETATM   12  C6  UNL     1      25.671   3.531  50.132  1.00  0.00     0.243 C 
HETATM   13  C21 UNL     1      24.697   2.733  52.308  1.00  0.00     0.158 C 
HETATM   14  O1  UNL     1      24.521   3.934  49.828  1.00  0.00    -0.268 OA
BRANCH  12  15
HETATM   15  C5  UNL     1      26.825   3.681  49.265  1.00  0.00     0.072 C 
HETATM   16  C4  UNL     1      27.221   4.834  48.765  1.00  0.00     0.008 C 
BRANCH  16  17
HETATM   17  C3  UNL     1      26.769   6.241  48.835  1.00  0.00     0.299 C 
BRANCH  17  18
HETATM   18  N1  UNL     1      27.866   7.153  48.612  1.00  0.00     0.083 N 
HETATM   19  C1  UNL     1      28.894   6.440  47.884  1.00  0.00     0.309 C 
HETATM   20  C2  UNL     1      27.356   8.310  47.907  1.00  0.00     0.309 C 
ENDBRANCH  17  18
ENDBRANCH  16  17
ENDBRANCH  12  15
ENDBRANCH   6   7
ENDBRANCH   1   6
BRANCH   5  21
HETATM   21  N4  UNL     1      21.089  -0.247  51.872  1.00  0.00    -0.373 N 
HETATM   22  H21 UNL     1      21.257  -1.058  51.213  1.00  0.00     0.161 HD
BRANCH  21  23
HETATM   23  C15 UNL     1      20.300   0.939  51.648  1.00  0.00     0.093 A 
HETATM   24  C16 UNL     1      18.910   0.530  51.287  1.00  0.00     0.050 C 
HETATM   25  C17 UNL     1      20.406   1.926  52.722  1.00  0.00     0.011 A 
HETATM   26  C18 UNL     1      20.901   3.080  52.262  1.00  0.00     0.001 A 
HETATM   27  C19 UNL     1      21.170   2.960  50.824  1.00  0.00     0.035 A 
HETATM   28  C20 UNL     1      20.823   1.730  50.479  1.00  0.00     0.074 A 
BRANCH  28  29
HETATM   29  O3  UNL     1      20.896   1.154  49.230  1.00  0.00    -0.362 OA
HETATM   30  H28 UNL     1      20.094   1.141  48.620  1.00  0.00     0.217 HD
ENDBRANCH  28  29
ENDBRANCH  21  23
ENDBRANCH   5  21
TORSDOF 8
ENDMDL
MODEL 4
REMARK VINA RESULT:      -6.9      1.483      2.350
REMARK  8 active torsions:
REMARK  status: ('A' for Active; 'I' for Inactive)
REMARK    1  A    between atoms: N1_2  and  C3_4 
REMARK    2  A    between atoms: C3_4  and  C4_5 
REMARK    3  A    between atoms: C5_6  and  C6_7 
REMARK       I    between atoms: C6_7  and  N2_9 
REMARK    4  A    between atoms: C9_13  and  C10_14 
REMARK    5  A    between atoms: C10_14  and  C11_15 
REMARK    6  A    between atoms: C14_19  and  N4_20 
REMARK    7  A    between atoms: N4_20  and  C15_21 
REMARK    8  A    between atoms: C20_26  and  O3_27 
ROOT
HETATM    1  C11 UNL     1      22.298   0.577  53.384  1.00  0.00     0.080 A 
HETATM    2  C12 UNL     1      21.250   0.284  54.394  1.00  0.00     0.100 A 
HETATM    3  N3  UNL     1      21.555  -0.777  55.092  1.00  0.00    -0.274 NA
HETATM    4  C13 UNL     1      22.809  -1.290  54.630  1.00  0.00     0.141 A 
HETATM    5  C14 UNL     1      23.270  -0.520  53.630  1.00  0.00     0.033 A 
ENDROOT
BRANCH   1   6
HETATM    6  C10 UNL     1      21.799   0.456  51.962  1.00  0.00     0.050 C 
BRANCH   6   7
HETATM    7  C9  UNL     1      21.489   1.814  51.375  1.00  0.00     0.140 C 
HETATM    8  O2  UNL     1      21.275   1.687  50.019  1.00  0.00    -0.383 OA
HETATM    9  C8  UNL     1      22.393   1.871  49.237  1.00  0.00     0.188 C 
HETATM   10  C7  UNL     1      23.001   3.254  49.340  1.00  0.00     0.152 C 
HETATM   11  N2  UNL     1      22.552   3.802  50.622  1.00  0.00    -0.344 N 
HETATM   12  C6  UNL     1      22.094   5.144  50.904  1.00  0.00     0.243 C 
HETATM   13  C21 UNL     1      22.609   2.808  51.681  1.00  0.00     0.158 C 
HETATM   14  O1  UNL     1      21.748   5.401  52.084  1.00  0.00    -0.268 OA
BRANCH  12  15
HETATM   15  C5  UNL     1      22.055   6.118  49.830  1.00  0.00     0.072 C 
HETATM   16  C4  UNL     1      22.945   7.080  49.681  1.00  0.00     0.008 C 
BRANCH  16  17
HETATM   17  C3  UNL     1      24.160   7.531  50.393  1.00  0.00     0.299 C 
BRANCH  17  18
HETATM   18  N1  UNL     1      25.347   7.283  49.608  1.00  0.00     0.083 N 
HETATM   19  C1  UNL     1      26.378   8.190  50.064  1.00  0.00     0.309 C 
HETATM   20  C2  UNL     1      25.701   5.886  49.753  1.00  0.00     0.309 C 
ENDBRANCH  17  18
ENDBRANCH  16  17
ENDBRANCH  12  15
ENDBRANCH   6   7
ENDBRANCH   1   6
BRANCH   5  21
HETATM   21  N4  UNL     1      24.514  -1.000  53.147  1.00  0.00    -0.373 N 
HETATM   22  H21 UNL     1      24.309  -2.016  52.933  1.00  0.00     0.161 HD
BRANCH  21  23
HETATM   23  C15 UNL     1      25.757  -0.285  52.985  1.00  0.00     0.093 A 
HETATM   24  C16 UNL     1      26.842  -1.268  52.697  1.00  0.00     0.050 C 
HETATM   25  C17 UNL     1      25.667   0.843  52.058  1.00  0.00     0.011 A 
HETATM   26  C18 UNL     1      25.957   1.993  52.677  1.00  0.00     0.001 A 
HETATM   27  C19 UNL     1      26.269   1.727  54.085  1.00  0.00     0.035 A 
HETATM   28  C20 UNL     1      26.152   0.419  54.256  1.00  0.00     0.074 A 
BRANCH  28  29
HETATM   29  O3  UNL     1      26.346  -0.301  55.414  1.00  0.00    -0.362 OA
HETATM   30  H28 UNL     1      25.597  -0.840  55.817  1.00  0.00     0.217 HD
ENDBRANCH  28  29
ENDBRANCH  21  23
ENDBRANCH   5  21
TORSDOF 8
ENDMDL
MODEL 5
REMARK VINA RESULT:      -6.8      2.558      3.579
REMARK  8 active torsions:
REMARK  status: ('A' for Active; 'I' for Inactive)
REMARK    1  A    between atoms: N1_2  and  C3_4 
REMARK    2  A    between atoms: C3_4  and  C4_5 
REMARK    3  A    between atoms: C5_6  and  C6_7 
REMARK       I    between atoms: C6_7  and  N2_9 
REMARK    4  A    between atoms: C9_13  and  C10_14 
REMARK    5  A    between atoms: C10_14  and  C11_15 
REMARK    6  A    between atoms: C14_19  and  N4_20 
REMARK    7  A    between atoms: N4_20  and  C15_21 
REMARK    8  A    between atoms: C20_26  and  O3_27 
ROOT
HETATM    1  C11 UNL     1      23.584   1.322  52.924  1.00  0.00     0.080 A 
HETATM    2  C12 UNL     1      22.320   0.596  53.206  1.00  0.00     0.100 A 
HETATM    3  N3  UNL     1      22.548  -0.670  53.433  1.00  0.00    -0.274 NA
HETATM    4  C13 UNL     1      23.955  -0.913  53.329  1.00  0.00     0.141 A 
HETATM    5  C14 UNL     1      24.589   0.234  53.031  1.00  0.00     0.033 A 
ENDROOT
BRANCH   1   6
HETATM    6  C10 UNL     1      23.643   1.884  51.522  1.00  0.00     0.050 C 
BRANCH   6   7
HETATM    7  C9  UNL     1      24.419   3.181  51.485  1.00  0.00     0.140 C 
HETATM    8  O2  UNL     1      24.144   3.910  52.622  1.00  0.00    -0.383 OA
HETATM    9  C8  UNL     1      23.107   4.806  52.498  1.00  0.00     0.188 C 
HETATM   10  C7  UNL     1      23.343   5.891  51.468  1.00  0.00     0.152 C 
HETATM   11  N2  UNL     1      24.350   5.363  50.544  1.00  0.00    -0.344 N 
HETATM   12  C6  UNL     1      25.484   6.054  49.974  1.00  0.00     0.243 C 
HETATM   13  C21 UNL     1      24.099   3.969  50.215  1.00  0.00     0.158 C 
HETATM   14  O1  UNL     1      26.229   5.403  49.201  1.00  0.00    -0.268 OA
BRANCH  12  15
HETATM   15  C5  UNL     1      25.706   7.447  50.314  1.00  0.00     0.072 C 
HETATM   16  C4  UNL     1      25.189   8.456  49.641  1.00  0.00     0.008 C 
BRANCH  16  17
HETATM   17  C3  UNL     1      24.314   8.616  48.459  1.00  0.00     0.299 C 
BRANCH  17  18
HETATM   18  N1  UNL     1      22.936   8.339  48.790  1.00  0.00     0.083 N 
HETATM   19  C1  UNL     1      22.172   9.546  48.558  1.00  0.00     0.309 C 
HETATM   20  C2  UNL     1      22.496   7.215  47.990  1.00  0.00     0.309 C 
ENDBRANCH  17  18
ENDBRANCH  16  17
ENDBRANCH  12  15
ENDBRANCH   6   7
ENDBRANCH   1   6
BRANCH   5  21
HETATM   21  N4  UNL     1      25.988   0.029  52.920  1.00  0.00    -0.373 N 
HETATM   22  H21 UNL     1      26.095  -0.350  51.938  1.00  0.00     0.161 HD
BRANCH  21  23
HETATM   23  C15 UNL     1      27.017   0.276  53.901  1.00  0.00     0.093 A 
HETATM   24  C16 UNL     1      26.421   0.151  55.264  1.00  0.00     0.050 C 
HETATM   25  C17 UNL     1      28.239  -0.495  53.675  1.00  0.00     0.011 A 
HETATM   26  C18 UNL     1      29.285   0.315  53.478  1.00  0.00     0.001 A 
HETATM   27  C19 UNL     1      28.844   1.713  53.556  1.00  0.00     0.035 A 
HETATM   28  C20 UNL     1      27.543   1.683  53.798  1.00  0.00     0.074 A 
BRANCH  28  29
HETATM   29  O3  UNL     1      26.690   2.754  53.953  1.00  0.00    -0.362 OA
HETATM   30  H28 UNL     1      26.605   3.453  53.233  1.00  0.00     0.217 HD
ENDBRANCH  28  29
ENDBRANCH  21  23
ENDBRANCH   5  21
TORSDOF 8
ENDMDL
MODEL 6
REMARK VINA RESULT:      -6.8      3.005      3.783
REMARK  8 active torsions:
REMARK  status: ('A' for Active; 'I' for Inactive)
REMARK    1  A    between atoms: N1_2  and  C3_4 
REMARK    2  A    between atoms: C3_4  and  C4_5 
REMARK    3  A    between atoms: C5_6  and  C6_7 
REMARK       I    between atoms: C6_7  and  N2_9 
REMARK    4  A    between atoms: C9_13  and  C10_14 
REMARK    5  A    between atoms: C10_14  and  C11_15 
REMARK    6  A    between atoms: C14_19  and  N4_20 
REMARK    7  A    between atoms: N4_20  and  C15_21 
REMARK    8  A    between atoms: C20_26  and  O3_27 
ROOT
HETATM    1  C11 UNL     1      23.449   1.343  52.993  1.00  0.00     0.080 A 
HETATM    2  C12 UNL     1      22.310   0.399  52.871  1.00  0.00     0.100 A 
HETATM    3  N3  UNL     1      22.645  -0.795  53.281  1.00  0.00    -0.274 NA
HETATM    4  C13 UNL     1      24.010  -0.771  53.710  1.00  0.00     0.141 A 
HETATM    5  C14 UNL     1      24.510   0.466  53.553  1.00  0.00     0.033 A 
ENDROOT
BRANCH   1   6
HETATM    6  C10 UNL     1      23.927   1.869  51.658  1.00  0.00     0.050 C 
BRANCH   6   7
HETATM    7  C9  UNL     1      24.250   3.343  51.736  1.00  0.00     0.140 C 
HETATM    8  O2  UNL     1      23.447   3.937  52.686  1.00  0.00    -0.383 OA
HETATM    9  C8  UNL     1      22.272   4.466  52.202  1.00  0.00     0.188 C 
HETATM   10  C7  UNL     1      22.461   5.582  51.196  1.00  0.00     0.152 C 
HETATM   11  N2  UNL     1      23.806   5.405  50.640  1.00  0.00    -0.344 N 
HETATM   12  C6  UNL     1      24.793   6.423  50.358  1.00  0.00     0.243 C 
HETATM   13  C21 UNL     1      24.094   4.007  50.368  1.00  0.00     0.158 C 
HETATM   14  O1  UNL     1      25.892   6.045  49.882  1.00  0.00    -0.268 OA
BRANCH  12  15
HETATM   15  C5  UNL     1      24.474   7.811  50.632  1.00  0.00     0.072 C 
HETATM   16  C4  UNL     1      24.878   8.817  49.882  1.00  0.00     0.008 C 
BRANCH  16  17
HETATM   17  C3  UNL     1      25.685   8.976  48.652  1.00  0.00     0.299 C 
BRANCH  17  18
HETATM   18  N1  UNL     1      26.782   9.891  48.864  1.00  0.00     0.083 N 
HETATM   19  C1  UNL     1      27.766   9.222  49.688  1.00  0.00     0.309 C 
HETATM   20  C2  UNL     1      27.291  10.295  47.570  1.00  0.00     0.309 C 
ENDBRANCH  17  18
ENDBRANCH  16  17
ENDBRANCH  12  15
ENDBRANCH   6   7
ENDBRANCH   1   6
BRANCH   5  21
HETATM   21  N4  UNL     1      25.865   0.527  53.969  1.00  0.00    -0.373 N 
HETATM   22  H21 UNL     1      25.801   0.346  55.010  1.00  0.00     0.161 HD
BRANCH  21  23
HETATM   23  C15 UNL     1      27.043   0.773  53.174  1.00  0.00     0.093 A 
HETATM   24  C16 UNL     1      26.889   0.080  51.860  1.00  0.00     0.050 C 
HETATM   25  C17 UNL     1      27.416   2.186  53.101  1.00  0.00     0.011 A 
HETATM   26  C18 UNL     1      28.637   2.383  53.610  1.00  0.00     0.001 A 
HETATM   27  C19 UNL     1      29.189   1.105  54.072  1.00  0.00     0.035 A 
HETATM   28  C20 UNL     1      28.270   0.185  53.819  1.00  0.00     0.074 A 
BRANCH  28  29
HETATM   29  O3  UNL     1      28.336  -1.166  54.078  1.00  0.00    -0.362 OA
HETATM   30  H28 UNL     1      28.598  -1.817  53.356  1.00  0.00     0.217 HD
ENDBRANCH  28  29
ENDBRANCH  21  23
ENDBRANCH   5  21
TORSDOF 8
ENDMDL
MODEL 7
REMARK VINA RESULT:      -6.6      3.480      5.217
REMARK  8 active torsions:
REMARK  status: ('A' for Active; 'I' for Inactive)
REMARK    1  A    between atoms: N1_2  and  C3_4 
REMARK    2  A    between atoms: C3_4  and  C4_5 
REMARK    3  A    between atoms: C5_6  and  C6_7 
REMARK       I    between atoms: C6_7  and  N2_9 
REMARK    4  A    between atoms: C9_13  and  C10_14 
REMARK    5  A    between atoms: C10_14  and  C11_15 
REMARK    6  A    between atoms: C14_19  and  N4_20 
REMARK    7  A    between atoms: N4_20  and  C15_21 
REMARK    8  A    between atoms: C20_26  and  O3_27 
ROOT
HETATM    1  C11 UNL     1      24.093   0.788  52.552  1.00  0.00     0.080 A 
HETATM    2  C12 UNL     1      25.286   0.541  53.401  1.00  0.00     0.100 A 
HETATM    3  N3  UNL     1      25.048  -0.392  54.284  1.00  0.00    -0.274 NA
HETATM    4  C13 UNL     1      23.702  -0.853  54.118  1.00  0.00     0.141 A 
HETATM    5  C14 UNL     1      23.117  -0.181  53.113  1.00  0.00     0.033 A 
ENDROOT
BRANCH   1   6
HETATM    6  C10 UNL     1      23.527   2.179  52.719  1.00  0.00     0.050 C 
BRANCH   6   7
HETATM    7  C9  UNL     1      24.417   3.214  52.068  1.00  0.00     0.140 C 
HETATM    8  O2  UNL     1      23.893   4.470  52.288  1.00  0.00    -0.383 OA
HETATM    9  C8  UNL     1      23.049   4.926  51.301  1.00  0.00     0.188 C 
HETATM   10  C7  UNL     1      23.706   5.083  49.946  1.00  0.00     0.152 C 
HETATM   11  N2  UNL     1      24.880   4.207  49.959  1.00  0.00    -0.344 N 
HETATM   12  C6  UNL     1      26.203   4.485  49.447  1.00  0.00     0.243 C 
HETATM   13  C21 UNL     1      24.587   2.924  50.577  1.00  0.00     0.158 C 
HETATM   14  O1  UNL     1      27.071   3.584  49.567  1.00  0.00    -0.268 OA
BRANCH  12  15
HETATM   15  C5  UNL     1      26.465   5.770  48.827  1.00  0.00     0.072 C 
HETATM   16  C4  UNL     1      27.643   6.130  48.357  1.00  0.00     0.008 C 
BRANCH  16  17
HETATM   17  C3  UNL     1      28.987   5.518  48.259  1.00  0.00     0.299 C 
BRANCH  17  18
HETATM   18  N1  UNL     1      30.002   6.523  48.047  1.00  0.00     0.083 N 
HETATM   19  C1  UNL     1      31.228   5.845  47.684  1.00  0.00     0.309 C 
HETATM   20  C2  UNL     1      29.527   7.440  47.032  1.00  0.00     0.309 C 
ENDBRANCH  17  18
ENDBRANCH  16  17
ENDBRANCH  12  15
ENDBRANCH   6   7
ENDBRANCH   1   6
BRANCH   5  21
HETATM   21  N4  UNL     1      21.779  -0.614  52.920  1.00  0.00    -0.373 N 
HETATM   22  H21 UNL     1      21.901  -1.576  52.497  1.00  0.00     0.161 HD
BRANCH  21  23
HETATM   23  C15 UNL     1      20.553   0.082  53.225  1.00  0.00     0.093 A 
HETATM   24  C16 UNL     1      20.664   0.674  54.592  1.00  0.00     0.050 C 
HETATM   25  C17 UNL     1      20.124   1.003  52.173  1.00  0.00     0.011 A 
HETATM   26  C18 UNL     1      18.925   0.655  51.694  1.00  0.00     0.001 A 
HETATM   27  C19 UNL     1      18.446  -0.543  52.394  1.00  0.00     0.035 A 
HETATM   28  C20 UNL     1      19.384  -0.866  53.271  1.00  0.00     0.074 A 
BRANCH  28  29
HETATM   29  O3  UNL     1      19.382  -1.921  54.157  1.00  0.00    -0.362 OA
HETATM   30  H28 UNL     1      18.667  -2.628  54.114  1.00  0.00     0.217 HD
ENDBRANCH  28  29
ENDBRANCH  21  23
ENDBRANCH   5  21
TORSDOF 8
ENDMDL
MODEL 8
REMARK VINA RESULT:      -6.6      8.679     11.183
REMARK  8 active torsions:
REMARK  status: ('A' for Active; 'I' for Inactive)
REMARK    1  A    between atoms: N1_2  and  C3_4 
REMARK    2  A    between atoms: C3_4  and  C4_5 
REMARK    3  A    between atoms: C5_6  and  C6_7 
REMARK       I    between atoms: C6_7  and  N2_9 
REMARK    4  A    between atoms: C9_13  and  C10_14 
REMARK    5  A    between atoms: C10_14  and  C11_15 
REMARK    6  A    between atoms: C14_19  and  N4_20 
REMARK    7  A    between atoms: N4_20  and  C15_21 
REMARK    8  A    between atoms: C20_26  and  O3_27 
ROOT
HETATM    1  C11 UNL     1      33.701   8.301  47.466  1.00  0.00     0.080 A 
HETATM    2  C12 UNL     1      34.972   9.045  47.647  1.00  0.00     0.100 A 
HETATM    3  N3  UNL     1      35.899   8.273  48.147  1.00  0.00    -0.274 NA
HETATM    4  C13 UNL     1      35.354   6.964  48.347  1.00  0.00     0.141 A 
HETATM    5  C14 UNL     1      34.068   6.948  47.958  1.00  0.00     0.033 A 
ENDROOT
BRANCH   1   6
HETATM    6  C10 UNL     1      32.578   8.830  48.329  1.00  0.00     0.050 C 
BRANCH   6   7
HETATM    7  C9  UNL     1      31.233   8.350  47.832  1.00  0.00     0.140 C 
HETATM    8  O2  UNL     1      30.539   9.413  47.296  1.00  0.00    -0.383 OA
HETATM    9  C8  UNL     1      29.710  10.067  48.179  1.00  0.00     0.188 C 
HETATM   10  C7  UNL     1      28.599   9.206  48.741  1.00  0.00     0.152 C 
HETATM   11  N2  UNL     1      29.048   7.819  48.601  1.00  0.00    -0.344 N 
HETATM   12  C6  UNL     1      28.277   6.672  48.176  1.00  0.00     0.243 C 
HETATM   13  C21 UNL     1      30.450   7.670  48.955  1.00  0.00     0.158 C 
HETATM   14  O1  UNL     1      28.868   5.565  48.123  1.00  0.00    -0.268 OA
BRANCH  12  15
HETATM   15  C5  UNL     1      26.877   6.848  47.838  1.00  0.00     0.072 C 
HETATM   16  C4  UNL     1      25.882   6.409  48.583  1.00  0.00     0.008 C 
BRANCH  16  17
HETATM   17  C3  UNL     1      25.747   5.677  49.861  1.00  0.00     0.299 C 
BRANCH  17  18
HETATM   18  N1  UNL     1      25.312   4.318  49.638  1.00  0.00     0.083 N 
HETATM   19  C1  UNL     1      26.490   3.481  49.562  1.00  0.00     0.309 C 
HETATM   20  C2  UNL     1      24.411   3.950  50.711  1.00  0.00     0.309 C 
ENDBRANCH  17  18
ENDBRANCH  16  17
ENDBRANCH  12  15
ENDBRANCH   6   7
ENDBRANCH   1   6
BRANCH   5  21
HETATM   21  N4  UNL     1      33.494   5.664  48.142  1.00  0.00    -0.373 N 
HETATM   22  H21 UNL     1      33.208   5.676  49.161  1.00  0.00     0.161 HD
BRANCH  21  23
HETATM   23  C15 UNL     1      33.337   4.600  47.182  1.00  0.00     0.093 A 
HETATM   24  C16 UNL     1      32.006   3.956  47.393  1.00  0.00     0.050 C 
HETATM   25  C17 UNL     1      33.630   5.003  45.806  1.00  0.00     0.011 A 
HETATM   26  C18 UNL     1      34.643   4.287  45.305  1.00  0.00     0.001 A 
HETATM   27  C19 UNL     1      35.118   3.335  46.316  1.00  0.00     0.035 A 
HETATM   28  C20 UNL     1      34.365   3.519  47.389  1.00  0.00     0.074 A 
BRANCH  28  29
HETATM   29  O3  UNL     1      34.437   2.855  48.594  1.00  0.00    -0.362 OA
HETATM   30  H28 UNL     1      35.297   2.833  49.119  1.00  0.00     0.217 HD
ENDBRANCH  28  29
ENDBRANCH  21  23
ENDBRANCH   5  21
TORSDOF 8
ENDMDL
MODEL 9
REMARK VINA RESULT:      -6.5      2.684      4.336
REMARK  8 active torsions:
REMARK  status: ('A' for Active; 'I' for Inactive)
REMARK    1  A    between atoms: N1_2  and  C3_4 
REMARK    2  A    between atoms: C3_4  and  C4_5 
REMARK    3  A    between atoms: C5_6  and  C6_7 
REMARK       I    between atoms: C6_7  and  N2_9 
REMARK    4  A    between atoms: C9_13  and  C10_14 
REMARK    5  A    between atoms: C10_14  and  C11_15 
REMARK    6  A    between atoms: C14_19  and  N4_20 
REMARK    7  A    between atoms: N4_20  and  C15_21 
REMARK    8  A    between atoms: C20_26  and  O3_27 
ROOT
HETATM    1  C11 UNL     1      23.101   0.958  53.102  1.00  0.00     0.080 A 
HETATM    2  C12 UNL     1      21.877   0.632  53.878  1.00  0.00     0.100 A 
HETATM    3  N3  UNL     1      22.000  -0.518  54.485  1.00  0.00    -0.274 NA
HETATM    4  C13 UNL     1      23.289  -1.064  54.184  1.00  0.00     0.141 A 
HETATM    5  C14 UNL     1      23.957  -0.225  53.376  1.00  0.00     0.033 A 
ENDROOT
BRANCH   1   6
HETATM    6  C10 UNL     1      22.855   1.029  51.612  1.00  0.00     0.050 C 
BRANCH   6   7
HETATM    7  C9  UNL     1      21.395   1.277  51.310  1.00  0.00     0.140 C 
HETATM    8  O2  UNL     1      21.028   0.545  50.201  1.00  0.00    -0.383 OA
HETATM    9  C8  UNL     1      21.141   1.212  49.003  1.00  0.00     0.188 C 
HETATM   10  C7  UNL     1      20.258   2.437  48.888  1.00  0.00     0.152 C 
HETATM   11  N2  UNL     1      19.954   2.850  50.261  1.00  0.00    -0.344 N 
HETATM   12  C6  UNL     1      18.689   3.299  50.795  1.00  0.00     0.243 C 
HETATM   13  C21 UNL     1      21.126   2.770  51.117  1.00  0.00     0.158 C 
HETATM   14  O1  UNL     1      18.651   3.603  52.013  1.00  0.00    -0.268 OA
BRANCH  12  15
HETATM   15  C5  UNL     1      17.538   3.378  49.915  1.00  0.00     0.072 C 
HETATM   16  C4  UNL     1      16.459   2.632  50.051  1.00  0.00     0.008 C 
BRANCH  16  17
HETATM   17  C3  UNL     1      16.001   1.575  50.979  1.00  0.00     0.299 C 
BRANCH  17  18
HETATM   18  N1  UNL     1      15.245   2.135  52.075  1.00  0.00     0.083 N 
HETATM   19  C1  UNL     1      14.237   3.010  51.517  1.00  0.00     0.309 C 
HETATM   20  C2  UNL     1      14.697   1.043  52.851  1.00  0.00     0.309 C 
ENDBRANCH  17  18
ENDBRANCH  16  17
ENDBRANCH  12  15
ENDBRANCH   6   7
ENDBRANCH   1   6
BRANCH   5  21
HETATM   21  N4  UNL     1      25.241  -0.736  53.057  1.00  0.00    -0.373 N 
HETATM   22  H21 UNL     1      25.061  -1.773  52.945  1.00  0.00     0.161 HD
BRANCH  21  23
HETATM   23  C15 UNL     1      26.488  -0.024  52.919  1.00  0.00     0.093 A 
HETATM   24  C16 UNL     1      27.614  -0.991  53.083  1.00  0.00     0.050 C 
HETATM   25  C17 UNL     1      26.552   0.820  51.726  1.00  0.00     0.011 A 
HETATM   26  C18 UNL     1      26.724   2.104  52.059  1.00  0.00     0.001 A 
HETATM   27  C19 UNL     1      26.790   2.227  53.520  1.00  0.00     0.035 A 
HETATM   28  C20 UNL     1      26.654   1.004  54.007  1.00  0.00     0.074 A 
BRANCH  28  29
HETATM   29  O3  UNL     1      26.650   0.619  55.329  1.00  0.00    -0.362 OA
HETATM   30  H28 UNL     1      26.042   1.068  55.995  1.00  0.00     0.217 HD
ENDBRANCH  28  29
ENDBRANCH  21  23
ENDBRANCH   5  21
TORSDOF 8
ENDMDL
