MODEL 1
REMARK VINA RESULT:      -8.7      0.000      0.000
REMARK  7 active torsions:
REMARK  status: ('A' for Active; 'I' for Inactive)
REMARK    1  A    between atoms: O1_2  and  C2_3 
REMARK    2  A    between atoms: C6_9  and  N3_10 
REMARK    3  A    between atoms: N3_10  and  C7_11 
REMARK    4  A    between atoms: C15_21  and  C16_22 
REMARK    5  A    between atoms: C16_22  and  C17_23 
REMARK    6  A    between atoms: C17_23  and  C18_24 
REMARK    7  A    between atoms: C18_24  and  N4_25 
ROOT
HETATM    1  C2  UNL     1      19.597  -0.036  52.236  1.00  0.00     0.076 A 
HETATM    2  C3  UNL     1      19.926  -0.594  53.444  1.00  0.00     0.070 A 
HETATM    3  C4  UNL     1      21.250  -0.703  53.799  1.00  0.00     0.074 A 
HETATM    4  N1  UNL     1      21.498  -1.269  55.013  1.00  0.00    -0.241 NA
HETATM    5  C5  UNL     1      22.775  -1.400  55.409  1.00  0.00     0.236 A 
HETATM    6  N2  UNL     1      23.768  -0.983  54.624  1.00  0.00    -0.224 NA
HETATM    7  C6  UNL     1      23.625  -0.419  53.423  1.00  0.00     0.142 A 
HETATM    8  C13 UNL     1      22.313  -0.289  53.027  1.00  0.00     0.039 A 
HETATM    9  C14 UNL     1      21.920   0.262  51.829  1.00  0.00     0.027 A 
HETATM   10  C15 UNL     1      20.609   0.404  51.404  1.00  0.00    -0.024 A 
ENDROOT
BRANCH   7  11
HETATM   11  N3  UNL     1      24.662   0.035  52.577  1.00  0.00    -0.340 N 
HETATM   12  H6  UNL     1      24.474   0.456  51.654  1.00  0.00     0.167 HD
BRANCH  11  13
HETATM   13  C7  UNL     1      26.041  -0.005  52.827  1.00  0.00     0.035 A 
HETATM   14  C8  UNL     1      26.773  -1.168  52.828  1.00  0.00     0.032 A 
HETATM   15  C9  UNL     1      28.126  -1.242  53.086  1.00  0.00     0.046 A 
HETATM   16  C10 UNL     1      28.839  -0.097  53.366  1.00  0.00     0.138 A 
HETATM   17  F1  UNL     1      30.165  -0.072  53.631  1.00  0.00    -0.204 F 
HETATM   18  C11 UNL     1      28.157   1.100  53.378  1.00  0.00     0.074 A 
HETATM   19 CL1  UNL     1      28.979   2.619  53.727  1.00  0.00    -0.081 Cl
HETATM   20  C12 UNL     1      26.807   1.104  53.113  1.00  0.00     0.056 A 
ENDBRANCH  11  13
ENDBRANCH   7  11
BRANCH  10  21
HETATM   21  C16 UNL     1      20.304   1.019  50.061  1.00  0.00     0.043 C 
BRANCH  21  22
HETATM   22  C17 UNL     1      21.595   1.615  49.572  1.00  0.00     0.024 C 
BRANCH  22  23
HETATM   23  C18 UNL     1      21.497   3.082  49.295  1.00  0.00     0.117 C 
BRANCH  23  24
HETATM   24  N4  UNL     1      22.482   3.860  49.970  1.00  0.00    -0.408 N 
HETATM   25  C19 UNL     1      23.810   3.698  49.465  1.00  0.00     0.143 C 
HETATM   26  C20 UNL     1      24.719   2.956  50.417  1.00  0.00     0.187 C 
HETATM   27  O2  UNL     1      24.722   3.707  51.615  1.00  0.00    -0.388 OA
HETATM   28  C21 UNL     1      23.479   3.513  52.194  1.00  0.00     0.187 C 
HETATM   29  C22 UNL     1      22.330   4.009  51.368  1.00  0.00     0.143 C 
ENDBRANCH  23  24
ENDBRANCH  22  23
ENDBRANCH  21  22
ENDBRANCH  10  21
BRANCH   1  30
HETATM   30  O1  UNL     1      18.290   0.096  51.838  1.00  0.00    -0.355 OA
HETATM   31  C1  UNL     1      17.245  -0.786  52.126  1.00  0.00     0.210 C 
ENDBRANCH   1  30
TORSDOF 7
ENDMDL
MODEL 2
REMARK VINA RESULT:      -8.4      2.939      5.574
REMARK  7 active torsions:
REMARK  status: ('A' for Active; 'I' for Inactive)
REMARK    1  A    between atoms: O1_2  and  C2_3 
REMARK    2  A    between atoms: C6_9  and  N3_10 
REMARK    3  A    between atoms: N3_10  and  C7_11 
REMARK    4  A    between atoms: C15_21  and  C16_22 
REMARK    5  A    between atoms: C16_22  and  C17_23 
REMARK    6  A    between atoms: C17_23  and  C18_24 
REMARK    7  A    between atoms: C18_24  and  N4_25 
ROOT
HETATM    1  C2  UNL     1      21.155   0.624  52.597  1.00  0.00     0.076 A 
HETATM    2  C3  UNL     1      20.343   1.525  51.959  1.00  0.00     0.070 A 
HETATM    3  C4  UNL     1      20.855   2.743  51.577  1.00  0.00     0.074 A 
HETATM    4  N1  UNL     1      19.989   3.585  50.950  1.00  0.00    -0.241 NA
HETATM    5  C5  UNL     1      20.438   4.788  50.555  1.00  0.00     0.236 A 
HETATM    6  N2  UNL     1      21.704   5.139  50.778  1.00  0.00    -0.224 NA
HETATM    7  C6  UNL     1      22.624   4.385  51.383  1.00  0.00     0.142 A 
HETATM    8  C13 UNL     1      22.154   3.155  51.783  1.00  0.00     0.039 A 
HETATM    9  C14 UNL     1      22.919   2.209  52.425  1.00  0.00     0.027 A 
HETATM   10  C15 UNL     1      22.473   0.964  52.840  1.00  0.00    -0.024 A 
ENDROOT
BRANCH   7  11
HETATM   11  N3  UNL     1      23.973   4.734  51.624  1.00  0.00    -0.340 N 
HETATM   12  H6  UNL     1      24.298   5.070  52.543  1.00  0.00     0.167 HD
BRANCH  11  13
HETATM   13  C7  UNL     1      25.038   4.687  50.714  1.00  0.00     0.035 A 
HETATM   14  C8  UNL     1      25.763   3.548  50.460  1.00  0.00     0.032 A 
HETATM   15  C9  UNL     1      26.825   3.473  49.583  1.00  0.00     0.046 A 
HETATM   16  C10 UNL     1      27.224   4.593  48.886  1.00  0.00     0.138 A 
HETATM   17  F1  UNL     1      28.252   4.615  48.007  1.00  0.00    -0.204 F 
HETATM   18  C11 UNL     1      26.533   5.765  49.099  1.00  0.00     0.074 A 
HETATM   19 CL1  UNL     1      26.968   7.251  48.257  1.00  0.00    -0.081 Cl
HETATM   20  C12 UNL     1      25.484   5.771  49.989  1.00  0.00     0.056 A 
ENDBRANCH  11  13
ENDBRANCH   7  11
BRANCH  10  21
HETATM   21  C16 UNL     1      23.408   0.014  53.544  1.00  0.00     0.043 C 
BRANCH  21  22
HETATM   22  C17 UNL     1      24.765   0.236  52.936  1.00  0.00     0.024 C 
BRANCH  22  23
HETATM   23  C18 UNL     1      25.874  -0.371  53.737  1.00  0.00     0.117 C 
BRANCH  23  24
HETATM   24  N4  UNL     1      26.686   0.588  54.410  1.00  0.00    -0.408 N 
HETATM   25  C19 UNL     1      26.630   1.904  53.853  1.00  0.00     0.143 C 
HETATM   26  C20 UNL     1      27.911   2.308  53.161  1.00  0.00     0.187 C 
HETATM   27  O2  UNL     1      28.927   2.217  54.141  1.00  0.00    -0.388 OA
HETATM   28  C21 UNL     1      29.131   0.864  54.357  1.00  0.00     0.187 C 
HETATM   29  C22 UNL     1      27.934   0.139  54.897  1.00  0.00     0.143 C 
ENDBRANCH  23  24
ENDBRANCH  22  23
ENDBRANCH  21  22
ENDBRANCH  10  21
BRANCH   1  30
HETATM   30  O1  UNL     1      20.690  -0.603  52.997  1.00  0.00    -0.355 OA
HETATM   31  C1  UNL     1      19.456  -0.865  53.597  1.00  0.00     0.210 C 
ENDBRANCH   1  30
TORSDOF 7
ENDMDL
MODEL 3
REMARK VINA RESULT:      -8.2      3.795      7.302
REMARK  7 active torsions:
REMARK  status: ('A' for Active; 'I' for Inactive)
REMARK    1  A    between atoms: O1_2  and  C2_3 
REMARK    2  A    between atoms: C6_9  and  N3_10 
REMARK    3  A    between atoms: N3_10  and  C7_11 
REMARK    4  A    between atoms: C15_21  and  C16_22 
REMARK    5  A    between atoms: C16_22  and  C17_23 
REMARK    6  A    between atoms: C17_23  and  C18_24 
REMARK    7  A    between atoms: C18_24  and  N4_25 
ROOT
HETATM    1  C2  UNL     1      25.107   5.295  48.993  1.00  0.00     0.076 A 
HETATM    2  C3  UNL     1      23.849   5.636  48.569  1.00  0.00     0.070 A 
HETATM    3  C4  UNL     1      22.829   4.719  48.673  1.00  0.00     0.074 A 
HETATM    4  N1  UNL     1      21.609   5.130  48.230  1.00  0.00    -0.241 NA
HETATM    5  C5  UNL     1      20.577   4.273  48.309  1.00  0.00     0.236 A 
HETATM    6  N2  UNL     1      20.756   3.051  48.810  1.00  0.00    -0.224 NA
HETATM    7  C6  UNL     1      21.910   2.559  49.266  1.00  0.00     0.142 A 
HETATM    8  C13 UNL     1      22.960   3.445  49.181  1.00  0.00     0.039 A 
HETATM    9  C14 UNL     1      24.242   3.162  49.590  1.00  0.00     0.027 A 
HETATM   10  C15 UNL     1      25.318   4.032  49.516  1.00  0.00    -0.024 A 
ENDROOT
BRANCH   7  11
HETATM   11  N3  UNL     1      22.121   1.270  49.806  1.00  0.00    -0.340 N 
HETATM   12  H6  UNL     1      22.472   0.486  49.236  1.00  0.00     0.167 HD
BRANCH  11  13
HETATM   13  C7  UNL     1      21.904   0.857  51.128  1.00  0.00     0.035 A 
HETATM   14  C8  UNL     1      22.863   0.938  52.109  1.00  0.00     0.032 A 
HETATM   15  C9  UNL     1      22.686   0.527  53.414  1.00  0.00     0.046 A 
HETATM   16  C10 UNL     1      21.480  -0.008  53.811  1.00  0.00     0.138 A 
HETATM   17  F1  UNL     1      21.215  -0.437  55.066  1.00  0.00    -0.204 F 
HETATM   18  C11 UNL     1      20.480  -0.113  52.869  1.00  0.00     0.074 A 
HETATM   19 CL1  UNL     1      18.903  -0.786  53.279  1.00  0.00    -0.081 Cl
HETATM   20  C12 UNL     1      20.723   0.315  51.585  1.00  0.00     0.056 A 
ENDBRANCH  11  13
ENDBRANCH   7  11
BRANCH  10  21
HETATM   21  C16 UNL     1      26.683   3.602  49.990  1.00  0.00     0.043 C 
BRANCH  21  22
HETATM   22  C17 UNL     1      26.479   2.311  50.734  1.00  0.00     0.024 C 
BRANCH  22  23
HETATM   23  C18 UNL     1      26.960   2.366  52.149  1.00  0.00     0.117 C 
BRANCH  23  24
HETATM   24  N4  UNL     1      27.440   1.117  52.640  1.00  0.00    -0.408 N 
HETATM   25  C19 UNL     1      26.419   0.236  53.113  1.00  0.00     0.143 C 
HETATM   26  C20 UNL     1      26.434   0.062  54.614  1.00  0.00     0.187 C 
HETATM   27  O2  UNL     1      27.719  -0.437  54.932  1.00  0.00    -0.388 OA
HETATM   28  C21 UNL     1      28.596   0.620  54.756  1.00  0.00     0.187 C 
HETATM   29  C22 UNL     1      28.663   1.137  53.349  1.00  0.00     0.143 C 
ENDBRANCH  23  24
ENDBRANCH  22  23
ENDBRANCH  21  22
ENDBRANCH  10  21
BRANCH   1  30
HETATM   30  O1  UNL     1      26.156   6.175  48.910  1.00  0.00    -0.355 OA
HETATM   31  C1  UNL     1      26.306   7.355  49.643  1.00  0.00     0.210 C 
ENDBRANCH   1  30
TORSDOF 7
ENDMDL
MODEL 4
REMARK VINA RESULT:      -8.0      3.535      5.414
REMARK  7 active torsions:
REMARK  status: ('A' for Active; 'I' for Inactive)
REMARK    1  A    between atoms: O1_2  and  C2_3 
REMARK    2  A    between atoms: C6_9  and  N3_10 
REMARK    3  A    between atoms: N3_10  and  C7_11 
REMARK    4  A    between atoms: C15_21  and  C16_22 
REMARK    5  A    between atoms: C16_22  and  C17_23 
REMARK    6  A    between atoms: C17_23  and  C18_24 
REMARK    7  A    between atoms: C18_24  and  N4_25 
ROOT
HETATM    1  C2  UNL     1      23.125   0.147  53.097  1.00  0.00     0.076 A 
HETATM    2  C3  UNL     1      24.417   0.218  53.549  1.00  0.00     0.070 A 
HETATM    3  C4  UNL     1      25.327   0.998  52.876  1.00  0.00     0.074 A 
HETATM    4  N1  UNL     1      26.589   1.017  53.384  1.00  0.00    -0.241 NA
HETATM    5  C5  UNL     1      27.518   1.764  52.763  1.00  0.00     0.236 A 
HETATM    6  N2  UNL     1      27.199   2.466  51.676  1.00  0.00    -0.224 NA
HETATM    7  C6  UNL     1      25.994   2.509  51.105  1.00  0.00     0.142 A 
HETATM    8  C13 UNL     1      25.050   1.741  51.748  1.00  0.00     0.039 A 
HETATM    9  C14 UNL     1      23.740   1.631  51.344  1.00  0.00     0.027 A 
HETATM   10  C15 UNL     1      22.769   0.865  51.970  1.00  0.00    -0.024 A 
ENDROOT
BRANCH   7  11
HETATM   11  N3  UNL     1      25.632   3.249  49.956  1.00  0.00    -0.340 N 
HETATM   12  H6  UNL     1      24.956   2.894  49.264  1.00  0.00     0.167 HD
BRANCH  11  13
HETATM   13  C7  UNL     1      26.101   4.516  49.580  1.00  0.00     0.035 A 
HETATM   14  C8  UNL     1      27.228   4.707  48.817  1.00  0.00     0.032 A 
HETATM   15  C9  UNL     1      27.723   5.939  48.444  1.00  0.00     0.046 A 
HETATM   16  C10 UNL     1      27.076   7.090  48.838  1.00  0.00     0.138 A 
HETATM   17  F1  UNL     1      27.487   8.339  48.521  1.00  0.00    -0.204 F 
HETATM   18  C11 UNL     1      25.939   6.961  49.605  1.00  0.00     0.074 A 
HETATM   19 CL1  UNL     1      25.043   8.373  50.160  1.00  0.00    -0.081 Cl
HETATM   20  C12 UNL     1      25.500   5.702  49.943  1.00  0.00     0.056 A 
ENDBRANCH  11  13
ENDBRANCH   7  11
BRANCH  10  21
HETATM   21  C16 UNL     1      21.364   0.818  51.426  1.00  0.00     0.043 C 
BRANCH  21  22
HETATM   22  C17 UNL     1      21.497   0.823  49.928  1.00  0.00     0.024 C 
BRANCH  22  23
HETATM   23  C18 UNL     1      20.569   1.787  49.259  1.00  0.00     0.117 C 
BRANCH  23  24
HETATM   24  N4  UNL     1      21.065   2.298  48.024  1.00  0.00    -0.408 N 
HETATM   25  C19 UNL     1      22.435   2.705  48.062  1.00  0.00     0.143 C 
HETATM   26  C20 UNL     1      22.611   4.203  47.973  1.00  0.00     0.187 C 
HETATM   27  O2  UNL     1      22.001   4.593  46.759  1.00  0.00    -0.388 OA
HETATM   28  C21 UNL     1      20.636   4.475  46.958  1.00  0.00     0.187 C 
HETATM   29  C22 UNL     1      20.175   3.078  47.251  1.00  0.00     0.143 C 
ENDBRANCH  23  24
ENDBRANCH  22  23
ENDBRANCH  21  22
ENDBRANCH  10  21
BRANCH   1  30
HETATM   30  O1  UNL     1      22.181  -0.617  53.736  1.00  0.00    -0.355 OA
HETATM   31  C1  UNL     1      22.343  -1.286  54.952  1.00  0.00     0.210 C 
ENDBRANCH   1  30
TORSDOF 7
ENDMDL
MODEL 5
REMARK VINA RESULT:      -7.9      3.513      7.394
REMARK  7 active torsions:
REMARK  status: ('A' for Active; 'I' for Inactive)
REMARK    1  A    between atoms: O1_2  and  C2_3 
REMARK    2  A    between atoms: C6_9  and  N3_10 
REMARK    3  A    between atoms: N3_10  and  C7_11 
REMARK    4  A    between atoms: C15_21  and  C16_22 
REMARK    5  A    between atoms: C16_22  and  C17_23 
REMARK    6  A    between atoms: C17_23  and  C18_24 
REMARK    7  A    between atoms: C18_24  and  N4_25 
ROOT
HETATM    1  C2  UNL     1      25.002   3.547  49.727  1.00  0.00     0.076 A 
HETATM    2  C3  UNL     1      24.057   4.079  48.888  1.00  0.00     0.070 A 
HETATM    3  C4  UNL     1      22.746   4.136  49.298  1.00  0.00     0.074 A 
HETATM    4  N1  UNL     1      21.866   4.677  48.411  1.00  0.00    -0.241 NA
HETATM    5  C5  UNL     1      20.571   4.756  48.761  1.00  0.00     0.236 A 
HETATM    6  N2  UNL     1      20.169   4.311  49.951  1.00  0.00    -0.224 NA
HETATM    7  C6  UNL     1      20.953   3.767  50.883  1.00  0.00     0.142 A 
HETATM    8  C13 UNL     1      22.277   3.690  50.515  1.00  0.00     0.039 A 
HETATM    9  C14 UNL     1      23.270   3.169  51.311  1.00  0.00     0.027 A 
HETATM   10  C15 UNL     1      24.609   3.078  50.967  1.00  0.00    -0.024 A 
ENDROOT
BRANCH   7  11
HETATM   11  N3  UNL     1      20.549   3.293  52.153  1.00  0.00    -0.340 N 
HETATM   12  H6  UNL     1      20.481   3.913  52.974  1.00  0.00     0.167 HD
BRANCH  11  13
HETATM   13  C7  UNL     1      20.193   1.982  52.496  1.00  0.00     0.035 A 
HETATM   14  C8  UNL     1      19.092   1.341  51.981  1.00  0.00     0.032 A 
HETATM   15  C9  UNL     1      18.706   0.058  52.310  1.00  0.00     0.046 A 
HETATM   16  C10 UNL     1      19.447  -0.675  53.212  1.00  0.00     0.138 A 
HETATM   17  F1  UNL     1      19.147  -1.937  53.595  1.00  0.00    -0.204 F 
HETATM   18  C11 UNL     1      20.564  -0.084  53.761  1.00  0.00     0.074 A 
HETATM   19 CL1  UNL     1      21.574  -0.938  54.925  1.00  0.00    -0.081 Cl
HETATM   20  C12 UNL     1      20.892   1.199  53.390  1.00  0.00     0.056 A 
ENDBRANCH  11  13
ENDBRANCH   7  11
BRANCH  10  21
HETATM   21  C16 UNL     1      25.606   2.476  51.925  1.00  0.00     0.043 C 
BRANCH  21  22
HETATM   22  C17 UNL     1      25.320   1.000  51.951  1.00  0.00     0.024 C 
BRANCH  22  23
HETATM   23  C18 UNL     1      24.908   0.504  53.301  1.00  0.00     0.117 C 
BRANCH  23  24
HETATM   24  N4  UNL     1      25.854  -0.377  53.901  1.00  0.00    -0.408 N 
HETATM   25  C19 UNL     1      26.570   0.186  55.003  1.00  0.00     0.143 C 
HETATM   26  C20 UNL     1      28.026   0.448  54.693  1.00  0.00     0.187 C 
HETATM   27  O2  UNL     1      28.573  -0.803  54.321  1.00  0.00    -0.388 OA
HETATM   28  C21 UNL     1      28.059  -1.090  53.068  1.00  0.00     0.187 C 
HETATM   29  C22 UNL     1      26.566  -1.236  53.033  1.00  0.00     0.143 C 
ENDBRANCH  23  24
ENDBRANCH  22  23
ENDBRANCH  21  22
ENDBRANCH  10  21
BRANCH   1  30
HETATM   30  O1  UNL     1      26.323   3.470  49.363  1.00  0.00    -0.355 OA
HETATM   31  C1  UNL     1      27.142   4.538  48.988  1.00  0.00     0.210 C 
ENDBRANCH   1  30
TORSDOF 7
ENDMDL
MODEL 6
REMARK VINA RESULT:      -7.7      5.520      8.549
REMARK  7 active torsions:
REMARK  status: ('A' for Active; 'I' for Inactive)
REMARK    1  A    between atoms: O1_2  and  C2_3 
REMARK    2  A    between atoms: C6_9  and  N3_10 
REMARK    3  A    between atoms: N3_10  and  C7_11 
REMARK    4  A    between atoms: C15_21  and  C16_22 
REMARK    5  A    between atoms: C16_22  and  C17_23 
REMARK    6  A    between atoms: C17_23  and  C18_24 
REMARK    7  A    between atoms: C18_24  and  N4_25 
ROOT
HETATM    1  C2  UNL     1      24.307   5.253  48.928  1.00  0.00     0.076 A 
HETATM    2  C3  UNL     1      24.573   6.408  48.240  1.00  0.00     0.070 A 
HETATM    3  C4  UNL     1      25.877   6.813  48.079  1.00  0.00     0.074 A 
HETATM    4  N1  UNL     1      26.063   7.969  47.385  1.00  0.00    -0.241 NA
HETATM    5  C5  UNL     1      27.318   8.410  47.199  1.00  0.00     0.236 A 
HETATM    6  N2  UNL     1      28.351   7.723  47.686  1.00  0.00    -0.224 NA
HETATM    7  C6  UNL     1      28.269   6.584  48.377  1.00  0.00     0.142 A 
HETATM    8  C13 UNL     1      26.979   6.141  48.562  1.00  0.00     0.039 A 
HETATM    9  C14 UNL     1      26.649   4.992  49.242  1.00  0.00     0.027 A 
HETATM   10  C15 UNL     1      25.361   4.523  49.445  1.00  0.00    -0.024 A 
ENDROOT
BRANCH   7  11
HETATM   11  N3  UNL     1      29.350   5.836  48.899  1.00  0.00    -0.340 N 
HETATM   12  H6  UNL     1      29.234   5.175  49.681  1.00  0.00     0.167 HD
BRANCH  11  13
HETATM   13  C7  UNL     1      30.685   5.861  48.470  1.00  0.00     0.035 A 
HETATM   14  C8  UNL     1      31.634   6.694  49.011  1.00  0.00     0.032 A 
HETATM   15  C9  UNL     1      32.950   6.753  48.602  1.00  0.00     0.046 A 
HETATM   16  C10 UNL     1      33.393   5.938  47.583  1.00  0.00     0.138 A 
HETATM   17  F1  UNL     1      34.662   5.927  47.115  1.00  0.00    -0.204 F 
HETATM   18  C11 UNL     1      32.484   5.081  47.002  1.00  0.00     0.074 A 
HETATM   19 CL1  UNL     1      32.953   4.001  45.690  1.00  0.00    -0.081 Cl
HETATM   20  C12 UNL     1      31.187   5.073  47.457  1.00  0.00     0.056 A 
ENDBRANCH  11  13
ENDBRANCH   7  11
BRANCH  10  21
HETATM   21  C16 UNL     1      25.124   3.249  50.216  1.00  0.00     0.043 C 
BRANCH  21  22
HETATM   22  C17 UNL     1      26.476   2.618  50.405  1.00  0.00     0.024 C 
BRANCH  22  23
HETATM   23  C18 UNL     1      26.798   2.338  51.839  1.00  0.00     0.117 C 
BRANCH  23  24
HETATM   24  N4  UNL     1      26.163   1.169  52.351  1.00  0.00    -0.408 N 
HETATM   25  C19 UNL     1      25.753   1.270  53.717  1.00  0.00     0.143 C 
HETATM   26  C20 UNL     1      26.575   0.409  54.648  1.00  0.00     0.187 C 
HETATM   27  O2  UNL     1      26.434  -0.917  54.174  1.00  0.00    -0.388 OA
HETATM   28  C21 UNL     1      27.164  -0.985  53.000  1.00  0.00     0.187 C 
HETATM   29  C22 UNL     1      26.669  -0.077  51.913  1.00  0.00     0.143 C 
ENDBRANCH  23  24
ENDBRANCH  22  23
ENDBRANCH  21  22
ENDBRANCH  10  21
BRANCH   1  30
HETATM   30  O1  UNL     1      23.022   4.809  49.115  1.00  0.00    -0.355 OA
HETATM   31  C1  UNL     1      22.158   4.334  48.124  1.00  0.00     0.210 C 
ENDBRANCH   1  30
TORSDOF 7
ENDMDL
MODEL 7
REMARK VINA RESULT:      -7.4      3.930      6.391
REMARK  7 active torsions:
REMARK  status: ('A' for Active; 'I' for Inactive)
REMARK    1  A    between atoms: O1_2  and  C2_3 
REMARK    2  A    between atoms: C6_9  and  N3_10 
REMARK    3  A    between atoms: N3_10  and  C7_11 
REMARK    4  A    between atoms: C15_21  and  C16_22 
REMARK    5  A    between atoms: C16_22  and  C17_23 
REMARK    6  A    between atoms: C17_23  and  C18_24 
REMARK    7  A    between atoms: C18_24  and  N4_25 
ROOT
HETATM    1  C2  UNL     1      26.470   0.303  52.940  1.00  0.00     0.076 A 
HETATM    2  C3  UNL     1      25.607  -0.500  53.638  1.00  0.00     0.070 A 
HETATM    3  C4  UNL     1      24.266  -0.195  53.656  1.00  0.00     0.074 A 
HETATM    4  N1  UNL     1      23.472  -1.038  54.371  1.00  0.00    -0.241 NA
HETATM    5  C5  UNL     1      22.153  -0.786  54.421  1.00  0.00     0.236 A 
HETATM    6  N2  UNL     1      21.645   0.268  53.783  1.00  0.00    -0.224 NA
HETATM    7  C6  UNL     1      22.341   1.148  53.061  1.00  0.00     0.142 A 
HETATM    8  C13 UNL     1      23.691   0.881  53.015  1.00  0.00     0.039 A 
HETATM    9  C14 UNL     1      24.606   1.648  52.333  1.00  0.00     0.027 A 
HETATM   10  C15 UNL     1      25.968   1.404  52.270  1.00  0.00    -0.024 A 
ENDROOT
BRANCH   7  11
HETATM   11  N3  UNL     1      21.824   2.269  52.372  1.00  0.00    -0.340 N 
HETATM   12  H6  UNL     1      21.700   3.185  52.828  1.00  0.00     0.167 HD
BRANCH  11  13
HETATM   13  C7  UNL     1      21.415   2.328  51.033  1.00  0.00     0.035 A 
HETATM   14  C8  UNL     1      21.419   1.238  50.195  1.00  0.00     0.032 A 
HETATM   15  C9  UNL     1      21.039   1.266  48.870  1.00  0.00     0.046 A 
HETATM   16  C10 UNL     1      20.613   2.446  48.299  1.00  0.00     0.138 A 
HETATM   17  F1  UNL     1      20.221   2.570  47.011  1.00  0.00    -0.204 F 
HETATM   18  C11 UNL     1      20.587   3.573  49.092  1.00  0.00     0.074 A 
HETATM   19 CL1  UNL     1      20.061   5.129  48.454  1.00  0.00    -0.081 Cl
HETATM   20  C12 UNL     1      20.981   3.476  50.406  1.00  0.00     0.056 A 
ENDBRANCH  11  13
ENDBRANCH   7  11
BRANCH  10  21
HETATM   21  C16 UNL     1      26.875   2.325  51.493  1.00  0.00     0.043 C 
BRANCH  21  22
HETATM   22  C17 UNL     1      26.119   2.702  50.248  1.00  0.00     0.024 C 
BRANCH  22  23
HETATM   23  C18 UNL     1      26.660   3.926  49.581  1.00  0.00     0.117 C 
BRANCH  23  24
HETATM   24  N4  UNL     1      25.853   5.086  49.770  1.00  0.00    -0.408 N 
HETATM   25  C19 UNL     1      24.446   4.831  49.776  1.00  0.00     0.143 C 
HETATM   26  C20 UNL     1      23.741   5.370  48.552  1.00  0.00     0.187 C 
HETATM   27  O2  UNL     1      24.004   6.759  48.535  1.00  0.00    -0.388 OA
HETATM   28  C21 UNL     1      25.336   6.895  48.182  1.00  0.00     0.187 C 
HETATM   29  C22 UNL     1      26.297   6.280  49.157  1.00  0.00     0.143 C 
ENDBRANCH  23  24
ENDBRANCH  22  23
ENDBRANCH  21  22
ENDBRANCH  10  21
BRANCH   1  30
HETATM   30  O1  UNL     1      27.816   0.040  52.892  1.00  0.00    -0.355 OA
HETATM   31  C1  UNL     1      28.703   0.064  53.971  1.00  0.00     0.210 C 
ENDBRANCH   1  30
TORSDOF 7
ENDMDL
MODEL 8
REMARK VINA RESULT:      -7.3      2.886      5.611
REMARK  7 active torsions:
REMARK  status: ('A' for Active; 'I' for Inactive)
REMARK    1  A    between atoms: O1_2  and  C2_3 
REMARK    2  A    between atoms: C6_9  and  N3_10 
REMARK    3  A    between atoms: N3_10  and  C7_11 
REMARK    4  A    between atoms: C15_21  and  C16_22 
REMARK    5  A    between atoms: C16_22  and  C17_23 
REMARK    6  A    between atoms: C17_23  and  C18_24 
REMARK    7  A    between atoms: C18_24  and  N4_25 
ROOT
HETATM    1  C2  UNL     1      22.094  -1.087  54.223  1.00  0.00     0.076 A 
HETATM    2  C3  UNL     1      20.745  -1.006  53.993  1.00  0.00     0.070 A 
HETATM    3  C4  UNL     1      20.288  -0.325  52.889  1.00  0.00     0.074 A 
HETATM    4  N1  UNL     1      18.937  -0.287  52.728  1.00  0.00    -0.241 NA
HETATM    5  C5  UNL     1      18.437   0.366  51.665  1.00  0.00     0.236 A 
HETATM    6  N2  UNL     1      19.254   0.960  50.796  1.00  0.00    -0.224 NA
HETATM    7  C6  UNL     1      20.586   0.978  50.870  1.00  0.00     0.142 A 
HETATM    8  C13 UNL     1      21.088   0.306  51.962  1.00  0.00     0.039 A 
HETATM    9  C14 UNL     1      22.429   0.190  52.246  1.00  0.00     0.027 A 
HETATM   10  C15 UNL     1      22.963  -0.478  53.336  1.00  0.00    -0.024 A 
ENDROOT
BRANCH   7  11
HETATM   11  N3  UNL     1      21.472   1.597  49.958  1.00  0.00    -0.340 N 
HETATM   12  H6  UNL     1      21.575   1.272  48.986  1.00  0.00     0.167 HD
BRANCH  11  13
HETATM   13  C7  UNL     1      22.313   2.692  50.202  1.00  0.00     0.035 A 
HETATM   14  C8  UNL     1      21.897   3.834  50.843  1.00  0.00     0.032 A 
HETATM   15  C9  UNL     1      22.694   4.933  51.084  1.00  0.00     0.046 A 
HETATM   16  C10 UNL     1      24.010   4.934  50.675  1.00  0.00     0.138 A 
HETATM   17  F1  UNL     1      24.866   5.964  50.867  1.00  0.00    -0.204 F 
HETATM   18  C11 UNL     1      24.484   3.814  50.027  1.00  0.00     0.074 A 
HETATM   19 CL1  UNL     1      26.151   3.719  49.463  1.00  0.00    -0.081 Cl
HETATM   20  C12 UNL     1      23.635   2.753  49.817  1.00  0.00     0.056 A 
ENDBRANCH  11  13
ENDBRANCH   7  11
BRANCH  10  21
HETATM   21  C16 UNL     1      24.455  -0.529  53.546  1.00  0.00     0.043 C 
BRANCH  21  22
HETATM   22  C17 UNL     1      25.043   0.488  52.607  1.00  0.00     0.024 C 
BRANCH  22  23
HETATM   23  C18 UNL     1      25.942   1.468  53.291  1.00  0.00     0.117 C 
BRANCH  23  24
HETATM   24  N4  UNL     1      27.314   1.335  52.932  1.00  0.00    -0.408 N 
HETATM   25  C19 UNL     1      27.758  -0.016  52.783  1.00  0.00     0.143 C 
HETATM   26  C20 UNL     1      28.702  -0.454  53.878  1.00  0.00     0.187 C 
HETATM   27  O2  UNL     1      29.794   0.444  53.830  1.00  0.00    -0.388 OA
HETATM   28  C21 UNL     1      29.322   1.649  54.322  1.00  0.00     0.187 C 
HETATM   29  C22 UNL     1      28.218   2.257  53.508  1.00  0.00     0.143 C 
ENDBRANCH  23  24
ENDBRANCH  22  23
ENDBRANCH  21  22
ENDBRANCH  10  21
BRANCH   1  30
HETATM   30  O1  UNL     1      22.598  -1.756  55.310  1.00  0.00    -0.355 OA
HETATM   31  C1  UNL     1      23.735  -1.407  56.042  1.00  0.00     0.210 C 
ENDBRANCH   1  30
TORSDOF 7
ENDMDL
MODEL 9
REMARK VINA RESULT:      -7.1      4.308      6.843
REMARK  7 active torsions:
REMARK  status: ('A' for Active; 'I' for Inactive)
REMARK    1  A    between atoms: O1_2  and  C2_3 
REMARK    2  A    between atoms: C6_9  and  N3_10 
REMARK    3  A    between atoms: N3_10  and  C7_11 
REMARK    4  A    between atoms: C15_21  and  C16_22 
REMARK    5  A    between atoms: C16_22  and  C17_23 
REMARK    6  A    between atoms: C17_23  and  C18_24 
REMARK    7  A    between atoms: C18_24  and  N4_25 
ROOT
HETATM    1  C2  UNL     1      25.872   0.275  53.349  1.00  0.00     0.076 A 
HETATM    2  C3  UNL     1      25.040  -0.459  54.153  1.00  0.00     0.070 A 
HETATM    3  C4  UNL     1      23.682  -0.412  53.941  1.00  0.00     0.074 A 
HETATM    4  N1  UNL     1      22.920  -1.167  54.780  1.00  0.00    -0.241 NA
HETATM    5  C5  UNL     1      21.587  -1.157  54.617  1.00  0.00     0.236 A 
HETATM    6  N2  UNL     1      21.033  -0.422  53.652  1.00  0.00    -0.224 NA
HETATM    7  C6  UNL     1      21.694   0.347  52.786  1.00  0.00     0.142 A 
HETATM    8  C13 UNL     1      23.059   0.330  52.961  1.00  0.00     0.039 A 
HETATM    9  C14 UNL     1      23.945   1.043  52.187  1.00  0.00     0.027 A 
HETATM   10  C15 UNL     1      25.322   1.046  52.341  1.00  0.00    -0.024 A 
ENDROOT
BRANCH   7  11
HETATM   11  N3  UNL     1      21.129   1.130  51.753  1.00  0.00    -0.340 N 
HETATM   12  H6  UNL     1      21.707   1.695  51.113  1.00  0.00     0.167 HD
BRANCH  11  13
HETATM   13  C7  UNL     1      19.770   1.267  51.439  1.00  0.00     0.035 A 
HETATM   14  C8  UNL     1      19.040   0.289  50.808  1.00  0.00     0.032 A 
HETATM   15  C9  UNL     1      17.706   0.399  50.472  1.00  0.00     0.046 A 
HETATM   16  C10 UNL     1      17.013   1.551  50.770  1.00  0.00     0.138 A 
HETATM   17  F1  UNL     1      15.707   1.750  50.479  1.00  0.00    -0.204 F 
HETATM   18  C11 UNL     1      17.693   2.568  51.404  1.00  0.00     0.074 A 
HETATM   19 CL1  UNL     1      16.895   4.081  51.825  1.00  0.00    -0.081 Cl
HETATM   20  C12 UNL     1      19.023   2.394  51.710  1.00  0.00     0.056 A 
ENDBRANCH  11  13
ENDBRANCH   7  11
BRANCH  10  21
HETATM   21  C16 UNL     1      26.191   1.879  51.433  1.00  0.00     0.043 C 
BRANCH  21  22
HETATM   22  C17 UNL     1      25.387   3.103  51.093  1.00  0.00     0.024 C 
BRANCH  22  23
HETATM   23  C18 UNL     1      25.539   3.529  49.667  1.00  0.00     0.117 C 
BRANCH  23  24
HETATM   24  N4  UNL     1      24.866   4.746  49.357  1.00  0.00    -0.408 N 
HETATM   25  C19 UNL     1      25.729   5.811  48.951  1.00  0.00     0.143 C 
HETATM   26  C20 UNL     1      25.830   6.917  49.976  1.00  0.00     0.187 C 
HETATM   27  O2  UNL     1      24.509   7.384  50.173  1.00  0.00    -0.388 OA
HETATM   28  C21 UNL     1      23.852   6.392  50.882  1.00  0.00     0.187 C 
HETATM   29  C22 UNL     1      23.751   5.081  50.159  1.00  0.00     0.143 C 
ENDBRANCH  23  24
ENDBRANCH  22  23
ENDBRANCH  21  22
ENDBRANCH  10  21
BRANCH   1  30
HETATM   30  O1  UNL     1      27.234   0.260  53.521  1.00  0.00    -0.355 OA
HETATM   31  C1  UNL     1      27.913   0.133  54.735  1.00  0.00     0.210 C 
ENDBRANCH   1  30
TORSDOF 7
ENDMDL
