MODEL 1
REMARK VINA RESULT:      -7.8      0.000      0.000
REMARK  6 active torsions:
REMARK  status: ('A' for Active; 'I' for Inactive)
REMARK    1  A    between atoms: C2_2  and  C3_3 
REMARK       I    between atoms: C3_3  and  N1_5 
REMARK    2  A    between atoms: N1_5  and  C4_6 
REMARK    3  A    between atoms: C5_7  and  C6_8 
REMARK    4  A    between atoms: C6_8  and  C7_9 
REMARK    5  A    between atoms: C8_10  and  N2_11 
REMARK    6  A    between atoms: C9_12  and  C10_13 
ROOT
HETATM    1  C10 UNL     1      28.354   0.689  53.042  1.00  0.00     0.202 C 
HETATM    2  C11 UNL     1      28.931   1.504  54.110  1.00  0.00     0.066 C 
HETATM    3  N3  UNL     1      29.377   2.166  54.960  1.00  0.00    -0.197 NA
ENDROOT
BRANCH   1   4
HETATM    4  C9  UNL     1      26.966   0.316  53.427  1.00  0.00     0.124 A 
HETATM    5  N2  UNL     1      25.831   0.678  52.801  1.00  0.00    -0.307 N 
HETATM    6  C17 UNL     1      24.748   0.168  53.410  1.00  0.00     0.069 A 
HETATM    7  C12 UNL     1      25.240  -0.552  54.476  1.00  0.00     0.086 A 
HETATM    8  C16 UNL     1      23.376   0.147  53.300  1.00  0.00     0.032 A 
HETATM    9  N4  UNL     1      26.556  -0.430  54.439  1.00  0.00    -0.232 NA
HETATM   10  C13 UNL     1      24.470  -1.247  55.380  1.00  0.00     0.034 A 
HETATM   11  C14 UNL     1      23.103  -1.240  55.230  1.00  0.00     0.002 A 
HETATM   12  C15 UNL     1      22.557  -0.534  54.177  1.00  0.00     0.002 A 
BRANCH   5  13
HETATM   13  C8  UNL     1      25.745   1.493  51.642  1.00  0.00     0.095 C 
HETATM   14  C7  UNL     1      26.227   2.583  51.073  1.00  0.00    -0.005 C 
BRANCH  14  15
HETATM   15  C6  UNL     1      25.899   3.212  49.749  1.00  0.00     0.057 C 
BRANCH  15  16
HETATM   16  C5  UNL     1      26.755   4.360  49.437  1.00  0.00    -0.006 C 
HETATM   17  C4  UNL     1      27.740   4.766  48.623  1.00  0.00     0.087 C 
BRANCH  17  18
HETATM   18  N1  UNL     1      28.362   6.067  48.630  1.00  0.00    -0.334 N 
HETATM   19  C3  UNL     1      29.751   6.240  48.424  1.00  0.00     0.241 C 
HETATM   20  O1  UNL     1      30.351   5.153  48.242  1.00  0.00    -0.269 OA
HETATM   21  H4  UNL     1      27.551   6.699  48.810  1.00  0.00     0.168 HD
BRANCH  19  22
HETATM   22  C2  UNL     1      30.083   7.675  48.488  1.00  0.00     0.048 C 
HETATM   23  C1  UNL     1      30.860   8.539  47.880  1.00  0.00     0.037 C 
ENDBRANCH  19  22
ENDBRANCH  17  18
ENDBRANCH  15  16
ENDBRANCH  14  15
ENDBRANCH   5  13
ENDBRANCH   1   4
TORSDOF 6
ENDMDL
MODEL 2
REMARK VINA RESULT:      -7.6      2.024      4.002
REMARK  6 active torsions:
REMARK  status: ('A' for Active; 'I' for Inactive)
REMARK    1  A    between atoms: C2_2  and  C3_3 
REMARK       I    between atoms: C3_3  and  N1_5 
REMARK    2  A    between atoms: N1_5  and  C4_6 
REMARK    3  A    between atoms: C5_7  and  C6_8 
REMARK    4  A    between atoms: C6_8  and  C7_9 
REMARK    5  A    between atoms: C8_10  and  N2_11 
REMARK    6  A    between atoms: C9_12  and  C10_13 
ROOT
HETATM    1  C10 UNL     1      23.296  -0.195  53.316  1.00  0.00     0.202 C 
HETATM    2  C11 UNL     1      22.872  -0.979  54.475  1.00  0.00     0.066 C 
HETATM    3  N3  UNL     1      22.549  -1.615  55.398  1.00  0.00    -0.197 NA
ENDROOT
BRANCH   1   4
HETATM    4  C9  UNL     1      24.706   0.234  53.523  1.00  0.00     0.124 A 
HETATM    5  N2  UNL     1      25.255   1.405  53.150  1.00  0.00    -0.307 N 
HETATM    6  C17 UNL     1      26.553   1.471  53.489  1.00  0.00     0.069 A 
HETATM    7  C12 UNL     1      26.824   0.271  54.109  1.00  0.00     0.086 A 
HETATM    8  C16 UNL     1      27.632   2.322  53.411  1.00  0.00     0.032 A 
HETATM    9  N4  UNL     1      25.698  -0.421  54.101  1.00  0.00    -0.232 NA
HETATM   10  C13 UNL     1      28.048  -0.092  54.622  1.00  0.00     0.034 A 
HETATM   11  C14 UNL     1      29.098   0.792  54.521  1.00  0.00     0.002 A 
HETATM   12  C15 UNL     1      28.880   2.009  53.908  1.00  0.00     0.002 A 
BRANCH   5  13
HETATM   13  C8  UNL     1      24.584   2.462  52.481  1.00  0.00     0.095 C 
HETATM   14  C7  UNL     1      23.790   3.501  52.667  1.00  0.00    -0.005 C 
BRANCH  14  15
HETATM   15  C6  UNL     1      23.226   4.480  51.676  1.00  0.00     0.057 C 
BRANCH  15  16
HETATM   16  C5  UNL     1      24.252   5.066  50.809  1.00  0.00    -0.006 C 
HETATM   17  C4  UNL     1      25.076   4.783  49.789  1.00  0.00     0.087 C 
BRANCH  17  18
HETATM   18  N1  UNL     1      26.004   5.698  49.172  1.00  0.00    -0.334 N 
HETATM   19  C3  UNL     1      27.280   5.288  48.721  1.00  0.00     0.241 C 
HETATM   20  O1  UNL     1      27.493   4.068  48.922  1.00  0.00    -0.269 OA
HETATM   21  H4  UNL     1      25.471   6.596  49.186  1.00  0.00     0.168 HD
BRANCH  19  22
HETATM   22  C2  UNL     1      27.991   6.441  48.140  1.00  0.00     0.048 C 
HETATM   23  C1  UNL     1      27.718   7.546  47.488  1.00  0.00     0.037 C 
ENDBRANCH  19  22
ENDBRANCH  17  18
ENDBRANCH  15  16
ENDBRANCH  14  15
ENDBRANCH   5  13
ENDBRANCH   1   4
TORSDOF 6
ENDMDL
MODEL 3
REMARK VINA RESULT:      -7.6      1.786      2.117
REMARK  6 active torsions:
REMARK  status: ('A' for Active; 'I' for Inactive)
REMARK    1  A    between atoms: C2_2  and  C3_3 
REMARK       I    between atoms: C3_3  and  N1_5 
REMARK    2  A    between atoms: N1_5  and  C4_6 
REMARK    3  A    between atoms: C5_7  and  C6_8 
REMARK    4  A    between atoms: C6_8  and  C7_9 
REMARK    5  A    between atoms: C8_10  and  N2_11 
REMARK    6  A    between atoms: C9_12  and  C10_13 
ROOT
HETATM    1  C10 UNL     1      26.921   0.944  52.136  1.00  0.00     0.202 C 
HETATM    2  C11 UNL     1      27.632   1.772  53.109  1.00  0.00     0.066 C 
HETATM    3  N3  UNL     1      28.185   2.445  53.885  1.00  0.00    -0.197 NA
ENDROOT
BRANCH   1   4
HETATM    4  C9  UNL     1      25.600   0.568  52.708  1.00  0.00     0.124 A 
HETATM    5  N2  UNL     1      24.397   1.049  52.343  1.00  0.00    -0.307 N 
HETATM    6  C17 UNL     1      23.407   0.498  53.062  1.00  0.00     0.069 A 
HETATM    7  C12 UNL     1      24.031  -0.376  53.925  1.00  0.00     0.086 A 
HETATM    8  C16 UNL     1      22.037   0.536  53.194  1.00  0.00     0.032 A 
HETATM    9  N4  UNL     1      25.326  -0.294  53.673  1.00  0.00    -0.232 NA
HETATM   10  C13 UNL     1      23.388  -1.162  54.853  1.00  0.00     0.034 A 
HETATM   11  C14 UNL     1      22.018  -1.089  54.948  1.00  0.00     0.002 A 
HETATM   12  C15 UNL     1      21.342  -0.229  54.107  1.00  0.00     0.002 A 
BRANCH   5  13
HETATM   13  C8  UNL     1      24.161   2.016  51.331  1.00  0.00     0.095 C 
HETATM   14  C7  UNL     1      23.327   2.361  50.366  1.00  0.00    -0.005 C 
BRANCH  14  15
HETATM   15  C6  UNL     1      23.373   3.523  49.414  1.00  0.00     0.057 C 
BRANCH  15  16
HETATM   16  C5  UNL     1      24.724   4.063  49.242  1.00  0.00    -0.006 C 
HETATM   17  C4  UNL     1      25.532   5.062  49.629  1.00  0.00     0.087 C 
BRANCH  17  18
HETATM   18  N1  UNL     1      26.895   5.262  49.203  1.00  0.00    -0.334 N 
HETATM   19  C3  UNL     1      27.278   6.351  48.387  1.00  0.00     0.241 C 
HETATM   20  O1  UNL     1      26.312   7.095  48.089  1.00  0.00    -0.269 OA
HETATM   21  H4  UNL     1      27.385   4.453  49.646  1.00  0.00     0.168 HD
BRANCH  19  22
HETATM   22  C2  UNL     1      28.728   6.283  48.124  1.00  0.00     0.048 C 
HETATM   23  C1  UNL     1      29.696   5.399  48.139  1.00  0.00     0.037 C 
ENDBRANCH  19  22
ENDBRANCH  17  18
ENDBRANCH  15  16
ENDBRANCH  14  15
ENDBRANCH   5  13
ENDBRANCH   1   4
TORSDOF 6
ENDMDL
MODEL 4
REMARK VINA RESULT:      -7.2      4.945      7.366
REMARK  6 active torsions:
REMARK  status: ('A' for Active; 'I' for Inactive)
REMARK    1  A    between atoms: C2_2  and  C3_3 
REMARK       I    between atoms: C3_3  and  N1_5 
REMARK    2  A    between atoms: N1_5  and  C4_6 
REMARK    3  A    between atoms: C5_7  and  C6_8 
REMARK    4  A    between atoms: C6_8  and  C7_9 
REMARK    5  A    between atoms: C8_10  and  N2_11 
REMARK    6  A    between atoms: C9_12  and  C10_13 
ROOT
HETATM    1  C10 UNL     1      22.512   2.575  52.314  1.00  0.00     0.202 C 
HETATM    2  C11 UNL     1      22.140   3.972  52.101  1.00  0.00     0.066 C 
HETATM    3  N3  UNL     1      21.833   5.083  51.915  1.00  0.00    -0.197 NA
ENDROOT
BRANCH   1   4
HETATM    4  C9  UNL     1      21.273   1.750  52.323  1.00  0.00     0.124 A 
HETATM    5  N2  UNL     1      21.034   0.663  53.080  1.00  0.00    -0.307 N 
HETATM    6  C17 UNL     1      19.814   0.155  52.842  1.00  0.00     0.069 A 
HETATM    7  C12 UNL     1      19.264   0.974  51.881  1.00  0.00     0.086 A 
HETATM    8  C16 UNL     1      18.993  -0.875  53.241  1.00  0.00     0.032 A 
HETATM    9  N4  UNL     1      20.170   1.899  51.610  1.00  0.00    -0.232 NA
HETATM   10  C13 UNL     1      18.010   0.819  51.336  1.00  0.00     0.034 A 
HETATM   11  C14 UNL     1      17.225  -0.225  51.767  1.00  0.00     0.002 A 
HETATM   12  C15 UNL     1      17.728  -1.077  52.729  1.00  0.00     0.002 A 
BRANCH   5  13
HETATM   13  C8  UNL     1      21.930   0.094  54.023  1.00  0.00     0.095 C 
HETATM   14  C7  UNL     1      22.317  -1.048  54.564  1.00  0.00    -0.005 C 
BRANCH  14  15
HETATM   15  C6  UNL     1      23.363  -1.321  55.607  1.00  0.00     0.057 C 
BRANCH  15  16
HETATM   16  C5  UNL     1      24.728  -1.172  55.095  1.00  0.00    -0.006 C 
HETATM   17  C4  UNL     1      25.513  -0.363  54.369  1.00  0.00     0.087 C 
BRANCH  17  18
HETATM   18  N1  UNL     1      26.906  -0.582  54.067  1.00  0.00    -0.334 N 
HETATM   19  C3  UNL     1      27.883   0.425  54.242  1.00  0.00     0.241 C 
HETATM   20  O1  UNL     1      27.398   1.498  54.678  1.00  0.00    -0.269 OA
HETATM   21  H4  UNL     1      26.907  -1.573  53.737  1.00  0.00     0.168 HD
BRANCH  19  22
HETATM   22  C2  UNL     1      29.205  -0.098  53.851  1.00  0.00     0.048 C 
HETATM   23  C1  UNL     1      29.797  -1.253  53.666  1.00  0.00     0.037 C 
ENDBRANCH  19  22
ENDBRANCH  17  18
ENDBRANCH  15  16
ENDBRANCH  14  15
ENDBRANCH   5  13
ENDBRANCH   1   4
TORSDOF 6
ENDMDL
MODEL 5
REMARK VINA RESULT:      -7.1      2.918      3.739
REMARK  6 active torsions:
REMARK  status: ('A' for Active; 'I' for Inactive)
REMARK    1  A    between atoms: C2_2  and  C3_3 
REMARK       I    between atoms: C3_3  and  N1_5 
REMARK    2  A    between atoms: N1_5  and  C4_6 
REMARK    3  A    between atoms: C5_7  and  C6_8 
REMARK    4  A    between atoms: C6_8  and  C7_9 
REMARK    5  A    between atoms: C8_10  and  N2_11 
REMARK    6  A    between atoms: C9_12  and  C10_13 
ROOT
HETATM    1  C10 UNL     1      27.394  -0.528  53.085  1.00  0.00     0.202 C 
HETATM    2  C11 UNL     1      28.095   0.201  54.141  1.00  0.00     0.066 C 
HETATM    3  N3  UNL     1      28.645   0.798  54.978  1.00  0.00    -0.197 NA
ENDROOT
BRANCH   1   4
HETATM    4  C9  UNL     1      25.930  -0.341  53.271  1.00  0.00     0.124 A 
HETATM    5  N2  UNL     1      25.131   0.501  52.590  1.00  0.00    -0.307 N 
HETATM    6  C17 UNL     1      23.858   0.420  53.008  1.00  0.00     0.069 A 
HETATM    7  C12 UNL     1      23.867  -0.528  54.008  1.00  0.00     0.086 A 
HETATM    8  C16 UNL     1      22.618   0.964  52.758  1.00  0.00     0.032 A 
HETATM    9  N4  UNL     1      25.116  -0.944  54.122  1.00  0.00    -0.232 NA
HETATM   10  C13 UNL     1      22.762  -0.930  54.722  1.00  0.00     0.034 A 
HETATM   11  C14 UNL     1      21.543  -0.358  54.436  1.00  0.00     0.002 A 
HETATM   12  C15 UNL     1      21.479   0.598  53.443  1.00  0.00     0.002 A 
BRANCH   5  13
HETATM   13  C8  UNL     1      25.543   1.380  51.554  1.00  0.00     0.095 C 
HETATM   14  C7  UNL     1      26.187   2.508  51.312  1.00  0.00    -0.005 C 
BRANCH  14  15
HETATM   15  C6  UNL     1      26.462   3.207  50.011  1.00  0.00     0.057 C 
BRANCH  15  16
HETATM   16  C5  UNL     1      25.515   4.290  49.737  1.00  0.00    -0.006 C 
HETATM   17  C4  UNL     1      25.423   5.623  49.615  1.00  0.00     0.087 C 
BRANCH  17  18
HETATM   18  N1  UNL     1      24.223   6.365  49.317  1.00  0.00    -0.334 N 
HETATM   19  C3  UNL     1      23.588   7.189  50.276  1.00  0.00     0.241 C 
HETATM   20  O1  UNL     1      24.182   7.189  51.381  1.00  0.00    -0.269 OA
HETATM   21  H4  UNL     1      24.047   6.108  48.321  1.00  0.00     0.168 HD
BRANCH  19  22
HETATM   22  C2  UNL     1      22.394   7.812  49.676  1.00  0.00     0.048 C 
HETATM   23  C1  UNL     1      21.148   8.072  49.994  1.00  0.00     0.037 C 
ENDBRANCH  19  22
ENDBRANCH  17  18
ENDBRANCH  15  16
ENDBRANCH  14  15
ENDBRANCH   5  13
ENDBRANCH   1   4
TORSDOF 6
ENDMDL
MODEL 6
REMARK VINA RESULT:      -7.1      3.480      7.843
REMARK  6 active torsions:
REMARK  status: ('A' for Active; 'I' for Inactive)
REMARK    1  A    between atoms: C2_2  and  C3_3 
REMARK       I    between atoms: C3_3  and  N1_5 
REMARK    2  A    between atoms: N1_5  and  C4_6 
REMARK    3  A    between atoms: C5_7  and  C6_8 
REMARK    4  A    between atoms: C6_8  and  C7_9 
REMARK    5  A    between atoms: C8_10  and  N2_11 
REMARK    6  A    between atoms: C9_12  and  C10_13 
ROOT
HETATM    1  C10 UNL     1      20.863   3.257  51.118  1.00  0.00     0.202 C 
HETATM    2  C11 UNL     1      20.200   2.448  50.097  1.00  0.00     0.066 C 
HETATM    3  N3  UNL     1      19.675   1.815  49.270  1.00  0.00    -0.197 NA
ENDROOT
BRANCH   1   4
HETATM    4  C9  UNL     1      22.255   3.535  50.673  1.00  0.00     0.124 A 
HETATM    5  N2  UNL     1      23.352   2.807  50.952  1.00  0.00    -0.307 N 
HETATM    6  C17 UNL     1      24.451   3.337  50.394  1.00  0.00     0.069 A 
HETATM    7  C12 UNL     1      24.012   4.461  49.729  1.00  0.00     0.086 A 
HETATM    8  C16 UNL     1      25.806   3.115  50.289  1.00  0.00     0.032 A 
HETATM    9  N4  UNL     1      22.707   4.530  49.928  1.00  0.00    -0.232 NA
HETATM   10  C13 UNL     1      24.815   5.316  49.011  1.00  0.00     0.034 A 
HETATM   11  C14 UNL     1      26.163   5.053  48.933  1.00  0.00     0.002 A 
HETATM   12  C15 UNL     1      26.656   3.939  49.582  1.00  0.00     0.002 A 
BRANCH   5  13
HETATM   13  C8  UNL     1      23.385   1.622  51.734  1.00  0.00     0.095 C 
HETATM   14  C7  UNL     1      22.631   0.778  52.414  1.00  0.00    -0.005 C 
BRANCH  14  15
HETATM   15  C6  UNL     1      23.007  -0.460  53.178  1.00  0.00     0.057 C 
BRANCH  15  16
HETATM   16  C5  UNL     1      24.453  -0.590  53.374  1.00  0.00    -0.006 C 
HETATM   17  C4  UNL     1      25.382  -0.897  54.290  1.00  0.00     0.087 C 
BRANCH  17  18
HETATM   18  N1  UNL     1      26.809  -0.909  54.079  1.00  0.00    -0.334 N 
HETATM   19  C3  UNL     1      27.646   0.143  54.519  1.00  0.00     0.241 C 
HETATM   20  O1  UNL     1      27.009   1.057  55.096  1.00  0.00    -0.269 OA
HETATM   21  H4  UNL     1      26.949  -1.814  53.577  1.00  0.00     0.168 HD
BRANCH  19  22
HETATM   22  C2  UNL     1      29.043  -0.157  54.159  1.00  0.00     0.048 C 
HETATM   23  C1  UNL     1      29.755  -1.160  53.703  1.00  0.00     0.037 C 
ENDBRANCH  19  22
ENDBRANCH  17  18
ENDBRANCH  15  16
ENDBRANCH  14  15
ENDBRANCH   5  13
ENDBRANCH   1   4
TORSDOF 6
ENDMDL
MODEL 7
REMARK VINA RESULT:      -7.1      4.448      8.471
REMARK  6 active torsions:
REMARK  status: ('A' for Active; 'I' for Inactive)
REMARK    1  A    between atoms: C2_2  and  C3_3 
REMARK       I    between atoms: C3_3  and  N1_5 
REMARK    2  A    between atoms: N1_5  and  C4_6 
REMARK    3  A    between atoms: C5_7  and  C6_8 
REMARK    4  A    between atoms: C6_8  and  C7_9 
REMARK    5  A    between atoms: C8_10  and  N2_11 
REMARK    6  A    between atoms: C9_12  and  C10_13 
ROOT
HETATM    1  C10 UNL     1      23.683   1.869  51.795  1.00  0.00     0.202 C 
HETATM    2  C11 UNL     1      23.514   3.308  51.599  1.00  0.00     0.066 C 
HETATM    3  N3  UNL     1      23.382   4.459  51.461  1.00  0.00    -0.197 NA
ENDROOT
BRANCH   1   4
HETATM    4  C9  UNL     1      24.976   1.633  52.492  1.00  0.00     0.124 A 
HETATM    5  N2  UNL     1      25.237   0.680  53.407  1.00  0.00    -0.307 N 
HETATM    6  C17 UNL     1      26.506   0.746  53.838  1.00  0.00     0.069 A 
HETATM    7  C12 UNL     1      27.066   1.800  53.152  1.00  0.00     0.086 A 
HETATM    8  C16 UNL     1      27.370   0.117  54.707  1.00  0.00     0.032 A 
HETATM    9  N4  UNL     1      26.118   2.289  52.371  1.00  0.00    -0.232 NA
HETATM   10  C13 UNL     1      28.367   2.227  53.287  1.00  0.00     0.034 A 
HETATM   11  C14 UNL     1      29.193   1.567  54.167  1.00  0.00     0.002 A 
HETATM   12  C15 UNL     1      28.682   0.502  54.881  1.00  0.00     0.002 A 
BRANCH   5  13
HETATM   13  C8  UNL     1      24.315  -0.289  53.882  1.00  0.00     0.095 C 
HETATM   14  C7  UNL     1      23.849  -0.864  54.977  1.00  0.00    -0.005 C 
BRANCH  14  15
HETATM   15  C6  UNL     1      22.803  -1.929  55.143  1.00  0.00     0.057 C 
BRANCH  15  16
HETATM   16  C5  UNL     1      21.515  -1.557  54.551  1.00  0.00    -0.006 C 
HETATM   17  C4  UNL     1      20.738  -0.503  54.263  1.00  0.00     0.087 C 
BRANCH  17  18
HETATM   18  N1  UNL     1      19.442  -0.553  53.632  1.00  0.00    -0.334 N 
HETATM   19  C3  UNL     1      19.242  -0.165  52.287  1.00  0.00     0.241 C 
HETATM   20  O1  UNL     1      20.301   0.218  51.733  1.00  0.00    -0.269 OA
HETATM   21  H4  UNL     1      18.836  -0.916  54.401  1.00  0.00     0.168 HD
BRANCH  19  22
HETATM   22  C2  UNL     1      17.820  -0.328  51.933  1.00  0.00     0.048 C 
HETATM   23  C1  UNL     1      16.800  -1.084  52.259  1.00  0.00     0.037 C 
ENDBRANCH  19  22
ENDBRANCH  17  18
ENDBRANCH  15  16
ENDBRANCH  14  15
ENDBRANCH   5  13
ENDBRANCH   1   4
TORSDOF 6
ENDMDL
MODEL 8
REMARK VINA RESULT:      -7.1      4.711      7.433
REMARK  6 active torsions:
REMARK  status: ('A' for Active; 'I' for Inactive)
REMARK    1  A    between atoms: C2_2  and  C3_3 
REMARK       I    between atoms: C3_3  and  N1_5 
REMARK    2  A    between atoms: N1_5  and  C4_6 
REMARK    3  A    between atoms: C5_7  and  C6_8 
REMARK    4  A    between atoms: C6_8  and  C7_9 
REMARK    5  A    between atoms: C8_10  and  N2_11 
REMARK    6  A    between atoms: C9_12  and  C10_13 
ROOT
HETATM    1  C10 UNL     1      23.225  -0.146  53.281  1.00  0.00     0.202 C 
HETATM    2  C11 UNL     1      22.803  -0.939  54.434  1.00  0.00     0.066 C 
HETATM    3  N3  UNL     1      22.481  -1.584  55.351  1.00  0.00    -0.197 NA
ENDROOT
BRANCH   1   4
HETATM    4  C9  UNL     1      24.647   0.250  53.472  1.00  0.00     0.124 A 
HETATM    5  N2  UNL     1      25.196   1.446  53.190  1.00  0.00    -0.307 N 
HETATM    6  C17 UNL     1      26.506   1.468  53.483  1.00  0.00     0.069 A 
HETATM    7  C12 UNL     1      26.787   0.213  53.975  1.00  0.00     0.086 A 
HETATM    8  C16 UNL     1      27.592   2.314  53.443  1.00  0.00     0.032 A 
HETATM    9  N4  UNL     1      25.653  -0.466  53.946  1.00  0.00    -0.232 NA
HETATM   10  C13 UNL     1      28.025  -0.208  54.402  1.00  0.00     0.034 A 
HETATM   11  C14 UNL     1      29.081   0.673  54.344  1.00  0.00     0.002 A 
HETATM   12  C15 UNL     1      28.854   1.944  53.859  1.00  0.00     0.002 A 
BRANCH   5  13
HETATM   13  C8  UNL     1      24.513   2.567  52.651  1.00  0.00     0.095 C 
HETATM   14  C7  UNL     1      23.979   3.735  52.962  1.00  0.00    -0.005 C 
BRANCH  14  15
HETATM   15  C6  UNL     1      23.284   4.746  52.093  1.00  0.00     0.057 C 
BRANCH  15  16
HETATM   16  C5  UNL     1      21.857   4.463  51.924  1.00  0.00    -0.006 C 
HETATM   17  C4  UNL     1      20.905   3.563  52.213  1.00  0.00     0.087 C 
BRANCH  17  18
HETATM   18  N1  UNL     1      19.515   3.652  51.841  1.00  0.00    -0.334 N 
HETATM   19  C3  UNL     1      18.687   2.510  51.740  1.00  0.00     0.241 C 
HETATM   20  O1  UNL     1      19.298   1.446  52.005  1.00  0.00    -0.269 OA
HETATM   21  H4  UNL     1      19.388   4.679  51.705  1.00  0.00     0.168 HD
BRANCH  19  22
HETATM   22  C2  UNL     1      17.328   2.920  51.344  1.00  0.00     0.048 C 
HETATM   23  C1  UNL     1      16.526   3.950  51.479  1.00  0.00     0.037 C 
ENDBRANCH  19  22
ENDBRANCH  17  18
ENDBRANCH  15  16
ENDBRANCH  14  15
ENDBRANCH   5  13
ENDBRANCH   1   4
TORSDOF 6
ENDMDL
MODEL 9
REMARK VINA RESULT:      -7.0      3.755      7.969
REMARK  6 active torsions:
REMARK  status: ('A' for Active; 'I' for Inactive)
REMARK    1  A    between atoms: C2_2  and  C3_3 
REMARK       I    between atoms: C3_3  and  N1_5 
REMARK    2  A    between atoms: N1_5  and  C4_6 
REMARK    3  A    between atoms: C5_7  and  C6_8 
REMARK    4  A    between atoms: C6_8  and  C7_9 
REMARK    5  A    between atoms: C8_10  and  N2_11 
REMARK    6  A    between atoms: C9_12  and  C10_13 
ROOT
HETATM    1  C10 UNL     1      27.312   0.193  52.957  1.00  0.00     0.202 C 
HETATM    2  C11 UNL     1      28.164   0.902  53.909  1.00  0.00     0.066 C 
HETATM    3  N3  UNL     1      28.853   1.478  54.654  1.00  0.00    -0.197 NA
ENDROOT
BRANCH   1   4
HETATM    4  C9  UNL     1      26.578   1.196  52.138  1.00  0.00     0.124 A 
HETATM    5  N2  UNL     1      25.254   1.440  52.158  1.00  0.00    -0.307 N 
HETATM    6  C17 UNL     1      24.919   2.411  51.293  1.00  0.00     0.069 A 
HETATM    7  C12 UNL     1      26.103   2.792  50.703  1.00  0.00     0.086 A 
HETATM    8  C16 UNL     1      23.817   3.102  50.843  1.00  0.00     0.032 A 
HETATM    9  N4  UNL     1      27.051   2.041  51.238  1.00  0.00    -0.232 NA
HETATM   10  C13 UNL     1      26.227   3.770  49.743  1.00  0.00     0.034 A 
HETATM   11  C14 UNL     1      25.097   4.435  49.325  1.00  0.00     0.002 A 
HETATM   12  C15 UNL     1      23.884   4.091  49.884  1.00  0.00     0.002 A 
BRANCH   5  13
HETATM   13  C8  UNL     1      24.299   0.777  52.973  1.00  0.00     0.095 C 
HETATM   14  C7  UNL     1      23.923  -0.409  53.417  1.00  0.00    -0.005 C 
BRANCH  14  15
HETATM   15  C6  UNL     1      22.791  -0.789  54.329  1.00  0.00     0.057 C 
BRANCH  15  16
HETATM   16  C5  UNL     1      21.479  -0.652  53.693  1.00  0.00    -0.006 C 
HETATM   17  C4  UNL     1      20.478   0.216  53.487  1.00  0.00     0.087 C 
BRANCH  17  18
HETATM   18  N1  UNL     1      19.263  -0.049  52.756  1.00  0.00    -0.334 N 
HETATM   19  C3  UNL     1      19.145   0.212  51.371  1.00  0.00     0.241 C 
HETATM   20  O1  UNL     1      20.196   0.688  50.878  1.00  0.00    -0.269 OA
HETATM   21  H4  UNL     1      18.637  -0.430  53.499  1.00  0.00     0.168 HD
BRANCH  19  22
HETATM   22  C2  UNL     1      17.794  -0.162  50.913  1.00  0.00     0.048 C 
HETATM   23  C1  UNL     1      17.010   0.032  49.879  1.00  0.00     0.037 C 
ENDBRANCH  19  22
ENDBRANCH  17  18
ENDBRANCH  15  16
ENDBRANCH  14  15
ENDBRANCH   5  13
ENDBRANCH   1   4
TORSDOF 6
ENDMDL
