MODEL 1
REMARK VINA RESULT:     -11.5      0.000      0.000
REMARK  0 active torsions:
REMARK  status: ('A' for Active; 'I' for Inactive)
ROOT
HETATM    1  C1  UNL     1      25.500   7.431  50.657  1.00  0.00     0.037 C 
HETATM    2  C2  UNL     1      25.338   6.442  49.522  1.00  0.00     0.112 A 
HETATM    3  N1  UNL     1      26.504   5.625  49.333  1.00  0.00    -0.349 N 
HETATM    4  C3  UNL     1      26.136   4.261  49.516  1.00  0.00     0.248 A 
HETATM    5  O1  UNL     1      27.223   3.607  49.326  1.00  0.00    -0.268 OA
HETATM    6  C4  UNL     1      24.696   4.194  49.837  1.00  0.00     0.020 A 
HETATM    7  C5  UNL     1      24.276   5.429  49.835  1.00  0.00    -0.021 A 
HETATM    8  C6  UNL     1      22.926   5.957  50.097  1.00  0.00     0.151 A 
HETATM    9  N2  UNL     1      22.595   6.068  51.475  1.00  0.00    -0.186 NA
HETATM   10  O2  UNL     1      21.516   5.287  51.692  1.00  0.00    -0.262 OA
HETATM   11  C7  UNL     1      20.950   4.728  50.577  1.00  0.00     0.106 A 
HETATM   12  C8  UNL     1      19.811   3.942  50.339  1.00  0.00    -0.020 A 
HETATM   13  C9  UNL     1      19.533   3.542  49.053  1.00  0.00     0.010 A 
HETATM   14  C10 UNL     1      20.387   3.922  48.011  1.00  0.00     0.001 A 
HETATM   15  C11 UNL     1      21.509   4.699  48.283  1.00  0.00     0.012 A 
HETATM   16  C12 UNL     1      21.816   5.123  49.582  1.00  0.00     0.002 A 
HETATM   17  C13 UNL     1      19.074   3.644  51.583  1.00  0.00     0.068 C 
HETATM   18  C14 UNL     1      18.409   2.304  51.499  1.00  0.00     0.174 C 
HETATM   19  O3  UNL     1      19.398   1.377  51.079  1.00  0.00    -0.362 OA
HETATM   20  C15 UNL     1      18.824   0.079  51.244  1.00  0.00     0.439 C 
HETATM   21  N3  UNL     1      18.639  -0.048  52.725  1.00  0.00     0.107 N 
HETATM   22  C16 UNL     1      17.795  -1.266  52.867  1.00  0.00     0.312 C 
HETATM   23  C17 UNL     1      19.969  -0.523  53.197  1.00  0.00     0.276 C 
HETATM   24  C18 UNL     1      21.058   0.479  52.947  1.00  0.00     0.050 C 
HETATM   25  C19 UNL     1      22.405   0.023  53.543  1.00  0.00     0.125 C 
HETATM   26  N4  UNL     1      23.386   0.993  53.083  1.00  0.00    -0.376 N 
HETATM   27  C20 UNL     1      23.414   2.374  52.624  1.00  0.00     0.158 C 
HETATM   28  C21 UNL     1      24.323   2.301  51.417  1.00  0.00    -0.045 C 
HETATM   29  C22 UNL     1      25.365   1.584  51.882  1.00  0.00    -0.005 A 
HETATM   30  C23 UNL     1      26.792   1.215  51.861  1.00  0.00     0.014 A 
HETATM   31  C24 UNL     1      27.060   0.275  52.780  1.00  0.00     0.003 A 
HETATM   32  C25 UNL     1      25.794  -0.036  53.478  1.00  0.00     0.030 A 
HETATM   33  C26 UNL     1      24.807   0.723  52.958  1.00  0.00     0.041 A 
HETATM   34  C27 UNL     1      24.134   2.847  50.052  1.00  0.00     0.081 C 
HETATM   35  H5  UNL     1      27.288   6.281  49.116  1.00  0.00     0.163 HD
HETATM   36  H7  UNL     1      23.426   5.809  52.057  1.00  0.00     0.155 HD
ENDROOT
TORSDOF 0
ENDMDL
MODEL 2
REMARK VINA RESULT:     -10.4      1.417      1.859
REMARK  0 active torsions:
REMARK  status: ('A' for Active; 'I' for Inactive)
ROOT
HETATM    1  C1  UNL     1      24.568   6.590  51.281  1.00  0.00     0.037 C 
HETATM    2  C2  UNL     1      24.668   5.556  50.180  1.00  0.00     0.112 A 
HETATM    3  N1  UNL     1      25.750   4.634  50.386  1.00  0.00    -0.349 N 
HETATM    4  C3  UNL     1      25.212   3.318  50.483  1.00  0.00     0.248 A 
HETATM    5  O1  UNL     1      26.234   2.566  50.659  1.00  0.00    -0.268 OA
HETATM    6  C4  UNL     1      23.744   3.391  50.340  1.00  0.00     0.020 A 
HETATM    7  C5  UNL     1      23.467   4.655  50.173  1.00  0.00    -0.021 A 
HETATM    8  C6  UNL     1      22.161   5.309  49.986  1.00  0.00     0.151 A 
HETATM    9  N2  UNL     1      21.434   5.525  51.189  1.00  0.00    -0.186 NA
HETATM   10  O2  UNL     1      20.269   4.852  51.079  1.00  0.00    -0.262 OA
HETATM   11  C7  UNL     1      20.023   4.281  49.859  1.00  0.00     0.106 A 
HETATM   12  C8  UNL     1      18.941   3.582  49.298  1.00  0.00    -0.020 A 
HETATM   13  C9  UNL     1      19.035   3.135  48.001  1.00  0.00     0.010 A 
HETATM   14  C10 UNL     1      20.202   3.383  47.268  1.00  0.00     0.001 A 
HETATM   15  C11 UNL     1      21.256   4.076  47.855  1.00  0.00     0.012 A 
HETATM   16  C12 UNL     1      21.188   4.544  49.174  1.00  0.00     0.002 A 
HETATM   17  C13 UNL     1      17.832   3.418  50.257  1.00  0.00     0.068 C 
HETATM   18  C14 UNL     1      17.097   2.136  50.006  1.00  0.00     0.174 C 
HETATM   19  O3  UNL     1      18.072   1.107  49.941  1.00  0.00    -0.362 OA
HETATM   20  C15 UNL     1      17.351  -0.127  49.955  1.00  0.00     0.439 C 
HETATM   21  N3  UNL     1      16.707  -0.154  51.306  1.00  0.00     0.107 N 
HETATM   22  C16 UNL     1      15.745  -1.286  51.211  1.00  0.00     0.312 C 
HETATM   23  C17 UNL     1      17.773  -0.713  52.182  1.00  0.00     0.276 C 
HETATM   24  C18 UNL     1      18.979   0.178  52.258  1.00  0.00     0.050 C 
HETATM   25  C19 UNL     1      20.026  -0.356  53.257  1.00  0.00     0.125 C 
HETATM   26  N4  UNL     1      21.190   0.500  53.099  1.00  0.00    -0.376 N 
HETATM   27  C20 UNL     1      21.493   1.846  52.635  1.00  0.00     0.158 C 
HETATM   28  C21 UNL     1      22.718   1.629  51.775  1.00  0.00    -0.045 C 
HETATM   29  C22 UNL     1      23.491   0.854  52.561  1.00  0.00    -0.005 A 
HETATM   30  C23 UNL     1      24.811   0.364  52.997  1.00  0.00     0.014 A 
HETATM   31  C24 UNL     1      24.689  -0.542  53.979  1.00  0.00     0.003 A 
HETATM   32  C25 UNL     1      23.246  -0.705  54.255  1.00  0.00     0.030 A 
HETATM   33  C26 UNL     1      22.547   0.105  53.432  1.00  0.00     0.041 A 
HETATM   34  C27 UNL     1      23.013   2.111  50.405  1.00  0.00     0.081 C 
HETATM   35  H5  UNL     1      26.622   5.208  50.407  1.00  0.00     0.163 HD
HETATM   36  H7  UNL     1      22.015   5.230  52.008  1.00  0.00     0.155 HD
ENDROOT
TORSDOF 0
ENDMDL
MODEL 3
REMARK VINA RESULT:      -9.6      2.491      6.819
REMARK  0 active torsions:
REMARK  status: ('A' for Active; 'I' for Inactive)
ROOT
HETATM    1  C1  UNL     1      18.150   3.158  49.127  1.00  0.00     0.037 C 
HETATM    2  C2  UNL     1      18.561   4.113  50.228  1.00  0.00     0.112 A 
HETATM    3  N1  UNL     1      18.755   3.449  51.488  1.00  0.00    -0.349 N 
HETATM    4  C3  UNL     1      20.104   3.650  51.901  1.00  0.00     0.248 A 
HETATM    5  O1  UNL     1      20.190   3.036  53.023  1.00  0.00    -0.268 OA
HETATM    6  C4  UNL     1      20.801   4.459  50.881  1.00  0.00     0.020 A 
HETATM    7  C5  UNL     1      19.914   4.702  49.956  1.00  0.00    -0.021 A 
HETATM    8  C6  UNL     1      20.056   5.460  48.701  1.00  0.00     0.151 A 
HETATM    9  N2  UNL     1      20.656   4.730  47.639  1.00  0.00    -0.186 NA
HETATM   10  O2  UNL     1      21.780   5.388  47.285  1.00  0.00    -0.262 OA
HETATM   11  C7  UNL     1      21.981   6.597  47.897  1.00  0.00     0.106 A 
HETATM   12  C8  UNL     1      22.941   7.615  47.776  1.00  0.00    -0.020 A 
HETATM   13  C9  UNL     1      22.837   8.729  48.575  1.00  0.00     0.010 A 
HETATM   14  C10 UNL     1      21.782   8.827  49.490  1.00  0.00     0.001 A 
HETATM   15  C11 UNL     1      20.850   7.798  49.586  1.00  0.00     0.012 A 
HETATM   16  C12 UNL     1      20.930   6.652  48.785  1.00  0.00     0.002 A 
HETATM   17  C13 UNL     1      23.969   7.289  46.769  1.00  0.00     0.068 C 
HETATM   18  C14 UNL     1      25.291   7.887  47.146  1.00  0.00     0.174 C 
HETATM   19  O3  UNL     1      25.543   7.517  48.492  1.00  0.00    -0.362 OA
HETATM   20  C15 UNL     1      26.902   7.873  48.756  1.00  0.00     0.439 C 
HETATM   21  N3  UNL     1      27.692   6.979  47.851  1.00  0.00     0.107 N 
HETATM   22  C16 UNL     1      29.068   7.542  47.921  1.00  0.00     0.312 C 
HETATM   23  C17 UNL     1      27.820   5.722  48.638  1.00  0.00     0.276 C 
HETATM   24  C18 UNL     1      26.493   5.069  48.895  1.00  0.00     0.050 C 
HETATM   25  C19 UNL     1      26.650   3.712  49.610  1.00  0.00     0.125 C 
HETATM   26  N4  UNL     1      25.300   3.286  49.942  1.00  0.00    -0.376 N 
HETATM   27  C20 UNL     1      23.941   3.520  49.475  1.00  0.00     0.158 C 
HETATM   28  C21 UNL     1      23.178   3.714  50.766  1.00  0.00    -0.045 C 
HETATM   29  C22 UNL     1      23.606   2.679  51.515  1.00  0.00    -0.005 A 
HETATM   30  C23 UNL     1      23.405   1.691  52.590  1.00  0.00     0.014 A 
HETATM   31  C24 UNL     1      24.482   0.903  52.728  1.00  0.00     0.003 A 
HETATM   32  C25 UNL     1      25.480   1.336  51.726  1.00  0.00     0.030 A 
HETATM   33  C26 UNL     1      24.973   2.368  51.020  1.00  0.00     0.041 A 
HETATM   34  C27 UNL     1      22.217   4.775  51.150  1.00  0.00     0.081 C 
HETATM   35  H5  UNL     1      17.840   3.009  51.730  1.00  0.00     0.163 HD
HETATM   36  H7  UNL     1      20.823   3.743  47.942  1.00  0.00     0.155 HD
ENDROOT
TORSDOF 0
ENDMDL
MODEL 4
REMARK VINA RESULT:      -9.5      5.257      8.581
REMARK  0 active torsions:
REMARK  status: ('A' for Active; 'I' for Inactive)
ROOT
HETATM    1  C1  UNL     1      31.909   8.016  50.019  1.00  0.00     0.037 C 
HETATM    2  C2  UNL     1      31.502   7.672  48.602  1.00  0.00     0.112 A 
HETATM    3  N1  UNL     1      31.399   6.255  48.387  1.00  0.00    -0.349 N 
HETATM    4  C3  UNL     1      30.062   5.953  47.997  1.00  0.00     0.248 A 
HETATM    5  O1  UNL     1      30.060   4.683  47.822  1.00  0.00    -0.268 OA
HETATM    6  C4  UNL     1      29.280   7.205  47.963  1.00  0.00     0.020 A 
HETATM    7  C5  UNL     1      30.110   8.150  48.307  1.00  0.00    -0.021 A 
HETATM    8  C6  UNL     1      29.873   9.597  48.448  1.00  0.00     0.151 A 
HETATM    9  N2  UNL     1      29.261   9.976  49.674  1.00  0.00    -0.186 NA
HETATM   10  O2  UNL     1      28.091  10.575  49.370  1.00  0.00    -0.262 OA
HETATM   11  C7  UNL     1      27.858  10.788  48.037  1.00  0.00     0.106 A 
HETATM   12  C8  UNL     1      26.844  11.426  47.304  1.00  0.00    -0.020 A 
HETATM   13  C9  UNL     1      26.930  11.454  45.932  1.00  0.00     0.010 A 
HETATM   14  C10 UNL     1      28.020  10.848  45.295  1.00  0.00     0.001 A 
HETATM   15  C11 UNL     1      29.005  10.222  46.053  1.00  0.00     0.012 A 
HETATM   16  C12 UNL     1      28.945  10.179  47.451  1.00  0.00     0.002 A 
HETATM   17  C13 UNL     1      25.788  11.971  48.178  1.00  0.00     0.068 C 
HETATM   18  C14 UNL     1      24.457  11.936  47.490  1.00  0.00     0.174 C 
HETATM   19  O3  UNL     1      24.286  10.619  46.989  1.00  0.00    -0.362 OA
HETATM   20  C15 UNL     1      22.925  10.529  46.563  1.00  0.00     0.439 C 
HETATM   21  N3  UNL     1      22.139  10.671  47.829  1.00  0.00     0.107 N 
HETATM   22  C16 UNL     1      20.741  10.857  47.353  1.00  0.00     0.312 C 
HETATM   23  C17 UNL     1      22.111   9.285  48.372  1.00  0.00     0.276 C 
HETATM   24  C18 UNL     1      23.479   8.780  48.726  1.00  0.00     0.050 C 
HETATM   25  C19 UNL     1      23.423   7.390  49.393  1.00  0.00     0.125 C 
HETATM   26  N4  UNL     1      24.807   6.961  49.521  1.00  0.00    -0.376 N 
HETATM   27  C20 UNL     1      26.129   7.566  49.594  1.00  0.00     0.158 C 
HETATM   28  C21 UNL     1      26.940   6.697  48.659  1.00  0.00    -0.045 C 
HETATM   29  C22 UNL     1      26.599   5.453  49.050  1.00  0.00    -0.005 A 
HETATM   30  C23 UNL     1      26.899   4.018  49.201  1.00  0.00     0.014 A 
HETATM   31  C24 UNL     1      25.869   3.367  49.765  1.00  0.00     0.003 A 
HETATM   32  C25 UNL     1      24.806   4.361  50.026  1.00  0.00     0.030 A 
HETATM   33  C26 UNL     1      25.228   5.574  49.612  1.00  0.00     0.041 A 
HETATM   34  C27 UNL     1      27.864   7.083  47.567  1.00  0.00     0.081 C 
HETATM   35  H5  UNL     1      32.346   5.861  48.585  1.00  0.00     0.163 HD
HETATM   36  H7  UNL     1      29.157   9.135  50.289  1.00  0.00     0.155 HD
ENDROOT
TORSDOF 0
ENDMDL
MODEL 5
REMARK VINA RESULT:      -9.2      2.203      6.133
REMARK  0 active torsions:
REMARK  status: ('A' for Active; 'I' for Inactive)
ROOT
HETATM    1  C1  UNL     1      18.681   3.217  47.240  1.00  0.00     0.037 C 
HETATM    2  C2  UNL     1      18.701   4.022  48.521  1.00  0.00     0.112 A 
HETATM    3  N1  UNL     1      17.610   3.693  49.396  1.00  0.00    -0.349 N 
HETATM    4  C3  UNL     1      18.145   3.213  50.627  1.00  0.00     0.248 A 
HETATM    5  O1  UNL     1      17.116   2.949  51.343  1.00  0.00    -0.268 OA
HETATM    6  C4  UNL     1      19.620   3.227  50.544  1.00  0.00     0.020 A 
HETATM    7  C5  UNL     1      19.902   3.684  49.354  1.00  0.00    -0.021 A 
HETATM    8  C6  UNL     1      21.216   3.905  48.726  1.00  0.00     0.151 A 
HETATM    9  N2  UNL     1      21.816   2.733  48.190  1.00  0.00    -0.186 NA
HETATM   10  O2  UNL     1      22.991   2.555  48.830  1.00  0.00    -0.262 OA
HETATM   11  C7  UNL     1      23.363   3.559  49.683  1.00  0.00     0.106 A 
HETATM   12  C8  UNL     1      24.502   3.816  50.465  1.00  0.00    -0.020 A 
HETATM   13  C9  UNL     1      24.543   4.959  51.228  1.00  0.00     0.010 A 
HETATM   14  C10 UNL     1      23.454   5.840  51.213  1.00  0.00     0.001 A 
HETATM   15  C11 UNL     1      22.341   5.553  50.428  1.00  0.00     0.012 A 
HETATM   16  C12 UNL     1      22.272   4.398  49.640  1.00  0.00     0.002 A 
HETATM   17  C13 UNL     1      25.509   2.745  50.344  1.00  0.00     0.068 C 
HETATM   18  C14 UNL     1      26.275   2.589  51.623  1.00  0.00     0.174 C 
HETATM   19  O3  UNL     1      25.319   2.483  52.667  1.00  0.00    -0.362 OA
HETATM   20  C15 UNL     1      26.044   2.086  53.832  1.00  0.00     0.439 C 
HETATM   21  N3  UNL     1      26.548   0.716  53.496  1.00  0.00     0.107 N 
HETATM   22  C16 UNL     1      27.523   0.427  54.583  1.00  0.00     0.312 C 
HETATM   23  C17 UNL     1      25.402  -0.166  53.849  1.00  0.00     0.276 C 
HETATM   24  C18 UNL     1      24.189   0.104  53.008  1.00  0.00     0.050 C 
HETATM   25  C19 UNL     1      23.050  -0.892  53.306  1.00  0.00     0.125 C 
HETATM   26  N4  UNL     1      21.902  -0.411  52.556  1.00  0.00    -0.376 N 
HETATM   27  C20 UNL     1      21.637   0.409  51.383  1.00  0.00     0.158 C 
HETATM   28  C21 UNL     1      20.508   1.299  51.850  1.00  0.00    -0.045 C 
HETATM   29  C22 UNL     1      19.665   0.419  52.427  1.00  0.00    -0.005 A 
HETATM   30  C23 UNL     1      18.311   0.002  52.833  1.00  0.00     0.014 A 
HETATM   31  C24 UNL     1      18.339  -1.186  53.457  1.00  0.00     0.003 A 
HETATM   32  C25 UNL     1      19.748  -1.632  53.497  1.00  0.00     0.030 A 
HETATM   33  C26 UNL     1      20.520  -0.701  52.899  1.00  0.00     0.041 A 
HETATM   34  C27 UNL     1      20.349   2.768  51.741  1.00  0.00     0.081 C 
HETATM   35  H5  UNL     1      16.736   3.903  48.865  1.00  0.00     0.163 HD
HETATM   36  H7  UNL     1      21.157   1.926  48.286  1.00  0.00     0.155 HD
ENDROOT
TORSDOF 0
ENDMDL
MODEL 6
REMARK VINA RESULT:      -9.1      6.146     10.982
REMARK  0 active torsions:
REMARK  status: ('A' for Active; 'I' for Inactive)
ROOT
HETATM    1  C1  UNL     1      24.509  10.938  45.717  1.00  0.00     0.037 C 
HETATM    2  C2  UNL     1      24.937  11.170  47.150  1.00  0.00     0.112 A 
HETATM    3  N1  UNL     1      24.165  10.403  48.087  1.00  0.00    -0.349 N 
HETATM    4  C3  UNL     1      25.047   9.540  48.802  1.00  0.00     0.248 A 
HETATM    5  O1  UNL     1      24.285   8.902  49.611  1.00  0.00    -0.268 OA
HETATM    6  C4  UNL     1      26.423   9.752  48.310  1.00  0.00     0.020 A 
HETATM    7  C5  UNL     1      26.332  10.668  47.386  1.00  0.00    -0.021 A 
HETATM    8  C6  UNL     1      27.390  11.264  46.553  1.00  0.00     0.151 A 
HETATM    9  N2  UNL     1      27.775  10.474  45.436  1.00  0.00    -0.186 NA
HETATM   10  O2  UNL     1      29.087  10.191  45.578  1.00  0.00    -0.262 OA
HETATM   11  C7  UNL     1      29.722  10.814  46.620  1.00  0.00     0.106 A 
HETATM   12  C8  UNL     1      31.051  10.868  47.074  1.00  0.00    -0.020 A 
HETATM   13  C9  UNL     1      31.345  11.614  48.191  1.00  0.00     0.010 A 
HETATM   14  C10 UNL     1      30.320  12.302  48.852  1.00  0.00     0.001 A 
HETATM   15  C11 UNL     1      29.014  12.224  48.376  1.00  0.00     0.012 A 
HETATM   16  C12 UNL     1      28.685  11.473  47.241  1.00  0.00     0.002 A 
HETATM   17  C13 UNL     1      31.954  10.051  46.240  1.00  0.00     0.068 C 
HETATM   18  C14 UNL     1      33.075   9.491  47.062  1.00  0.00     0.174 C 
HETATM   19  O3  UNL     1      32.487   8.876  48.198  1.00  0.00    -0.362 OA
HETATM   20  C15 UNL     1      33.530   8.136  48.835  1.00  0.00     0.439 C 
HETATM   21  N3  UNL     1      33.882   7.075  47.838  1.00  0.00     0.107 N 
HETATM   22  C16 UNL     1      35.140   6.493  48.379  1.00  0.00     0.312 C 
HETATM   23  C17 UNL     1      32.888   6.002  48.113  1.00  0.00     0.276 C 
HETATM   24  C18 UNL     1      31.478   6.444  47.846  1.00  0.00     0.050 C 
HETATM   25  C19 UNL     1      30.471   5.290  48.025  1.00  0.00     0.125 C 
HETATM   26  N4  UNL     1      29.155   5.896  47.905  1.00  0.00    -0.376 N 
HETATM   27  C20 UNL     1      28.554   7.076  47.301  1.00  0.00     0.158 C 
HETATM   28  C21 UNL     1      27.640   7.577  48.396  1.00  0.00    -0.045 C 
HETATM   29  C22 UNL     1      27.002   6.453  48.778  1.00  0.00    -0.005 A 
HETATM   30  C23 UNL     1      25.833   5.760  49.350  1.00  0.00     0.014 A 
HETATM   31  C24 UNL     1      26.033   4.434  49.395  1.00  0.00     0.003 A 
HETATM   32  C25 UNL     1      27.378   4.170  48.841  1.00  0.00     0.030 A 
HETATM   33  C26 UNL     1      27.943   5.341  48.481  1.00  0.00     0.041 A 
HETATM   34  C27 UNL     1      27.479   8.943  48.948  1.00  0.00     0.081 C 
HETATM   35  H5  UNL     1      23.173  10.706  47.966  1.00  0.00     0.163 HD
HETATM   36  H7  UNL     1      27.165   9.626  45.380  1.00  0.00     0.155 HD
ENDROOT
TORSDOF 0
ENDMDL
MODEL 7
REMARK VINA RESULT:      -8.6      2.529      5.725
REMARK  0 active torsions:
REMARK  status: ('A' for Active; 'I' for Inactive)
ROOT
HETATM    1  C1  UNL     1      25.593   3.234  49.389  1.00  0.00     0.037 C 
HETATM    2  C2  UNL     1      25.072   3.581  50.768  1.00  0.00     0.112 A 
HETATM    3  N1  UNL     1      25.159   4.986  51.052  1.00  0.00    -0.349 N 
HETATM    4  C3  UNL     1      23.846   5.479  51.304  1.00  0.00     0.248 A 
HETATM    5  O1  UNL     1      24.014   6.726  51.551  1.00  0.00    -0.268 OA
HETATM    6  C4  UNL     1      22.885   4.366  51.174  1.00  0.00     0.020 A 
HETATM    7  C5  UNL     1      23.599   3.316  50.872  1.00  0.00    -0.021 A 
HETATM    8  C6  UNL     1      23.164   1.932  50.620  1.00  0.00     0.151 A 
HETATM    9  N2  UNL     1      22.657   1.703  49.312  1.00  0.00    -0.186 NA
HETATM   10  O2  UNL     1      21.381   1.284  49.444  1.00  0.00    -0.262 OA
HETATM   11  C7  UNL     1      20.958   1.056  50.726  1.00  0.00     0.106 A 
HETATM   12  C8  UNL     1      19.777   0.557  51.300  1.00  0.00    -0.020 A 
HETATM   13  C9  UNL     1      19.688   0.460  52.668  1.00  0.00     0.010 A 
HETATM   14  C10 UNL     1      20.771   0.861  53.461  1.00  0.00     0.001 A 
HETATM   15  C11 UNL     1      21.925   1.354  52.859  1.00  0.00     0.012 A 
HETATM   16  C12 UNL     1      22.044   1.463  51.468  1.00  0.00     0.002 A 
HETATM   17  C13 UNL     1      18.766   0.219  50.279  1.00  0.00     0.068 C 
HETATM   18  C14 UNL     1      17.381   0.436  50.811  1.00  0.00     0.174 C 
HETATM   19  O3  UNL     1      17.351   1.742  51.366  1.00  0.00    -0.362 OA
HETATM   20  C15 UNL     1      15.977   2.028  51.638  1.00  0.00     0.439 C 
HETATM   21  N3  UNL     1      15.340   2.062  50.283  1.00  0.00     0.107 N 
HETATM   22  C16 UNL     1      13.883   2.079  50.584  1.00  0.00     0.312 C 
HETATM   23  C17 UNL     1      15.589   3.456  49.822  1.00  0.00     0.276 C 
HETATM   24  C18 UNL     1      17.050   3.754  49.658  1.00  0.00     0.050 C 
HETATM   25  C19 UNL     1      17.288   5.161  49.073  1.00  0.00     0.125 C 
HETATM   26  N4  UNL     1      18.725   5.372  49.130  1.00  0.00    -0.376 N 
HETATM   27  C20 UNL     1      19.939   4.570  49.173  1.00  0.00     0.158 C 
HETATM   28  C21 UNL     1      20.752   5.263  50.244  1.00  0.00    -0.045 C 
HETATM   29  C22 UNL     1      20.653   6.559  49.891  1.00  0.00    -0.005 A 
HETATM   30  C23 UNL     1      21.183   7.935  49.860  1.00  0.00     0.014 A 
HETATM   31  C24 UNL     1      20.341   8.761  49.220  1.00  0.00     0.003 A 
HETATM   32  C25 UNL     1      19.180   7.958  48.781  1.00  0.00     0.030 A 
HETATM   33  C26 UNL     1      19.359   6.678  49.169  1.00  0.00     0.041 A 
HETATM   34  C27 UNL     1      21.466   4.693  51.412  1.00  0.00     0.081 C 
HETATM   35  H5  UNL     1      26.171   5.235  50.988  1.00  0.00     0.163 HD
HETATM   36  H7  UNL     1      22.758   2.574  48.740  1.00  0.00     0.155 HD
ENDROOT
TORSDOF 0
ENDMDL
MODEL 8
REMARK VINA RESULT:      -8.5      2.664      5.706
REMARK  0 active torsions:
REMARK  status: ('A' for Active; 'I' for Inactive)
ROOT
HETATM    1  C1  UNL     1      23.970   3.043  53.408  1.00  0.00     0.037 C 
HETATM    2  C2  UNL     1      24.015   1.982  52.330  1.00  0.00     0.112 A 
HETATM    3  N1  UNL     1      23.779   0.662  52.845  1.00  0.00    -0.349 N 
HETATM    4  C3  UNL     1      22.621   0.128  52.209  1.00  0.00     0.248 A 
HETATM    5  O1  UNL     1      22.486  -1.041  52.718  1.00  0.00    -0.268 OA
HETATM    6  C4  UNL     1      22.092   1.129  51.261  1.00  0.00     0.020 A 
HETATM    7  C5  UNL     1      22.891   2.157  51.350  1.00  0.00    -0.021 A 
HETATM    8  C6  UNL     1      22.841   3.445  50.637  1.00  0.00     0.151 A 
HETATM    9  N2  UNL     1      21.918   4.381  51.179  1.00  0.00    -0.186 NA
HETATM   10  O2  UNL     1      21.021   4.665  50.211  1.00  0.00    -0.262 OA
HETATM   11  C7  UNL     1      21.284   4.130  48.978  1.00  0.00     0.106 A 
HETATM   12  C8  UNL     1      20.683   4.229  47.713  1.00  0.00    -0.020 A 
HETATM   13  C9  UNL     1      21.227   3.533  46.659  1.00  0.00     0.010 A 
HETATM   14  C10 UNL     1      22.363   2.742  46.867  1.00  0.00     0.001 A 
HETATM   15  C11 UNL     1      22.931   2.664  48.135  1.00  0.00     0.012 A 
HETATM   16  C12 UNL     1      22.400   3.363  49.226  1.00  0.00     0.002 A 
HETATM   17  C13 UNL     1      19.490   5.097  47.733  1.00  0.00     0.068 C 
HETATM   18  C14 UNL     1      18.477   4.632  46.730  1.00  0.00     0.174 C 
HETATM   19  O3  UNL     1      18.288   3.243  46.947  1.00  0.00    -0.362 OA
HETATM   20  C15 UNL     1      17.152   2.868  46.166  1.00  0.00     0.439 C 
HETATM   21  N3  UNL     1      16.017   3.616  46.796  1.00  0.00     0.107 N 
HETATM   22  C16 UNL     1      14.905   3.447  45.821  1.00  0.00     0.312 C 
HETATM   23  C17 UNL     1      15.601   2.726  47.915  1.00  0.00     0.276 C 
HETATM   24  C18 UNL     1      16.678   2.558  48.946  1.00  0.00     0.050 C 
HETATM   25  C19 UNL     1      16.194   1.729  50.152  1.00  0.00     0.125 C 
HETATM   26  N4  UNL     1      17.373   1.506  50.974  1.00  0.00    -0.376 N 
HETATM   27  C20 UNL     1      18.669   2.128  51.204  1.00  0.00     0.158 C 
HETATM   28  C21 UNL     1      19.607   0.942  51.212  1.00  0.00    -0.045 C 
HETATM   29  C22 UNL     1      18.971   0.075  52.026  1.00  0.00    -0.005 A 
HETATM   30  C23 UNL     1      18.984  -1.045  52.983  1.00  0.00     0.014 A 
HETATM   31  C24 UNL     1      17.740  -1.354  53.380  1.00  0.00     0.003 A 
HETATM   32  C25 UNL     1      16.813  -0.431  52.691  1.00  0.00     0.030 A 
HETATM   33  C26 UNL     1      17.526   0.401  51.904  1.00  0.00     0.041 A 
HETATM   34  C27 UNL     1      20.890   0.741  50.499  1.00  0.00     0.081 C 
HETATM   35  H5  UNL     1      24.533   0.483  53.545  1.00  0.00     0.163 HD
HETATM   36  H7  UNL     1      21.489   3.987  52.048  1.00  0.00     0.155 HD
ENDROOT
TORSDOF 0
ENDMDL
MODEL 9
REMARK VINA RESULT:      -8.0      2.390      5.769
REMARK  0 active torsions:
REMARK  status: ('A' for Active; 'I' for Inactive)
ROOT
HETATM    1  C1  UNL     1      22.644   6.739  46.386  1.00  0.00     0.037 C 
HETATM    2  C2  UNL     1      22.189   7.255  47.734  1.00  0.00     0.112 A 
HETATM    3  N1  UNL     1      20.859   7.797  47.697  1.00  0.00    -0.349 N 
HETATM    4  C3  UNL     1      20.041   7.053  48.596  1.00  0.00     0.248 A 
HETATM    5  O1  UNL     1      18.886   7.600  48.506  1.00  0.00    -0.268 OA
HETATM    6  C4  UNL     1      20.862   5.999  49.228  1.00  0.00     0.020 A 
HETATM    7  C5  UNL     1      22.058   6.135  48.726  1.00  0.00    -0.021 A 
HETATM    8  C6  UNL     1      23.277   5.352  48.991  1.00  0.00     0.151 A 
HETATM    9  N2  UNL     1      23.349   4.120  48.285  1.00  0.00    -0.186 NA
HETATM   10  O2  UNL     1      23.420   3.135  49.205  1.00  0.00    -0.262 OA
HETATM   11  C7  UNL     1      23.543   3.542  50.507  1.00  0.00     0.106 A 
HETATM   12  C8  UNL     1      23.722   2.881  51.734  1.00  0.00    -0.020 A 
HETATM   13  C9  UNL     1      23.808   3.626  52.887  1.00  0.00     0.010 A 
HETATM   14  C10 UNL     1      23.715   5.021  52.817  1.00  0.00     0.001 A 
HETATM   15  C11 UNL     1      23.535   5.643  51.585  1.00  0.00     0.012 A 
HETATM   16  C12 UNL     1      23.445   4.911  50.394  1.00  0.00     0.002 A 
HETATM   17  C13 UNL     1      23.770   1.416  51.571  1.00  0.00     0.068 C 
HETATM   18  C14 UNL     1      23.203   0.728  52.777  1.00  0.00     0.174 C 
HETATM   19  O3  UNL     1      21.942   1.324  53.037  1.00  0.00    -0.362 OA
HETATM   20  C15 UNL     1      21.308   0.502  54.020  1.00  0.00     0.439 C 
HETATM   21  N3  UNL     1      21.092  -0.802  53.315  1.00  0.00     0.107 N 
HETATM   22  C16 UNL     1      20.696  -1.728  54.411  1.00  0.00     0.312 C 
HETATM   23  C17 UNL     1      19.807  -0.592  52.593  1.00  0.00     0.276 C 
HETATM   24  C18 UNL     1      19.902   0.489  51.556  1.00  0.00     0.050 C 
HETATM   25  C19 UNL     1      18.600   0.617  50.739  1.00  0.00     0.125 C 
HETATM   26  N4  UNL     1      18.774   1.795  49.906  1.00  0.00    -0.376 N 
HETATM   27  C20 UNL     1      19.867   2.577  49.345  1.00  0.00     0.158 C 
HETATM   28  C21 UNL     1      19.425   3.998  49.612  1.00  0.00    -0.045 C 
HETATM   29  C22 UNL     1      18.144   3.987  49.194  1.00  0.00    -0.005 A 
HETATM   30  C23 UNL     1      16.956   4.669  48.649  1.00  0.00     0.014 A 
HETATM   31  C24 UNL     1      15.930   3.815  48.514  1.00  0.00     0.003 A 
HETATM   32  C25 UNL     1      16.395   2.488  48.971  1.00  0.00     0.030 A 
HETATM   33  C26 UNL     1      17.681   2.585  49.366  1.00  0.00     0.041 A 
HETATM   34  C27 UNL     1      20.176   5.131  50.203  1.00  0.00     0.081 C 
HETATM   35  H5  UNL     1      20.884   8.584  47.012  1.00  0.00     0.163 HD
HETATM   36  H7  UNL     1      22.529   4.036  47.641  1.00  0.00     0.155 HD
ENDROOT
TORSDOF 0
ENDMDL
