MODEL 1
REMARK VINA RESULT:      -7.2      0.000      0.000
REMARK  6 active torsions:
REMARK  status: ('A' for Active; 'I' for Inactive)
REMARK    1  A    between atoms: P1_1  and  C1_2 
REMARK    2  A    between atoms: C1_2  and  C2_3 
REMARK    3  A    between atoms: C1_2  and  N1_6 
REMARK    4  A    between atoms: N1_6  and  C4_7 
REMARK    5  A    between atoms: C8_13  and  N4_14 
REMARK    6  A    between atoms: N4_14  and  C9_15 
ROOT
HETATM    1  C4  UNL     1      22.798   0.728  52.223  1.00  0.00     0.182 A 
HETATM    2  C5  UNL     1      22.996  -0.019  53.324  1.00  0.00     0.069 A 
HETATM    3  C6  UNL     1      21.764  -0.489  53.954  1.00  0.00     0.092 A 
HETATM    4  N2  UNL     1      21.918  -1.212  55.017  1.00  0.00    -0.240 NA
HETATM    5  C7  UNL     1      23.240  -1.510  55.509  1.00  0.00     0.230 A 
HETATM    6  N3  UNL     1      24.332  -1.099  54.959  1.00  0.00    -0.252 NA
HETATM    7  C8  UNL     1      24.369  -0.278  53.762  1.00  0.00     0.248 A 
HETATM    8  C15 UNL     1      20.479  -0.124  53.365  1.00  0.00     0.179 A 
HETATM    9  N5  UNL     1      20.403   0.603  52.300  1.00  0.00    -0.136 NA
HETATM   10  O1  UNL     1      21.554   1.051  51.697  1.00  0.00    -0.195 OA
ENDROOT
BRANCH   1  11
HETATM   11  N1  UNL     1      23.931   1.228  51.545  1.00  0.00    -0.357 N 
HETATM   12  H6  UNL     1      24.748   0.578  51.335  1.00  0.00     0.162 HD
BRANCH  11  13
HETATM   13  C1  UNL     1      24.004   2.628  51.120  1.00  0.00     0.130 C 
BRANCH  13  14
HETATM   14  P1  UNL     1      23.621   3.803  52.484  1.00  0.00    -0.113 P 
HETATM   15  H1  UNL     1      23.317   3.191  53.738  1.00  0.00     0.057 HD
HETATM   16  H2  UNL     1      22.611   4.769  52.075  1.00  0.00     0.057 HD
ENDBRANCH  13  14
BRANCH  13  17
HETATM   17  C2  UNL     1      25.311   2.978  50.505  1.00  0.00     0.014 C 
HETATM   18  C3  UNL     1      25.195   3.666  49.372  1.00  0.00     0.083 C 
HETATM   19 CL1  UNL     1      23.605   4.070  48.750  1.00  0.00    -0.097 Cl
ENDBRANCH  13  17
ENDBRANCH  11  13
ENDBRANCH   1  11
BRANCH   7  20
HETATM   20  N4  UNL     1      25.085   0.921  54.147  1.00  0.00    -0.363 N 
HETATM   21  H9  UNL     1      24.550   1.680  54.584  1.00  0.00     0.162 HD
BRANCH  20  22
HETATM   22  C9  UNL     1      26.485   1.041  53.926  1.00  0.00     0.031 A 
HETATM   23  C10 UNL     1      27.086   2.278  53.817  1.00  0.00     0.029 A 
HETATM   24  C11 UNL     1      28.460   2.309  53.600  1.00  0.00     0.004 A 
HETATM   25  C12 UNL     1      29.244   1.167  53.489  1.00  0.00     0.019 A 
HETATM   26  C13 UNL     1      28.612  -0.073  53.602  1.00  0.00     0.013 A 
HETATM   27 BR1  UNL     1      29.652  -1.670  53.455  1.00  0.00    -0.051 Br
HETATM   28  C14 UNL     1      27.254  -0.099  53.817  1.00  0.00     0.048 A 
ENDBRANCH  20  22
ENDBRANCH   7  20
TORSDOF 6
ENDMDL
MODEL 2
REMARK VINA RESULT:      -7.1      3.190      4.718
REMARK  6 active torsions:
REMARK  status: ('A' for Active; 'I' for Inactive)
REMARK    1  A    between atoms: P1_1  and  C1_2 
REMARK    2  A    between atoms: C1_2  and  C2_3 
REMARK    3  A    between atoms: C1_2  and  N1_6 
REMARK    4  A    between atoms: N1_6  and  C4_7 
REMARK    5  A    between atoms: C8_13  and  N4_14 
REMARK    6  A    between atoms: N4_14  and  C9_15 
ROOT
HETATM    1  C4  UNL     1      22.589  -0.007  53.172  1.00  0.00     0.182 A 
HETATM    2  C5  UNL     1      23.904  -0.032  53.455  1.00  0.00     0.069 A 
HETATM    3  C6  UNL     1      24.240  -0.804  54.650  1.00  0.00     0.092 A 
HETATM    4  N2  UNL     1      25.498  -0.849  54.952  1.00  0.00    -0.240 NA
HETATM    5  C7  UNL     1      26.468  -0.168  54.132  1.00  0.00     0.230 A 
HETATM    6  N3  UNL     1      26.180   0.515  53.077  1.00  0.00    -0.252 NA
HETATM    7  C8  UNL     1      24.828   0.685  52.575  1.00  0.00     0.248 A 
HETATM    8  C15 UNL     1      23.171  -1.453  55.403  1.00  0.00     0.179 A 
HETATM    9  N5  UNL     1      21.935  -1.363  55.040  1.00  0.00    -0.136 NA
HETATM   10  O1  UNL     1      21.604  -0.641  53.918  1.00  0.00    -0.195 OA
ENDROOT
BRANCH   1  11
HETATM   11  N1  UNL     1      22.167   0.714  52.034  1.00  0.00    -0.357 N 
HETATM   12  H6  UNL     1      22.843   0.865  51.226  1.00  0.00     0.162 HD
BRANCH  11  13
HETATM   13  C1  UNL     1      20.810   1.261  51.943  1.00  0.00     0.130 C 
BRANCH  13  14
HETATM   14  P1  UNL     1      20.758   3.078  52.231  1.00  0.00    -0.113 P 
HETATM   15  H1  UNL     1      19.448   3.630  52.361  1.00  0.00     0.057 HD
HETATM   16  H2  UNL     1      21.569   3.787  51.251  1.00  0.00     0.057 HD
ENDBRANCH  13  14
BRANCH  13  17
HETATM   17  C2  UNL     1      20.141   0.935  50.656  1.00  0.00     0.014 C 
HETATM   18  C3  UNL     1      19.032   0.214  50.805  1.00  0.00     0.083 C 
HETATM   19 CL1  UNL     1      18.499  -0.253  52.410  1.00  0.00    -0.097 Cl
ENDBRANCH  13  17
ENDBRANCH  11  13
ENDBRANCH   1  11
BRANCH   7  20
HETATM   20  N4  UNL     1      24.609   2.116  52.555  1.00  0.00    -0.363 N 
HETATM   21  H9  UNL     1      24.109   2.537  53.347  1.00  0.00     0.162 HD
BRANCH  20  22
HETATM   22  C9  UNL     1      25.069   2.913  51.471  1.00  0.00     0.031 A 
HETATM   23  C10 UNL     1      26.185   2.553  50.744  1.00  0.00     0.029 A 
HETATM   24  C11 UNL     1      26.571   3.388  49.699  1.00  0.00     0.004 A 
HETATM   25  C12 UNL     1      25.893   4.551  49.359  1.00  0.00     0.019 A 
HETATM   26  C13 UNL     1      24.767   4.895  50.110  1.00  0.00     0.013 A 
HETATM   27 BR1  UNL     1      23.804   6.488  49.676  1.00  0.00    -0.051 Br
HETATM   28  C14 UNL     1      24.389   4.067  51.141  1.00  0.00     0.048 A 
ENDBRANCH  20  22
ENDBRANCH   7  20
TORSDOF 6
ENDMDL
MODEL 3
REMARK VINA RESULT:      -7.1      3.476      5.932
REMARK  6 active torsions:
REMARK  status: ('A' for Active; 'I' for Inactive)
REMARK    1  A    between atoms: P1_1  and  C1_2 
REMARK    2  A    between atoms: C1_2  and  C2_3 
REMARK    3  A    between atoms: C1_2  and  N1_6 
REMARK    4  A    between atoms: N1_6  and  C4_7 
REMARK    5  A    between atoms: C8_13  and  N4_14 
REMARK    6  A    between atoms: N4_14  and  C9_15 
ROOT
HETATM    1  C4  UNL     1      24.647   0.504  53.248  1.00  0.00     0.182 A 
HETATM    2  C5  UNL     1      25.845   1.108  53.162  1.00  0.00     0.069 A 
HETATM    3  C6  UNL     1      26.804   0.675  54.177  1.00  0.00     0.092 A 
HETATM    4  N2  UNL     1      27.969   1.237  54.123  1.00  0.00    -0.240 NA
HETATM    5  C7  UNL     1      28.257   2.220  53.109  1.00  0.00     0.230 A 
HETATM    6  N3  UNL     1      27.417   2.607  52.209  1.00  0.00    -0.252 NA
HETATM    7  C8  UNL     1      26.062   2.096  52.104  1.00  0.00     0.248 A 
HETATM    8  C15 UNL     1      26.400  -0.329  55.157  1.00  0.00     0.179 A 
HETATM    9  N5  UNL     1      25.217  -0.846  55.149  1.00  0.00    -0.136 NA
HETATM   10  O1  UNL     1      24.305  -0.449  54.200  1.00  0.00    -0.195 OA
ENDROOT
BRANCH   1  11
HETATM   11  N1  UNL     1      23.654   0.857  52.309  1.00  0.00    -0.357 N 
HETATM   12  H6  UNL     1      23.927   1.027  51.294  1.00  0.00     0.162 HD
BRANCH  11  13
HETATM   13  C1  UNL     1      22.250   0.994  52.705  1.00  0.00     0.130 C 
BRANCH  13  14
HETATM   14  P1  UNL     1      21.442   2.466  51.949  1.00  0.00    -0.113 P 
HETATM   15  H1  UNL     1      20.655   2.193  50.790  1.00  0.00     0.057 HD
HETATM   16  H2  UNL     1      22.405   3.537  51.731  1.00  0.00     0.057 HD
ENDBRANCH  13  14
BRANCH  13  17
HETATM   17  C2  UNL     1      21.447  -0.223  52.419  1.00  0.00     0.014 C 
HETATM   18  C3  UNL     1      20.825  -0.710  53.491  1.00  0.00     0.083 C 
HETATM   19 CL1  UNL     1      21.002   0.087  55.044  1.00  0.00    -0.097 Cl
ENDBRANCH  13  17
ENDBRANCH  11  13
ENDBRANCH   1  11
BRANCH   7  20
HETATM   20  N4  UNL     1      25.209   3.260  52.221  1.00  0.00    -0.363 N 
HETATM   21  H9  UNL     1      24.989   3.602  53.164  1.00  0.00     0.162 HD
BRANCH  20  22
HETATM   22  C9  UNL     1      24.690   3.908  51.066  1.00  0.00     0.031 A 
HETATM   23  C10 UNL     1      24.650   3.267  49.846  1.00  0.00     0.029 A 
HETATM   24  C11 UNL     1      24.129   3.971  48.765  1.00  0.00     0.004 A 
HETATM   25  C12 UNL     1      23.654   5.273  48.856  1.00  0.00     0.019 A 
HETATM   26  C13 UNL     1      23.706   5.901  50.103  1.00  0.00     0.013 A 
HETATM   27 BR1  UNL     1      23.063   7.694  50.274  1.00  0.00    -0.051 Br
HETATM   28  C14 UNL     1      24.221   5.202  51.168  1.00  0.00     0.048 A 
ENDBRANCH  20  22
ENDBRANCH   7  20
TORSDOF 6
ENDMDL
MODEL 4
REMARK VINA RESULT:      -7.0      1.436      1.941
REMARK  6 active torsions:
REMARK  status: ('A' for Active; 'I' for Inactive)
REMARK    1  A    between atoms: P1_1  and  C1_2 
REMARK    2  A    between atoms: C1_2  and  C2_3 
REMARK    3  A    between atoms: C1_2  and  N1_6 
REMARK    4  A    between atoms: N1_6  and  C4_7 
REMARK    5  A    between atoms: C8_13  and  N4_14 
REMARK    6  A    between atoms: N4_14  and  C9_15 
ROOT
HETATM    1  C4  UNL     1      22.340   1.377  51.648  1.00  0.00     0.182 A 
HETATM    2  C5  UNL     1      22.042   0.455  52.580  1.00  0.00     0.069 A 
HETATM    3  C6  UNL     1      20.635   0.443  52.977  1.00  0.00     0.092 A 
HETATM    4  N2  UNL     1      20.313  -0.434  53.874  1.00  0.00    -0.240 NA
HETATM    5  C7  UNL     1      21.312  -1.320  54.416  1.00  0.00     0.230 A 
HETATM    6  N3  UNL     1      22.555  -1.316  54.072  1.00  0.00    -0.252 NA
HETATM    7  C8  UNL     1      23.111  -0.410  53.083  1.00  0.00     0.248 A 
HETATM    8  C15 UNL     1      19.712   1.389  52.358  1.00  0.00     0.179 A 
HETATM    9  N5  UNL     1      20.106   2.237  51.467  1.00  0.00    -0.136 NA
HETATM   10  O1  UNL     1      21.426   2.260  51.084  1.00  0.00    -0.195 OA
ENDROOT
BRANCH   1  11
HETATM   11  N1  UNL     1      23.675   1.464  51.200  1.00  0.00    -0.357 N 
HETATM   12  H6  UNL     1      24.190   0.581  50.903  1.00  0.00     0.162 HD
BRANCH  11  13
HETATM   13  C1  UNL     1      24.371   2.752  51.135  1.00  0.00     0.130 C 
BRANCH  13  14
HETATM   14  P1  UNL     1      24.055   3.802  52.614  1.00  0.00    -0.113 P 
HETATM   15  H1  UNL     1      23.364   3.150  53.680  1.00  0.00     0.057 HD
HETATM   16  H2  UNL     1      23.436   5.065  52.237  1.00  0.00     0.057 HD
ENDBRANCH  13  14
BRANCH  13  17
HETATM   17  C2  UNL     1      25.834   2.609  50.922  1.00  0.00     0.014 C 
HETATM   18  C3  UNL     1      26.312   3.415  49.977  1.00  0.00     0.083 C 
HETATM   19 CL1  UNL     1      25.233   4.506  49.127  1.00  0.00    -0.097 Cl
ENDBRANCH  13  17
ENDBRANCH  11  13
ENDBRANCH   1  11
BRANCH   7  20
HETATM   20  N4  UNL     1      24.155   0.314  53.778  1.00  0.00    -0.363 N 
HETATM   21  H9  UNL     1      23.875   1.062  54.423  1.00  0.00     0.162 HD
BRANCH  20  22
HETATM   22  C9  UNL     1      25.527  -0.001  53.572  1.00  0.00     0.031 A 
HETATM   23  C10 UNL     1      25.904  -1.177  52.956  1.00  0.00     0.029 A 
HETATM   24  C11 UNL     1      27.266  -1.410  52.793  1.00  0.00     0.004 A 
HETATM   25  C12 UNL     1      28.251  -0.526  53.217  1.00  0.00     0.019 A 
HETATM   26  C13 UNL     1      27.843   0.656  53.837  1.00  0.00     0.013 A 
HETATM   27 BR1  UNL     1      29.165   1.902  54.436  1.00  0.00    -0.051 Br
HETATM   28  C14 UNL     1      26.497   0.883  53.996  1.00  0.00     0.048 A 
ENDBRANCH  20  22
ENDBRANCH   7  20
TORSDOF 6
ENDMDL
MODEL 5
REMARK VINA RESULT:      -6.8      1.689      1.866
REMARK  6 active torsions:
REMARK  status: ('A' for Active; 'I' for Inactive)
REMARK    1  A    between atoms: P1_1  and  C1_2 
REMARK    2  A    between atoms: C1_2  and  C2_3 
REMARK    3  A    between atoms: C1_2  and  N1_6 
REMARK    4  A    between atoms: N1_6  and  C4_7 
REMARK    5  A    between atoms: C8_13  and  N4_14 
REMARK    6  A    between atoms: N4_14  and  C9_15 
ROOT
HETATM    1  C4  UNL     1      23.072   2.982  52.198  1.00  0.00     0.182 A 
HETATM    2  C5  UNL     1      23.063   1.705  52.620  1.00  0.00     0.069 A 
HETATM    3  C6  UNL     1      21.731   1.190  52.929  1.00  0.00     0.092 A 
HETATM    4  N2  UNL     1      21.686  -0.038  53.339  1.00  0.00    -0.240 NA
HETATM    5  C7  UNL     1      22.898  -0.808  53.467  1.00  0.00     0.230 A 
HETATM    6  N3  UNL     1      24.077  -0.360  53.197  1.00  0.00    -0.252 NA
HETATM    7  C8  UNL     1      24.336   0.988  52.725  1.00  0.00     0.248 A 
HETATM    8  C15 UNL     1      20.573   2.062  52.761  1.00  0.00     0.179 A 
HETATM    9  N5  UNL     1      20.695   3.279  52.346  1.00  0.00    -0.136 NA
HETATM   10  O1  UNL     1      21.943   3.777  52.052  1.00  0.00    -0.195 OA
ENDROOT
BRANCH   1  11
HETATM   11  N1  UNL     1      24.315   3.568  51.875  1.00  0.00    -0.357 N 
HETATM   12  H6  UNL     1      25.000   3.812  52.653  1.00  0.00     0.162 HD
BRANCH  11  13
HETATM   13  C1  UNL     1      24.684   3.846  50.484  1.00  0.00     0.130 C 
BRANCH  13  14
HETATM   14  P1  UNL     1      26.398   3.306  50.085  1.00  0.00    -0.113 P 
HETATM   15  H1  UNL     1      27.423   3.940  50.850  1.00  0.00     0.057 HD
HETATM   16  H2  UNL     1      26.648   3.374  48.652  1.00  0.00     0.057 HD
ENDBRANCH  13  14
BRANCH  13  17
HETATM   17  C2  UNL     1      23.730   3.263  49.505  1.00  0.00     0.014 C 
HETATM   18  C3  UNL     1      23.291   4.142  48.607  1.00  0.00     0.083 C 
HETATM   19 CL1  UNL     1      23.848   5.805  48.663  1.00  0.00    -0.097 Cl
ENDBRANCH  13  17
ENDBRANCH  11  13
ENDBRANCH   1  11
BRANCH   7  20
HETATM   20  N4  UNL     1      25.241   1.563  53.698  1.00  0.00    -0.363 N 
HETATM   21  H9  UNL     1      24.843   2.168  54.426  1.00  0.00     0.162 HD
BRANCH  20  22
HETATM   22  C9  UNL     1      26.637   1.299  53.646  1.00  0.00     0.031 A 
HETATM   23  C10 UNL     1      27.561   2.318  53.756  1.00  0.00     0.029 A 
HETATM   24  C11 UNL     1      28.908   1.975  53.694  1.00  0.00     0.004 A 
HETATM   25  C12 UNL     1      29.360   0.672  53.527  1.00  0.00     0.019 A 
HETATM   26  C13 UNL     1      28.406  -0.341  53.417  1.00  0.00     0.013 A 
HETATM   27 BR1  UNL     1      28.983  -2.149  53.187  1.00  0.00    -0.051 Br
HETATM   28  C14 UNL     1      27.076   0.002  53.480  1.00  0.00     0.048 A 
ENDBRANCH  20  22
ENDBRANCH   7  20
TORSDOF 6
ENDMDL
MODEL 6
REMARK VINA RESULT:      -6.8      3.510      5.307
REMARK  6 active torsions:
REMARK  status: ('A' for Active; 'I' for Inactive)
REMARK    1  A    between atoms: P1_1  and  C1_2 
REMARK    2  A    between atoms: C1_2  and  C2_3 
REMARK    3  A    between atoms: C1_2  and  N1_6 
REMARK    4  A    between atoms: N1_6  and  C4_7 
REMARK    5  A    between atoms: C8_13  and  N4_14 
REMARK    6  A    between atoms: N4_14  and  C9_15 
ROOT
HETATM    1  C4  UNL     1      21.665   0.650  53.323  1.00  0.00     0.182 A 
HETATM    2  C5  UNL     1      22.976   0.470  53.086  1.00  0.00     0.069 A 
HETATM    3  C6  UNL     1      23.611  -0.511  53.964  1.00  0.00     0.092 A 
HETATM    4  N2  UNL     1      24.875  -0.709  53.762  1.00  0.00    -0.240 NA
HETATM    5  C7  UNL     1      25.569   0.015  52.726  1.00  0.00     0.230 A 
HETATM    6  N3  UNL     1      25.016   0.882  51.947  1.00  0.00    -0.252 NA
HETATM    7  C8  UNL     1      23.611   1.242  52.015  1.00  0.00     0.248 A 
HETATM    8  C15 UNL     1      22.807  -1.183  54.980  1.00  0.00     0.179 A 
HETATM    9  N5  UNL     1      21.548  -0.934  55.123  1.00  0.00    -0.136 NA
HETATM   10  O1  UNL     1      20.938  -0.013  54.304  1.00  0.00    -0.195 OA
ENDROOT
BRANCH   1  11
HETATM   11  N1  UNL     1      20.965   1.579  52.524  1.00  0.00    -0.357 N 
HETATM   12  H6  UNL     1      20.932   2.603  52.814  1.00  0.00     0.162 HD
BRANCH  11  13
HETATM   13  C1  UNL     1      20.280   1.161  51.298  1.00  0.00     0.130 C 
BRANCH  13  14
HETATM   14  P1  UNL     1      18.757   0.184  51.636  1.00  0.00    -0.113 P 
HETATM   15  H1  UNL     1      18.939  -0.935  52.503  1.00  0.00     0.057 HD
HETATM   16  H2  UNL     1      18.080  -0.174  50.397  1.00  0.00     0.057 HD
ENDBRANCH  13  14
BRANCH  13  17
HETATM   17  C2  UNL     1      19.960   2.299  50.398  1.00  0.00     0.014 C 
HETATM   18  C3  UNL     1      20.551   2.215  49.208  1.00  0.00     0.083 C 
HETATM   19 CL1  UNL     1      21.589   0.850  48.840  1.00  0.00    -0.097 Cl
ENDBRANCH  13  17
ENDBRANCH  11  13
ENDBRANCH   1  11
BRANCH   7  20
HETATM   20  N4  UNL     1      23.598   2.671  52.252  1.00  0.00    -0.363 N 
HETATM   21  H9  UNL     1      23.699   2.999  53.220  1.00  0.00     0.162 HD
BRANCH  20  22
HETATM   22  C9  UNL     1      23.448   3.590  51.177  1.00  0.00     0.031 A 
HETATM   23  C10 UNL     1      24.015   3.345  49.944  1.00  0.00     0.029 A 
HETATM   24  C11 UNL     1      23.823   4.295  48.946  1.00  0.00     0.004 A 
HETATM   25  C12 UNL     1      23.096   5.464  49.132  1.00  0.00     0.019 A 
HETATM   26  C13 UNL     1      22.532   5.690  50.389  1.00  0.00     0.013 A 
HETATM   27 BR1  UNL     1      21.523   7.286  50.689  1.00  0.00    -0.051 Br
HETATM   28  C14 UNL     1      22.724   4.749  51.372  1.00  0.00     0.048 A 
ENDBRANCH  20  22
ENDBRANCH   7  20
TORSDOF 6
ENDMDL
MODEL 7
REMARK VINA RESULT:      -6.7      3.326      5.717
REMARK  6 active torsions:
REMARK  status: ('A' for Active; 'I' for Inactive)
REMARK    1  A    between atoms: P1_1  and  C1_2 
REMARK    2  A    between atoms: C1_2  and  C2_3 
REMARK    3  A    between atoms: C1_2  and  N1_6 
REMARK    4  A    between atoms: N1_6  and  C4_7 
REMARK    5  A    between atoms: C8_13  and  N4_14 
REMARK    6  A    between atoms: N4_14  and  C9_15 
ROOT
HETATM    1  C4  UNL     1      23.955   3.212  50.718  1.00  0.00     0.182 A 
HETATM    2  C5  UNL     1      24.992   2.689  51.395  1.00  0.00     0.069 A 
HETATM    3  C6  UNL     1      26.301   3.103  50.893  1.00  0.00     0.092 A 
HETATM    4  N2  UNL     1      27.323   2.618  51.523  1.00  0.00    -0.240 NA
HETATM    5  C7  UNL     1      27.133   1.730  52.643  1.00  0.00     0.230 A 
HETATM    6  N3  UNL     1      25.982   1.360  53.092  1.00  0.00    -0.252 NA
HETATM    7  C8  UNL     1      24.719   1.795  52.522  1.00  0.00     0.248 A 
HETATM    8  C15 UNL     1      26.371   4.008  49.750  1.00  0.00     0.179 A 
HETATM    9  N5  UNL     1      25.307   4.453  49.170  1.00  0.00    -0.136 NA
HETATM   10  O1  UNL     1      24.069   4.072  49.632  1.00  0.00    -0.195 OA
ENDROOT
BRANCH   1  11
HETATM   11  N1  UNL     1      22.649   2.870  51.130  1.00  0.00    -0.357 N 
HETATM   12  H6  UNL     1      22.475   2.583  52.141  1.00  0.00     0.162 HD
BRANCH  11  13
HETATM   13  C1  UNL     1      21.525   2.901  50.192  1.00  0.00     0.130 C 
BRANCH  13  14
HETATM   14  P1  UNL     1      21.518   1.460  49.046  1.00  0.00    -0.113 P 
HETATM   15  H1  UNL     1      22.076   0.261  49.584  1.00  0.00     0.057 HD
HETATM   16  H2  UNL     1      22.092   1.814  47.756  1.00  0.00     0.057 HD
ENDBRANCH  13  14
BRANCH  13  17
HETATM   17  C2  UNL     1      20.208   3.012  50.871  1.00  0.00     0.014 C 
HETATM   18  C3  UNL     1      19.741   4.258  50.919  1.00  0.00     0.083 C 
HETATM   19 CL1  UNL     1      20.670   5.570  50.217  1.00  0.00    -0.097 Cl
ENDBRANCH  13  17
ENDBRANCH  11  13
ENDBRANCH   1  11
BRANCH   7  20
HETATM   20  N4  UNL     1      24.038   0.576  52.136  1.00  0.00    -0.363 N 
HETATM   21  H9  UNL     1      24.248   0.179  51.213  1.00  0.00     0.162 HD
BRANCH  20  22
HETATM   22  C9  UNL     1      23.106  -0.050  53.009  1.00  0.00     0.031 A 
HETATM   23  C10 UNL     1      23.518  -0.656  54.178  1.00  0.00     0.029 A 
HETATM   24  C11 UNL     1      22.543  -1.247  54.976  1.00  0.00     0.004 A 
HETATM   25  C12 UNL     1      21.192  -1.254  54.654  1.00  0.00     0.019 A 
HETATM   26  C13 UNL     1      20.800  -0.635  53.466  1.00  0.00     0.013 A 
HETATM   27 BR1  UNL     1      18.949  -0.622  52.984  1.00  0.00    -0.051 Br
HETATM   28  C14 UNL     1      21.766  -0.052  52.680  1.00  0.00     0.048 A 
ENDBRANCH  20  22
ENDBRANCH   7  20
TORSDOF 6
ENDMDL
MODEL 8
REMARK VINA RESULT:      -6.7      3.496      4.843
REMARK  6 active torsions:
REMARK  status: ('A' for Active; 'I' for Inactive)
REMARK    1  A    between atoms: P1_1  and  C1_2 
REMARK    2  A    between atoms: C1_2  and  C2_3 
REMARK    3  A    between atoms: C1_2  and  N1_6 
REMARK    4  A    between atoms: N1_6  and  C4_7 
REMARK    5  A    between atoms: C8_13  and  N4_14 
REMARK    6  A    between atoms: N4_14  and  C9_15 
ROOT
HETATM    1  C4  UNL     1      22.048   2.784  51.534  1.00  0.00     0.182 A 
HETATM    2  C5  UNL     1      23.118   2.032  51.849  1.00  0.00     0.069 A 
HETATM    3  C6  UNL     1      22.848   1.005  52.853  1.00  0.00     0.092 A 
HETATM    4  N2  UNL     1      23.857   0.262  53.181  1.00  0.00    -0.240 NA
HETATM    5  C7  UNL     1      25.144   0.472  52.567  1.00  0.00     0.230 A 
HETATM    6  N3  UNL     1      25.391   1.376  51.681  1.00  0.00    -0.252 NA
HETATM    7  C8  UNL     1      24.393   2.306  51.184  1.00  0.00     0.248 A 
HETATM    8  C15 UNL     1      21.502   0.885  53.405  1.00  0.00     0.179 A 
HETATM    9  N5  UNL     1      20.543   1.663  53.030  1.00  0.00    -0.136 NA
HETATM   10  O1  UNL     1      20.782   2.634  52.086  1.00  0.00    -0.195 OA
ENDROOT
BRANCH   1  11
HETATM   11  N1  UNL     1      22.212   3.804  50.571  1.00  0.00    -0.357 N 
HETATM   12  H6  UNL     1      22.793   4.663  50.809  1.00  0.00     0.162 HD
BRANCH  11  13
HETATM   13  C1  UNL     1      21.595   3.702  49.246  1.00  0.00     0.130 C 
BRANCH  13  14
HETATM   14  P1  UNL     1      20.646   5.213  48.789  1.00  0.00    -0.113 P 
HETATM   15  H1  UNL     1      19.800   5.726  49.818  1.00  0.00     0.057 HD
HETATM   16  H2  UNL     1      19.943   5.027  47.528  1.00  0.00     0.057 HD
ENDBRANCH  13  14
BRANCH  13  17
HETATM   17  C2  UNL     1      22.574   3.379  48.176  1.00  0.00     0.014 C 
HETATM   18  C3  UNL     1      22.538   2.104  47.795  1.00  0.00     0.083 C 
HETATM   19 CL1  UNL     1      21.406   0.995  48.548  1.00  0.00    -0.097 Cl
ENDBRANCH  13  17
ENDBRANCH  11  13
ENDBRANCH   1  11
BRANCH   7  20
HETATM   20  N4  UNL     1      24.922   3.622  51.475  1.00  0.00    -0.363 N 
HETATM   21  H9  UNL     1      24.789   3.995  52.423  1.00  0.00     0.162 HD
BRANCH  20  22
HETATM   22  C9  UNL     1      25.604   4.375  50.480  1.00  0.00     0.031 A 
HETATM   23  C10 UNL     1      26.652   3.831  49.766  1.00  0.00     0.029 A 
HETATM   24  C11 UNL     1      27.267   4.634  48.810  1.00  0.00     0.004 A 
HETATM   25  C12 UNL     1      26.879   5.941  48.545  1.00  0.00     0.019 A 
HETATM   26  C13 UNL     1      25.816   6.470  49.281  1.00  0.00     0.013 A 
HETATM   27 BR1  UNL     1      25.250   8.265  48.948  1.00  0.00    -0.051 Br
HETATM   28  C14 UNL     1      25.212   5.672  50.224  1.00  0.00     0.048 A 
ENDBRANCH  20  22
ENDBRANCH   7  20
TORSDOF 6
ENDMDL
MODEL 9
REMARK VINA RESULT:      -6.6      3.248      5.516
REMARK  6 active torsions:
REMARK  status: ('A' for Active; 'I' for Inactive)
REMARK    1  A    between atoms: P1_1  and  C1_2 
REMARK    2  A    between atoms: C1_2  and  C2_3 
REMARK    3  A    between atoms: C1_2  and  N1_6 
REMARK    4  A    between atoms: N1_6  and  C4_7 
REMARK    5  A    between atoms: C8_13  and  N4_14 
REMARK    6  A    between atoms: N4_14  and  C9_15 
ROOT
HETATM    1  C4  UNL     1      23.025   0.344  53.657  1.00  0.00     0.182 A 
HETATM    2  C5  UNL     1      21.795   0.451  53.123  1.00  0.00     0.069 A 
HETATM    3  C6  UNL     1      20.852  -0.561  53.596  1.00  0.00     0.092 A 
HETATM    4  N2  UNL     1      19.657  -0.488  53.102  1.00  0.00    -0.240 NA
HETATM    5  C7  UNL     1      19.325   0.543  52.151  1.00  0.00     0.230 A 
HETATM    6  N3  UNL     1      20.151   1.440  51.729  1.00  0.00    -0.252 NA
HETATM    7  C8  UNL     1      21.534   1.525  52.163  1.00  0.00     0.248 A 
HETATM    8  C15 UNL     1      21.301  -1.558  54.562  1.00  0.00     0.179 A 
HETATM    9  N5  UNL     1      22.512  -1.570  55.012  1.00  0.00    -0.136 NA
HETATM   10  O1  UNL     1      23.410  -0.624  54.576  1.00  0.00    -0.195 OA
ENDROOT
BRANCH   1  11
HETATM   11  N1  UNL     1      24.006   1.278  53.261  1.00  0.00    -0.357 N 
HETATM   12  H6  UNL     1      23.750   2.308  53.181  1.00  0.00     0.162 HD
BRANCH  11  13
HETATM   13  C1  UNL     1      25.377   0.857  52.958  1.00  0.00     0.130 C 
BRANCH  13  14
HETATM   14  P1  UNL     1      26.166   1.896  51.659  1.00  0.00    -0.113 P 
HETATM   15  H1  UNL     1      27.546   1.621  51.425  1.00  0.00     0.057 HD
HETATM   16  H2  UNL     1      25.909   3.310  51.893  1.00  0.00     0.057 HD
ENDBRANCH  13  14
BRANCH  13  17
HETATM   17  C2  UNL     1      26.246   0.809  54.162  1.00  0.00     0.014 C 
HETATM   18  C3  UNL     1      27.024  -0.270  54.210  1.00  0.00     0.083 C 
HETATM   19 CL1  UNL     1      26.953  -1.459  52.922  1.00  0.00    -0.097 Cl
ENDBRANCH  13  17
ENDBRANCH  11  13
ENDBRANCH   1  11
BRANCH   7  20
HETATM   20  N4  UNL     1      22.319   1.415  50.951  1.00  0.00    -0.363 N 
HETATM   21  H9  UNL     1      22.689   0.491  50.699  1.00  0.00     0.162 HD
BRANCH  20  22
HETATM   22  C9  UNL     1      22.572   2.553  50.136  1.00  0.00     0.031 A 
HETATM   23  C10 UNL     1      22.513   2.473  48.761  1.00  0.00     0.029 A 
HETATM   24  C11 UNL     1      22.774   3.632  48.036  1.00  0.00     0.004 A 
HETATM   25  C12 UNL     1      23.088   4.850  48.626  1.00  0.00     0.019 A 
HETATM   26  C13 UNL     1      23.141   4.905  50.021  1.00  0.00     0.013 A 
HETATM   27 BR1  UNL     1      23.570   6.561  50.875  1.00  0.00    -0.051 Br
HETATM   28  C14 UNL     1      22.883   3.758  50.733  1.00  0.00     0.048 A 
ENDBRANCH  20  22
ENDBRANCH   7  20
TORSDOF 6
ENDMDL
