MODEL 1
REMARK VINA RESULT:      -8.5      0.000      0.000
REMARK  3 active torsions:
REMARK  status: ('A' for Active; 'I' for Inactive)
REMARK    1  A    between atoms: C9_11  and  N2_12 
REMARK    2  A    between atoms: N2_12  and  C10_13 
REMARK    3  A    between atoms: C10_13  and  C11_14 
ROOT
HETATM    1 BR1  UNL     1      16.974   0.449  50.231  1.00  0.00    -0.051 Br
HETATM    2  C1  UNL     1      18.305   0.000  51.503  1.00  0.00     0.011 A 
HETATM    3  C2  UNL     1      17.939  -0.816  52.563  1.00  0.00     0.022 A 
HETATM    4  C3  UNL     1      18.889  -1.158  53.504  1.00  0.00     0.039 A 
HETATM    5  C4  UNL     1      20.179  -0.687  53.379  1.00  0.00     0.086 A 
HETATM    6  C5  UNL     1      20.597   0.125  52.349  1.00  0.00    -0.005 A 
HETATM    7  C6  UNL     1      19.610   0.452  51.414  1.00  0.00     0.030 A 
HETATM    8  C7  UNL     1      21.847   0.779  51.930  1.00  0.00     0.161 C 
HETATM    9  N1  UNL     1      23.045   0.023  52.317  1.00  0.00    -0.379 N 
HETATM   10  C8  UNL     1      23.331  -0.514  53.609  1.00  0.00     0.128 A 
HETATM   11  C9  UNL     1      24.687  -0.480  53.861  1.00  0.00     0.156 A 
HETATM   12  N3  UNL     1      25.088  -0.969  55.046  1.00  0.00    -0.222 NA
HETATM   13  C15 UNL     1      24.229  -1.467  55.947  1.00  0.00     0.238 A 
HETATM   14  N4  UNL     1      22.885  -1.506  55.709  1.00  0.00    -0.215 NA
HETATM   15  C16 UNL     1      22.403  -1.026  54.522  1.00  0.00     0.202 A 
HETATM   16  O1  UNL     1      21.016  -1.128  54.419  1.00  0.00    -0.289 OA
HETATM   17  H6  UNL     1      23.831  -0.203  51.654  1.00  0.00     0.160 HD
ENDROOT
BRANCH  11  18
HETATM   18  N2  UNL     1      25.654   0.046  52.959  1.00  0.00    -0.369 N 
HETATM   19  H7  UNL     1      25.817   0.989  52.573  1.00  0.00     0.161 HD
BRANCH  18  20
HETATM   20  C10 UNL     1      26.647  -0.867  52.445  1.00  0.00     0.160 C 
BRANCH  20  21
HETATM   21  C11 UNL     1      27.971  -0.728  53.051  1.00  0.00    -0.041 A 
HETATM   22  C12 UNL     1      28.658   0.213  53.685  1.00  0.00     0.009 A 
HETATM   23  C13 UNL     1      29.758  -0.747  53.795  1.00  0.00     0.001 A 
HETATM   24  C14 UNL     1      29.047  -1.685  53.153  1.00  0.00     0.009 A 
ENDBRANCH  20  21
ENDBRANCH  18  20
ENDBRANCH  11  18
TORSDOF 3
ENDMDL
MODEL 2
REMARK VINA RESULT:      -8.3      3.186      4.274
REMARK  3 active torsions:
REMARK  status: ('A' for Active; 'I' for Inactive)
REMARK    1  A    between atoms: C9_11  and  N2_12 
REMARK    2  A    between atoms: N2_12  and  C10_13 
REMARK    3  A    between atoms: C10_13  and  C11_14 
ROOT
HETATM    1 BR1  UNL     1      18.572  -0.632  53.033  1.00  0.00    -0.051 Br
HETATM    2  C1  UNL     1      20.416  -0.598  53.463  1.00  0.00     0.011 A 
HETATM    3  C2  UNL     1      20.938  -1.672  54.169  1.00  0.00     0.022 A 
HETATM    4  C3  UNL     1      22.279  -1.672  54.496  1.00  0.00     0.039 A 
HETATM    5  C4  UNL     1      23.076  -0.611  54.120  1.00  0.00     0.086 A 
HETATM    6  C5  UNL     1      22.613   0.479  53.420  1.00  0.00    -0.005 A 
HETATM    7  C6  UNL     1      21.251   0.447  53.106  1.00  0.00     0.030 A 
HETATM    8  C7  UNL     1      23.168   1.732  52.882  1.00  0.00     0.161 C 
HETATM    9  N1  UNL     1      24.578   1.608  52.488  1.00  0.00    -0.379 N 
HETATM   10  C8  UNL     1      25.633   1.049  53.270  1.00  0.00     0.128 A 
HETATM   11  C9  UNL     1      26.823   1.700  53.018  1.00  0.00     0.156 A 
HETATM   12  N3  UNL     1      27.901   1.258  53.688  1.00  0.00    -0.222 NA
HETATM   13  C15 UNL     1      27.839   0.239  54.559  1.00  0.00     0.238 A 
HETATM   14  N4  UNL     1      26.667  -0.412  54.816  1.00  0.00    -0.215 NA
HETATM   15  C16 UNL     1      25.528  -0.017  54.170  1.00  0.00     0.202 A 
HETATM   16  O1  UNL     1      24.411  -0.769  54.532  1.00  0.00    -0.289 OA
HETATM   17  H6  UNL     1      24.953   1.931  51.559  1.00  0.00     0.160 HD
ENDROOT
BRANCH  11  18
HETATM   18  N2  UNL     1      26.960   2.796  52.120  1.00  0.00    -0.369 N 
HETATM   19  H7  UNL     1      27.209   3.788  52.253  1.00  0.00     0.161 HD
BRANCH  18  20
HETATM   20  C10 UNL     1      26.724   2.537  50.720  1.00  0.00     0.160 C 
BRANCH  20  21
HETATM   21  C11 UNL     1      26.377   3.722  49.934  1.00  0.00    -0.041 A 
HETATM   22  C12 UNL     1      26.979   4.529  49.070  1.00  0.00     0.009 A 
HETATM   23  C13 UNL     1      25.722   5.274  48.980  1.00  0.00     0.001 A 
HETATM   24  C14 UNL     1      25.131   4.447  49.854  1.00  0.00     0.009 A 
ENDBRANCH  20  21
ENDBRANCH  18  20
ENDBRANCH  11  18
TORSDOF 3
ENDMDL
MODEL 3
REMARK VINA RESULT:      -8.0      5.331      7.145
REMARK  3 active torsions:
REMARK  status: ('A' for Active; 'I' for Inactive)
REMARK    1  A    between atoms: C9_11  and  N2_12 
REMARK    2  A    between atoms: N2_12  and  C10_13 
REMARK    3  A    between atoms: C10_13  and  C11_14 
ROOT
HETATM    1 BR1  UNL     1      28.594  -2.085  53.080  1.00  0.00    -0.051 Br
HETATM    2  C1  UNL     1      27.111  -0.923  52.879  1.00  0.00     0.011 A 
HETATM    3  C2  UNL     1      25.915  -1.287  53.479  1.00  0.00     0.022 A 
HETATM    4  C3  UNL     1      24.819  -0.459  53.348  1.00  0.00     0.039 A 
HETATM    5  C4  UNL     1      24.927   0.712  52.626  1.00  0.00     0.086 A 
HETATM    6  C5  UNL     1      26.087   1.123  52.011  1.00  0.00    -0.005 A 
HETATM    7  C6  UNL     1      27.177   0.260  52.164  1.00  0.00     0.030 A 
HETATM    8  C7  UNL     1      26.531   2.266  51.197  1.00  0.00     0.161 C 
HETATM    9  N1  UNL     1      25.825   3.510  51.529  1.00  0.00    -0.379 N 
HETATM   10  C8  UNL     1      24.413   3.680  51.656  1.00  0.00     0.128 A 
HETATM   11  C9  UNL     1      24.034   4.939  51.239  1.00  0.00     0.156 A 
HETATM   12  N3  UNL     1      22.724   5.227  51.318  1.00  0.00    -0.222 NA
HETATM   13  C15 UNL     1      21.820   4.348  51.775  1.00  0.00     0.238 A 
HETATM   14  N4  UNL     1      22.184   3.099  52.190  1.00  0.00    -0.215 NA
HETATM   15  C16 UNL     1      23.501   2.736  52.139  1.00  0.00     0.202 A 
HETATM   16  O1  UNL     1      23.722   1.435  52.592  1.00  0.00    -0.289 OA
HETATM   17  H6  UNL     1      26.312   4.425  51.714  1.00  0.00     0.160 HD
ENDROOT
BRANCH  11  18
HETATM   18  N2  UNL     1      24.935   5.917  50.729  1.00  0.00    -0.369 N 
HETATM   19  H7  UNL     1      25.537   6.623  51.181  1.00  0.00     0.161 HD
BRANCH  18  20
HETATM   20  C10 UNL     1      25.095   5.987  49.297  1.00  0.00     0.160 C 
BRANCH  20  21
HETATM   21  C11 UNL     1      26.475   5.845  48.832  1.00  0.00    -0.041 A 
HETATM   22  C12 UNL     1      27.391   4.887  48.778  1.00  0.00     0.009 A 
HETATM   23  C13 UNL     1      28.290   5.863  48.160  1.00  0.00     0.001 A 
HETATM   24  C14 UNL     1      27.351   6.818  48.223  1.00  0.00     0.009 A 
ENDBRANCH  20  21
ENDBRANCH  18  20
ENDBRANCH  11  18
TORSDOF 3
ENDMDL
MODEL 4
REMARK VINA RESULT:      -7.7      3.151      6.956
REMARK  3 active torsions:
REMARK  status: ('A' for Active; 'I' for Inactive)
REMARK    1  A    between atoms: C9_11  and  N2_12 
REMARK    2  A    between atoms: N2_12  and  C10_13 
REMARK    3  A    between atoms: C10_13  and  C11_14 
ROOT
HETATM    1 BR1  UNL     1      26.252   4.552  49.172  1.00  0.00    -0.051 Br
HETATM    2  C1  UNL     1      25.746   3.239  50.440  1.00  0.00     0.011 A 
HETATM    3  C2  UNL     1      26.741   2.684  51.231  1.00  0.00     0.022 A 
HETATM    4  C3  UNL     1      26.399   1.724  52.162  1.00  0.00     0.039 A 
HETATM    5  C4  UNL     1      25.083   1.333  52.293  1.00  0.00     0.086 A 
HETATM    6  C5  UNL     1      24.057   1.849  51.536  1.00  0.00    -0.005 A 
HETATM    7  C6  UNL     1      24.437   2.818  50.603  1.00  0.00     0.030 A 
HETATM    8  C7  UNL     1      22.601   1.664  51.423  1.00  0.00     0.161 C 
HETATM    9  N1  UNL     1      21.973   1.288  52.696  1.00  0.00    -0.379 N 
HETATM   10  C8  UNL     1      22.402   0.256  53.585  1.00  0.00     0.128 A 
HETATM   11  C9  UNL     1      21.321  -0.329  54.210  1.00  0.00     0.156 A 
HETATM   12  N3  UNL     1      21.595  -1.313  55.083  1.00  0.00    -0.222 NA
HETATM   13  C15 UNL     1      22.847  -1.715  55.344  1.00  0.00     0.238 A 
HETATM   14  N4  UNL     1      23.924  -1.144  54.731  1.00  0.00    -0.215 NA
HETATM   15  C16 UNL     1      23.722  -0.135  53.830  1.00  0.00     0.202 A 
HETATM   16  O1  UNL     1      24.910   0.350  53.284  1.00  0.00    -0.289 OA
HETATM   17  H6  UNL     1      21.117   1.762  53.086  1.00  0.00     0.160 HD
ENDROOT
BRANCH  11  18
HETATM   18  N2  UNL     1      19.966   0.036  53.972  1.00  0.00    -0.369 N 
HETATM   19  H7  UNL     1      19.455   0.930  54.042  1.00  0.00     0.161 HD
BRANCH  18  20
HETATM   20  C10 UNL     1      19.067  -1.004  53.534  1.00  0.00     0.160 C 
BRANCH  20  21
HETATM   21  C11 UNL     1      18.261  -0.656  52.362  1.00  0.00    -0.041 A 
HETATM   22  C12 UNL     1      17.006  -0.813  51.962  1.00  0.00     0.009 A 
HETATM   23  C13 UNL     1      17.372  -0.105  50.734  1.00  0.00     0.001 A 
HETATM   24  C14 UNL     1      18.635   0.044  51.157  1.00  0.00     0.009 A 
ENDBRANCH  20  21
ENDBRANCH  18  20
ENDBRANCH  11  18
TORSDOF 3
ENDMDL
MODEL 5
REMARK VINA RESULT:      -7.7      3.749      7.249
REMARK  3 active torsions:
REMARK  status: ('A' for Active; 'I' for Inactive)
REMARK    1  A    between atoms: C9_11  and  N2_12 
REMARK    2  A    between atoms: N2_12  and  C10_13 
REMARK    3  A    between atoms: C10_13  and  C11_14 
ROOT
HETATM    1 BR1  UNL     1      29.423  -1.649  53.462  1.00  0.00    -0.051 Br
HETATM    2  C1  UNL     1      28.139  -0.262  53.346  1.00  0.00     0.011 A 
HETATM    3  C2  UNL     1      28.589   1.047  53.429  1.00  0.00     0.022 A 
HETATM    4  C3  UNL     1      27.674   2.078  53.348  1.00  0.00     0.039 A 
HETATM    5  C4  UNL     1      26.334   1.794  53.185  1.00  0.00     0.086 A 
HETATM    6  C5  UNL     1      25.832   0.516  53.097  1.00  0.00    -0.005 A 
HETATM    7  C6  UNL     1      26.785  -0.503  53.184  1.00  0.00     0.030 A 
HETATM    8  C7  UNL     1      24.514  -0.116  52.929  1.00  0.00     0.161 C 
HETATM    9  N1  UNL     1      23.583   0.705  52.144  1.00  0.00    -0.379 N 
HETATM   10  C8  UNL     1      23.300   2.091  52.337  1.00  0.00     0.128 A 
HETATM   11  C9  UNL     1      21.985   2.368  52.025  1.00  0.00     0.156 A 
HETATM   12  N3  UNL     1      21.595   3.646  52.156  1.00  0.00    -0.222 NA
HETATM   13  C15 UNL     1      22.427   4.614  52.568  1.00  0.00     0.238 A 
HETATM   14  N4  UNL     1      23.730   4.352  52.881  1.00  0.00    -0.215 NA
HETATM   15  C16 UNL     1      24.198   3.072  52.770  1.00  0.00     0.202 A 
HETATM   16  O1  UNL     1      25.543   2.954  53.122  1.00  0.00    -0.289 OA
HETATM   17  H6  UNL     1      23.020   0.335  51.335  1.00  0.00     0.160 HD
ENDROOT
BRANCH  11  18
HETATM   18  N2  UNL     1      21.043   1.390  51.595  1.00  0.00    -0.369 N 
HETATM   19  H7  UNL     1      20.875   0.924  50.691  1.00  0.00     0.161 HD
BRANCH  18  20
HETATM   20  C10 UNL     1      20.105   0.900  52.576  1.00  0.00     0.160 C 
BRANCH  20  21
HETATM   21  C11 UNL     1      20.693   0.035  53.600  1.00  0.00    -0.041 A 
HETATM   22  C12 UNL     1      21.120   0.157  54.849  1.00  0.00     0.009 A 
HETATM   23  C13 UNL     1      21.457  -1.268  54.811  1.00  0.00     0.001 A 
HETATM   24  C14 UNL     1      21.020  -1.371  53.548  1.00  0.00     0.009 A 
ENDBRANCH  20  21
ENDBRANCH  18  20
ENDBRANCH  11  18
TORSDOF 3
ENDMDL
MODEL 6
REMARK VINA RESULT:      -7.5      4.178      6.865
REMARK  3 active torsions:
REMARK  status: ('A' for Active; 'I' for Inactive)
REMARK    1  A    between atoms: C9_11  and  N2_12 
REMARK    2  A    between atoms: N2_12  and  C10_13 
REMARK    3  A    between atoms: C10_13  and  C11_14 
ROOT
HETATM    1 BR1  UNL     1      24.428   7.001  48.067  1.00  0.00    -0.051 Br
HETATM    2  C1  UNL     1      25.082   5.455  48.945  1.00  0.00     0.011 A 
HETATM    3  C2  UNL     1      26.447   5.215  48.903  1.00  0.00     0.022 A 
HETATM    4  C3  UNL     1      26.950   4.095  49.534  1.00  0.00     0.039 A 
HETATM    5  C4  UNL     1      26.094   3.236  50.193  1.00  0.00     0.086 A 
HETATM    6  C5  UNL     1      24.734   3.425  50.265  1.00  0.00    -0.005 A 
HETATM    7  C6  UNL     1      24.258   4.568  49.616  1.00  0.00     0.030 A 
HETATM    8  C7  UNL     1      23.578   2.734  50.861  1.00  0.00     0.161 C 
HETATM    9  N1  UNL     1      23.920   2.008  52.091  1.00  0.00    -0.379 N 
HETATM   10  C8  UNL     1      25.015   1.109  52.272  1.00  0.00     0.128 A 
HETATM   11  C9  UNL     1      24.676   0.100  53.149  1.00  0.00     0.156 A 
HETATM   12  N3  UNL     1      25.629  -0.810  53.412  1.00  0.00    -0.222 NA
HETATM   13  C15 UNL     1      26.850  -0.753  52.860  1.00  0.00     0.238 A 
HETATM   14  N4  UNL     1      27.196   0.241  51.990  1.00  0.00    -0.215 NA
HETATM   15  C16 UNL     1      26.276   1.203  51.676  1.00  0.00     0.202 A 
HETATM   16  O1  UNL     1      26.768   2.150  50.778  1.00  0.00    -0.289 OA
HETATM   17  H6  UNL     1      23.371   2.087  52.986  1.00  0.00     0.160 HD
ENDROOT
BRANCH  11  18
HETATM   18  N2  UNL     1      23.397  -0.031  53.761  1.00  0.00    -0.369 N 
HETATM   19  H7  UNL     1      22.963   0.412  54.585  1.00  0.00     0.161 HD
BRANCH  18  20
HETATM   20  C10 UNL     1      22.463  -0.949  53.154  1.00  0.00     0.160 C 
BRANCH  20  21
HETATM   21  C11 UNL     1      21.216  -0.333  52.698  1.00  0.00    -0.041 A 
HETATM   22  C12 UNL     1      20.028  -0.046  53.212  1.00  0.00     0.009 A 
HETATM   23  C13 UNL     1      19.663   0.507  51.906  1.00  0.00     0.001 A 
HETATM   24  C14 UNL     1      20.870   0.209  51.406  1.00  0.00     0.009 A 
ENDBRANCH  20  21
ENDBRANCH  18  20
ENDBRANCH  11  18
TORSDOF 3
ENDMDL
MODEL 7
REMARK VINA RESULT:      -7.4      3.620      8.011
REMARK  3 active torsions:
REMARK  status: ('A' for Active; 'I' for Inactive)
REMARK    1  A    between atoms: C9_11  and  N2_12 
REMARK    2  A    between atoms: N2_12  and  C10_13 
REMARK    3  A    between atoms: C10_13  and  C11_14 
ROOT
HETATM    1 BR1  UNL     1      29.951  -1.204  53.833  1.00  0.00    -0.051 Br
HETATM    2  C1  UNL     1      28.460  -0.072  53.547  1.00  0.00     0.011 A 
HETATM    3  C2  UNL     1      28.704   1.263  53.262  1.00  0.00     0.022 A 
HETATM    4  C3  UNL     1      27.635   2.110  53.050  1.00  0.00     0.039 A 
HETATM    5  C4  UNL     1      26.348   1.621  53.123  1.00  0.00     0.086 A 
HETATM    6  C5  UNL     1      26.047   0.308  53.402  1.00  0.00    -0.005 A 
HETATM    7  C6  UNL     1      27.152  -0.522  53.612  1.00  0.00     0.030 A 
HETATM    8  C7  UNL     1      24.835  -0.514  53.550  1.00  0.00     0.161 C 
HETATM    9  N1  UNL     1      23.723  -0.047  52.711  1.00  0.00    -0.379 N 
HETATM   10  C8  UNL     1      23.244   1.293  52.602  1.00  0.00     0.128 A 
HETATM   11  C9  UNL     1      21.880   1.307  52.395  1.00  0.00     0.156 A 
HETATM   12  N3  UNL     1      21.306   2.515  52.266  1.00  0.00    -0.222 NA
HETATM   13  C15 UNL     1      22.008   3.656  52.333  1.00  0.00     0.238 A 
HETATM   14  N4  UNL     1      23.357   3.654  52.538  1.00  0.00    -0.215 NA
HETATM   15  C16 UNL     1      24.010   2.461  52.678  1.00  0.00     0.202 A 
HETATM   16  O1  UNL     1      25.381   2.614  52.882  1.00  0.00    -0.289 OA
HETATM   17  H6  UNL     1      23.159  -0.680  52.087  1.00  0.00     0.160 HD
ENDROOT
BRANCH  11  18
HETATM   18  N2  UNL     1      21.070   0.138  52.327  1.00  0.00    -0.369 N 
HETATM   19  H7  UNL     1      21.227  -0.806  51.942  1.00  0.00     0.161 HD
BRANCH  18  20
HETATM   20  C10 UNL     1      19.749   0.214  52.903  1.00  0.00     0.160 C 
BRANCH  20  21
HETATM   21  C11 UNL     1      18.658   0.006  51.949  1.00  0.00    -0.041 A 
HETATM   22  C12 UNL     1      17.510  -0.657  51.912  1.00  0.00     0.009 A 
HETATM   23  C13 UNL     1      17.325  -0.143  50.554  1.00  0.00     0.001 A 
HETATM   24  C14 UNL     1      18.488   0.521  50.611  1.00  0.00     0.009 A 
ENDBRANCH  20  21
ENDBRANCH  18  20
ENDBRANCH  11  18
TORSDOF 3
ENDMDL
MODEL 8
REMARK VINA RESULT:      -7.3      2.405      3.042
REMARK  3 active torsions:
REMARK  status: ('A' for Active; 'I' for Inactive)
REMARK    1  A    between atoms: C9_11  and  N2_12 
REMARK    2  A    between atoms: N2_12  and  C10_13 
REMARK    3  A    between atoms: C10_13  and  C11_14 
ROOT
HETATM    1 BR1  UNL     1      15.651  -0.425  50.672  1.00  0.00    -0.051 Br
HETATM    2  C1  UNL     1      17.171  -0.703  51.768  1.00  0.00     0.011 A 
HETATM    3  C2  UNL     1      17.053  -1.591  52.827  1.00  0.00     0.022 A 
HETATM    4  C3  UNL     1      18.146  -1.812  53.641  1.00  0.00     0.039 A 
HETATM    5  C4  UNL     1      19.331  -1.151  53.393  1.00  0.00     0.086 A 
HETATM    6  C5  UNL     1      19.504  -0.261  52.358  1.00  0.00    -0.005 A 
HETATM    7  C6  UNL     1      18.378  -0.060  51.554  1.00  0.00     0.030 A 
HETATM    8  C7  UNL     1      20.588   0.583  51.830  1.00  0.00     0.161 C 
HETATM    9  N1  UNL     1      21.920   0.004  52.050  1.00  0.00    -0.379 N 
HETATM   10  C8  UNL     1      22.429  -0.517  53.278  1.00  0.00     0.128 A 
HETATM   11  C9  UNL     1      23.786  -0.288  53.379  1.00  0.00     0.156 A 
HETATM   12  N3  UNL     1      24.389  -0.742  54.490  1.00  0.00    -0.222 NA
HETATM   13  C15 UNL     1      23.721  -1.385  55.460  1.00  0.00     0.238 A 
HETATM   14  N4  UNL     1      22.379  -1.617  55.370  1.00  0.00    -0.215 NA
HETATM   15  C16 UNL     1      21.698  -1.184  54.267  1.00  0.00     0.202 A 
HETATM   16  O1  UNL     1      20.338  -1.489  54.314  1.00  0.00    -0.289 OA
HETATM   17  H6  UNL     1      22.648  -0.086  51.295  1.00  0.00     0.160 HD
ENDROOT
BRANCH  11  18
HETATM   18  N2  UNL     1      24.555   0.399  52.398  1.00  0.00    -0.369 N 
HETATM   19  H7  UNL     1      25.094   0.082  51.577  1.00  0.00     0.161 HD
BRANCH  18  20
HETATM   20  C10 UNL     1      24.637   1.836  52.507  1.00  0.00     0.160 C 
BRANCH  20  21
HETATM   21  C11 UNL     1      24.600   2.545  51.228  1.00  0.00    -0.041 A 
HETATM   22  C12 UNL     1      23.687   2.886  50.329  1.00  0.00     0.009 A 
HETATM   23  C13 UNL     1      24.763   3.510  49.558  1.00  0.00     0.001 A 
HETATM   24  C14 UNL     1      25.672   3.157  50.478  1.00  0.00     0.009 A 
ENDBRANCH  20  21
ENDBRANCH  18  20
ENDBRANCH  11  18
TORSDOF 3
ENDMDL
MODEL 9
REMARK VINA RESULT:      -7.3      3.733      7.798
REMARK  3 active torsions:
REMARK  status: ('A' for Active; 'I' for Inactive)
REMARK    1  A    between atoms: C9_11  and  N2_12 
REMARK    2  A    between atoms: N2_12  and  C10_13 
REMARK    3  A    between atoms: C10_13  and  C11_14 
ROOT
HETATM    1 BR1  UNL     1      27.035  -0.167  53.556  1.00  0.00    -0.051 Br
HETATM    2  C1  UNL     1      25.386   0.708  53.231  1.00  0.00     0.011 A 
HETATM    3  C2  UNL     1      25.401   2.089  53.102  1.00  0.00     0.022 A 
HETATM    4  C3  UNL     1      24.213   2.752  52.865  1.00  0.00     0.039 A 
HETATM    5  C4  UNL     1      23.038   2.038  52.761  1.00  0.00     0.086 A 
HETATM    6  C5  UNL     1      22.965   0.670  52.881  1.00  0.00    -0.005 A 
HETATM    7  C6  UNL     1      24.185   0.030  53.121  1.00  0.00     0.030 A 
HETATM    8  C7  UNL     1      21.920  -0.365  52.826  1.00  0.00     0.161 C 
HETATM    9  N1  UNL     1      20.813  -0.010  51.928  1.00  0.00    -0.379 N 
HETATM   10  C8  UNL     1      20.102   1.228  51.901  1.00  0.00     0.128 A 
HETATM   11  C9  UNL     1      18.781   1.023  51.559  1.00  0.00     0.156 A 
HETATM   12  N3  UNL     1      18.005   2.118  51.489  1.00  0.00    -0.222 NA
HETATM   13  C15 UNL     1      18.474   3.350  51.735  1.00  0.00     0.238 A 
HETATM   14  N4  UNL     1      19.779   3.563  52.074  1.00  0.00    -0.215 NA
HETATM   15  C16 UNL     1      20.629   2.496  52.165  1.00  0.00     0.202 A 
HETATM   16  O1  UNL     1      21.926   2.865  52.520  1.00  0.00    -0.289 OA
HETATM   17  H6  UNL     1      20.429  -0.659  51.193  1.00  0.00     0.160 HD
ENDROOT
BRANCH  11  18
HETATM   18  N2  UNL     1      18.212  -0.255  51.299  1.00  0.00    -0.369 N 
HETATM   19  H7  UNL     1      18.459  -1.016  50.647  1.00  0.00     0.161 HD
BRANCH  18  20
HETATM   20  C10 UNL     1      17.054  -0.634  52.073  1.00  0.00     0.160 C 
BRANCH  20  21
HETATM   21  C11 UNL     1      17.209  -1.880  52.825  1.00  0.00    -0.041 A 
HETATM   22  C12 UNL     1      18.087  -2.405  53.669  1.00  0.00     0.009 A 
HETATM   23  C13 UNL     1      17.228  -3.588  53.735  1.00  0.00     0.001 A 
HETATM   24  C14 UNL     1      16.352  -3.040  52.881  1.00  0.00     0.009 A 
ENDBRANCH  20  21
ENDBRANCH  18  20
ENDBRANCH  11  18
TORSDOF 3
ENDMDL
