MODEL 1
REMARK VINA RESULT:      -8.0      0.000      0.000
REMARK  7 active torsions:
REMARK  status: ('A' for Active; 'I' for Inactive)
REMARK    1  A    between atoms: O1_1  and  C1_2 
REMARK    2  A    between atoms: C1_2  and  C2_3 
REMARK    3  A    between atoms: C3_4  and  O2_5 
REMARK    4  A    between atoms: C7_9  and  O3_10 
REMARK    5  A    between atoms: O3_10  and  C8_11 
REMARK    6  A    between atoms: C9_12  and  C10_13 
REMARK    7  A    between atoms: C13_16  and  O4_17 
ROOT
HETATM    1  O3  UNL     1      25.423   3.255  50.704  1.00  0.00    -0.322 OA
ENDROOT
BRANCH   1   2
HETATM    2  C7  UNL     1      25.793   4.406  50.088  1.00  0.00     0.086 A 
HETATM    3  C2  UNL     1      25.337   5.697  50.054  1.00  0.00     0.032 A 
HETATM    4  C3  UNL     1      25.939   6.683  49.310  1.00  0.00     0.076 A 
HETATM    5  C4  UNL     1      27.049   6.439  48.543  1.00  0.00     0.037 A 
HETATM    6  C5  UNL     1      27.557   5.136  48.542  1.00  0.00     0.005 A 
HETATM    7  C6  UNL     1      26.929   4.166  49.301  1.00  0.00     0.038 A 
BRANCH   3   8
HETATM    8  C1  UNL     1      24.142   6.013  50.860  1.00  0.00     0.208 C 
BRANCH   8   9
HETATM    9  O1  UNL     1      24.479   6.735  52.015  1.00  0.00    -0.396 OA
HETATM   10  H1  UNL     1      24.730   7.635  51.713  1.00  0.00     0.209 HD
ENDBRANCH   8   9
ENDBRANCH   3   8
BRANCH   4  11
HETATM   11  O2  UNL     1      25.384   7.951  49.357  1.00  0.00    -0.360 OA
HETATM   12  H4  UNL     1      24.944   8.400  48.590  1.00  0.00     0.217 HD
ENDBRANCH   4  11
ENDBRANCH   1   2
BRANCH   1  13
HETATM   13  C8  UNL     1      26.178   2.264  51.237  1.00  0.00     0.141 C 
HETATM   14  C9  UNL     1      26.854   2.010  52.337  1.00  0.00     0.033 C 
BRANCH  14  15
HETATM   15  C10 UNL     1      27.571   0.753  52.533  1.00  0.00     0.169 C 
HETATM   16  C11 UNL     1      26.627  -0.399  52.471  1.00  0.00     0.011 C 
HETATM   17  C12 UNL     1      27.010  -1.661  52.723  1.00  0.00     0.035 C 
HETATM   18  C13 UNL     1      28.336  -2.197  53.092  1.00  0.00     0.063 C 
HETATM   19  C14 UNL     1      29.390  -1.455  53.477  1.00  0.00     0.035 C 
HETATM   20  C15 UNL     1      29.477   0.021  53.618  1.00  0.00     0.199 C 
HETATM   21  O5  UNL     1      28.246   0.645  53.745  1.00  0.00    -0.374 OA
BRANCH  18  22
HETATM   22  O4  UNL     1      28.520  -3.563  53.044  1.00  0.00    -0.361 OA
HETATM   23  H13 UNL     1      27.666  -4.131  52.975  1.00  0.00     0.217 HD
ENDBRANCH  18  22
ENDBRANCH  14  15
ENDBRANCH   1  13
TORSDOF 7
ENDMDL
MODEL 2
REMARK VINA RESULT:      -7.5      1.687      2.855
REMARK  7 active torsions:
REMARK  status: ('A' for Active; 'I' for Inactive)
REMARK    1  A    between atoms: O1_1  and  C1_2 
REMARK    2  A    between atoms: C1_2  and  C2_3 
REMARK    3  A    between atoms: C3_4  and  O2_5 
REMARK    4  A    between atoms: C7_9  and  O3_10 
REMARK    5  A    between atoms: O3_10  and  C8_11 
REMARK    6  A    between atoms: C9_12  and  C10_13 
REMARK    7  A    between atoms: C13_16  and  O4_17 
ROOT
HETATM    1  O3  UNL     1      25.565   3.465  50.918  1.00  0.00    -0.322 OA
ENDROOT
BRANCH   1   2
HETATM    2  C7  UNL     1      24.310   3.869  51.237  1.00  0.00     0.086 A 
HETATM    3  C2  UNL     1      23.638   5.062  51.275  1.00  0.00     0.032 A 
HETATM    4  C3  UNL     1      22.321   5.167  51.653  1.00  0.00     0.076 A 
HETATM    5  C4  UNL     1      21.582   4.073  52.022  1.00  0.00     0.037 A 
HETATM    6  C5  UNL     1      22.220   2.828  52.001  1.00  0.00     0.005 A 
HETATM    7  C6  UNL     1      23.546   2.756  51.615  1.00  0.00     0.038 A 
BRANCH   3   8
HETATM    8  C1  UNL     1      24.388   6.273  50.889  1.00  0.00     0.208 C 
BRANCH   8   9
HETATM    9  O1  UNL     1      24.595   7.120  51.989  1.00  0.00    -0.396 OA
HETATM   10  H1  UNL     1      24.103   6.722  52.739  1.00  0.00     0.209 HD
ENDBRANCH   8   9
ENDBRANCH   3   8
BRANCH   4  11
HETATM   11  O2  UNL     1      21.752   6.430  51.651  1.00  0.00    -0.360 OA
HETATM   12  H4  UNL     1      22.135   7.218  52.115  1.00  0.00     0.217 HD
ENDBRANCH   4  11
ENDBRANCH   1   2
BRANCH   1  13
HETATM   13  C8  UNL     1      26.304   2.438  51.402  1.00  0.00     0.141 C 
HETATM   14  C9  UNL     1      26.988   2.126  52.482  1.00  0.00     0.033 C 
BRANCH  14  15
HETATM   15  C10 UNL     1      27.678   0.846  52.620  1.00  0.00     0.169 C 
HETATM   16  C11 UNL     1      26.705  -0.280  52.540  1.00  0.00     0.011 C 
HETATM   17  C12 UNL     1      27.062  -1.559  52.741  1.00  0.00     0.035 C 
HETATM   18  C13 UNL     1      28.383  -2.138  53.062  1.00  0.00     0.063 C 
HETATM   19  C14 UNL     1      29.462  -1.436  53.448  1.00  0.00     0.035 C 
HETATM   20  C15 UNL     1      29.589   0.033  53.636  1.00  0.00     0.199 C 
HETATM   21  O5  UNL     1      28.377   0.681  53.811  1.00  0.00    -0.374 OA
BRANCH  18  22
HETATM   22  O4  UNL     1      28.532  -3.507  52.963  1.00  0.00    -0.361 OA
HETATM   23  H13 UNL     1      29.485  -3.868  53.094  1.00  0.00     0.217 HD
ENDBRANCH  18  22
ENDBRANCH  14  15
ENDBRANCH   1  13
TORSDOF 7
ENDMDL
MODEL 3
REMARK VINA RESULT:      -7.4      4.266      7.253
REMARK  7 active torsions:
REMARK  status: ('A' for Active; 'I' for Inactive)
REMARK    1  A    between atoms: O1_1  and  C1_2 
REMARK    2  A    between atoms: C1_2  and  C2_3 
REMARK    3  A    between atoms: C3_4  and  O2_5 
REMARK    4  A    between atoms: C7_9  and  O3_10 
REMARK    5  A    between atoms: O3_10  and  C8_11 
REMARK    6  A    between atoms: C9_12  and  C10_13 
REMARK    7  A    between atoms: C13_16  and  O4_17 
ROOT
HETATM    1  O3  UNL     1      25.723   1.526  52.844  1.00  0.00    -0.322 OA
ENDROOT
BRANCH   1   2
HETATM    2  C7  UNL     1      26.788   0.696  52.974  1.00  0.00     0.086 A 
HETATM    3  C2  UNL     1      28.118   0.838  53.267  1.00  0.00     0.032 A 
HETATM    4  C3  UNL     1      28.987  -0.225  53.330  1.00  0.00     0.076 A 
HETATM    5  C4  UNL     1      28.578  -1.513  53.100  1.00  0.00     0.037 A 
HETATM    6  C5  UNL     1      27.227  -1.715  52.796  1.00  0.00     0.005 A 
HETATM    7  C6  UNL     1      26.378  -0.624  52.741  1.00  0.00     0.038 A 
BRANCH   3   8
HETATM    8  C1  UNL     1      28.613   2.205  53.521  1.00  0.00     0.208 C 
BRANCH   8   9
HETATM    9  O1  UNL     1      27.654   2.983  54.187  1.00  0.00    -0.396 OA
HETATM   10  H1  UNL     1      27.775   2.805  55.145  1.00  0.00     0.209 HD
ENDBRANCH   8   9
ENDBRANCH   3   8
BRANCH   4  11
HETATM   11  O2  UNL     1      30.311   0.046  53.636  1.00  0.00    -0.360 OA
HETATM   12  H4  UNL     1      31.014   0.237  52.964  1.00  0.00     0.217 HD
ENDBRANCH   4  11
ENDBRANCH   1   2
BRANCH   1  13
HETATM   13  C8  UNL     1      24.397   1.251  52.802  1.00  0.00     0.141 C 
HETATM   14  C9  UNL     1      23.333   1.584  52.104  1.00  0.00     0.033 C 
BRANCH  14  15
HETATM   15  C10 UNL     1      22.012   1.033  52.393  1.00  0.00     0.169 C 
HETATM   16  C11 UNL     1      22.108  -0.024  53.440  1.00  0.00     0.011 C 
HETATM   17  C12 UNL     1      21.054  -0.765  53.816  1.00  0.00     0.035 C 
HETATM   18  C13 UNL     1      19.654  -0.737  53.344  1.00  0.00     0.063 C 
HETATM   19  C14 UNL     1      19.220  -0.091  52.248  1.00  0.00     0.035 C 
HETATM   20  C15 UNL     1      20.007   0.722  51.284  1.00  0.00     0.199 C 
HETATM   21  O5  UNL     1      21.366   0.454  51.305  1.00  0.00    -0.374 OA
BRANCH  18  22
HETATM   22  O4  UNL     1      18.709  -1.426  54.076  1.00  0.00    -0.361 OA
HETATM   23  H13 UNL     1      18.857  -1.454  55.093  1.00  0.00     0.217 HD
ENDBRANCH  18  22
ENDBRANCH  14  15
ENDBRANCH   1  13
TORSDOF 7
ENDMDL
MODEL 4
REMARK VINA RESULT:      -7.3      4.625      6.214
REMARK  7 active torsions:
REMARK  status: ('A' for Active; 'I' for Inactive)
REMARK    1  A    between atoms: O1_1  and  C1_2 
REMARK    2  A    between atoms: C1_2  and  C2_3 
REMARK    3  A    between atoms: C3_4  and  O2_5 
REMARK    4  A    between atoms: C7_9  and  O3_10 
REMARK    5  A    between atoms: O3_10  and  C8_11 
REMARK    6  A    between atoms: C9_12  and  C10_13 
REMARK    7  A    between atoms: C13_16  and  O4_17 
ROOT
HETATM    1  O3  UNL     1      22.775   1.696  52.963  1.00  0.00    -0.322 OA
ENDROOT
BRANCH   1   2
HETATM    2  C7  UNL     1      21.602   1.045  52.761  1.00  0.00     0.086 A 
HETATM    3  C2  UNL     1      20.791   0.223  53.498  1.00  0.00     0.032 A 
HETATM    4  C3  UNL     1      19.620  -0.306  53.009  1.00  0.00     0.076 A 
HETATM    5  C4  UNL     1      19.180  -0.043  51.738  1.00  0.00     0.037 A 
HETATM    6  C5  UNL     1      19.970   0.792  50.942  1.00  0.00     0.005 A 
HETATM    7  C6  UNL     1      21.143   1.308  51.463  1.00  0.00     0.038 A 
BRANCH   3   8
HETATM    8  C1  UNL     1      21.220  -0.094  54.874  1.00  0.00     0.208 C 
BRANCH   8   9
HETATM    9  O1  UNL     1      21.260  -1.480  55.093  1.00  0.00    -0.396 OA
HETATM   10  H1  UNL     1      20.812  -1.635  55.953  1.00  0.00     0.209 HD
ENDBRANCH   8   9
ENDBRANCH   3   8
BRANCH   4  11
HETATM   11  O2  UNL     1      18.886  -1.124  53.852  1.00  0.00    -0.360 OA
HETATM   12  H4  UNL     1      18.258  -0.796  54.545  1.00  0.00     0.217 HD
ENDBRANCH   4  11
ENDBRANCH   1   2
BRANCH   1  13
HETATM   13  C8  UNL     1      24.041   1.220  53.027  1.00  0.00     0.141 C 
HETATM   14  C9  UNL     1      25.275   1.675  53.072  1.00  0.00     0.033 C 
BRANCH  14  15
HETATM   15  C10 UNL     1      26.429   0.783  53.139  1.00  0.00     0.169 C 
HETATM   16  C11 UNL     1      26.030  -0.610  52.788  1.00  0.00     0.011 C 
HETATM   17  C12 UNL     1      26.879  -1.647  52.872  1.00  0.00     0.035 C 
HETATM   18  C13 UNL     1      28.294  -1.687  53.294  1.00  0.00     0.063 C 
HETATM   19  C14 UNL     1      28.946  -0.684  53.908  1.00  0.00     0.035 C 
HETATM   20  C15 UNL     1      28.427   0.654  54.295  1.00  0.00     0.199 C 
HETATM   21  O5  UNL     1      27.046   0.715  54.385  1.00  0.00    -0.374 OA
BRANCH  18  22
HETATM   22  O4  UNL     1      29.013  -2.838  53.045  1.00  0.00    -0.361 OA
HETATM   23  H13 UNL     1      28.834  -3.296  52.143  1.00  0.00     0.217 HD
ENDBRANCH  18  22
ENDBRANCH  14  15
ENDBRANCH   1  13
TORSDOF 7
ENDMDL
MODEL 5
REMARK VINA RESULT:      -7.2      4.316      7.398
REMARK  7 active torsions:
REMARK  status: ('A' for Active; 'I' for Inactive)
REMARK    1  A    between atoms: O1_1  and  C1_2 
REMARK    2  A    between atoms: C1_2  and  C2_3 
REMARK    3  A    between atoms: C3_4  and  O2_5 
REMARK    4  A    between atoms: C7_9  and  O3_10 
REMARK    5  A    between atoms: O3_10  and  C8_11 
REMARK    6  A    between atoms: C9_12  and  C10_13 
REMARK    7  A    between atoms: C13_16  and  O4_17 
ROOT
HETATM    1  O3  UNL     1      25.738   1.331  52.045  1.00  0.00    -0.322 OA
ENDROOT
BRANCH   1   2
HETATM    2  C7  UNL     1      26.895   0.960  52.648  1.00  0.00     0.086 A 
HETATM    3  C2  UNL     1      27.555  -0.218  52.874  1.00  0.00     0.032 A 
HETATM    4  C3  UNL     1      28.756  -0.287  53.540  1.00  0.00     0.076 A 
HETATM    5  C4  UNL     1      29.380   0.831  54.029  1.00  0.00     0.037 A 
HETATM    6  C5  UNL     1      28.749   2.063  53.826  1.00  0.00     0.005 A 
HETATM    7  C6  UNL     1      27.542   2.098  53.152  1.00  0.00     0.038 A 
BRANCH   3   8
HETATM    8  C1  UNL     1      26.925  -1.454  52.371  1.00  0.00     0.208 C 
BRANCH   8   9
HETATM    9  O1  UNL     1      26.628  -2.341  53.416  1.00  0.00    -0.396 OA
HETATM   10  H1  UNL     1      26.144  -1.818  54.091  1.00  0.00     0.209 HD
ENDBRANCH   8   9
ENDBRANCH   3   8
BRANCH   4  11
HETATM   11  O2  UNL     1      29.326  -1.538  53.706  1.00  0.00    -0.360 OA
HETATM   12  H4  UNL     1      29.938  -1.781  54.448  1.00  0.00     0.217 HD
ENDBRANCH   4  11
ENDBRANCH   1   2
BRANCH   1  13
HETATM   13  C8  UNL     1      24.456   1.008  52.336  1.00  0.00     0.141 C 
HETATM   14  C9  UNL     1      23.778   0.356  53.257  1.00  0.00     0.033 C 
BRANCH  14  15
HETATM   15  C10 UNL     1      22.324   0.229  53.205  1.00  0.00     0.169 C 
HETATM   16  C11 UNL     1      21.862  -0.843  54.133  1.00  0.00     0.011 C 
HETATM   17  C12 UNL     1      20.580  -1.235  54.202  1.00  0.00     0.035 C 
HETATM   18  C13 UNL     1      19.398  -0.760  53.453  1.00  0.00     0.063 C 
HETATM   19  C14 UNL     1      19.438   0.028  52.364  1.00  0.00     0.035 C 
HETATM   20  C15 UNL     1      20.628   0.591  51.676  1.00  0.00     0.199 C 
HETATM   21  O5  UNL     1      21.806  -0.084  51.952  1.00  0.00    -0.374 OA
BRANCH  18  22
HETATM   22  O4  UNL     1      18.151  -1.149  53.896  1.00  0.00    -0.361 OA
HETATM   23  H13 UNL     1      17.533  -1.572  53.192  1.00  0.00     0.217 HD
ENDBRANCH  18  22
ENDBRANCH  14  15
ENDBRANCH   1  13
TORSDOF 7
ENDMDL
MODEL 6
REMARK VINA RESULT:      -7.1      1.438      7.765
REMARK  7 active torsions:
REMARK  status: ('A' for Active; 'I' for Inactive)
REMARK    1  A    between atoms: O1_1  and  C1_2 
REMARK    2  A    between atoms: C1_2  and  C2_3 
REMARK    3  A    between atoms: C3_4  and  O2_5 
REMARK    4  A    between atoms: C7_9  and  O3_10 
REMARK    5  A    between atoms: O3_10  and  C8_11 
REMARK    6  A    between atoms: C9_12  and  C10_13 
REMARK    7  A    between atoms: C13_16  and  O4_17 
ROOT
HETATM    1  O3  UNL     1      26.801   1.324  52.983  1.00  0.00    -0.322 OA
ENDROOT
BRANCH   1   2
HETATM    2  C7  UNL     1      27.679   0.296  53.093  1.00  0.00     0.086 A 
HETATM    3  C2  UNL     1      27.626  -1.065  52.952  1.00  0.00     0.032 A 
HETATM    4  C3  UNL     1      28.720  -1.878  53.133  1.00  0.00     0.076 A 
HETATM    5  C4  UNL     1      29.950  -1.377  53.471  1.00  0.00     0.037 A 
HETATM    6  C5  UNL     1      30.060   0.009  53.627  1.00  0.00     0.005 A 
HETATM    7  C6  UNL     1      28.942   0.800  53.438  1.00  0.00     0.038 A 
BRANCH   3   8
HETATM    8  C1  UNL     1      26.324  -1.658  52.592  1.00  0.00     0.208 C 
BRANCH   8   9
HETATM    9  O1  UNL     1      25.258  -0.909  53.113  1.00  0.00    -0.396 OA
HETATM   10  H1  UNL     1      24.436  -1.361  52.820  1.00  0.00     0.209 HD
ENDBRANCH   8   9
ENDBRANCH   3   8
BRANCH   4  11
HETATM   11  O2  UNL     1      28.540  -3.241  52.962  1.00  0.00    -0.360 OA
HETATM   12  H4  UNL     1      28.942  -3.937  53.544  1.00  0.00     0.217 HD
ENDBRANCH   4  11
ENDBRANCH   1   2
BRANCH   1  13
HETATM   13  C8  UNL     1      26.723   2.316  52.064  1.00  0.00     0.141 C 
HETATM   14  C9  UNL     1      26.088   2.588  50.944  1.00  0.00     0.033 C 
BRANCH  14  15
HETATM   15  C10 UNL     1      26.296   3.838  50.219  1.00  0.00     0.169 C 
HETATM   16  C11 UNL     1      24.986   4.464  49.877  1.00  0.00     0.011 C 
HETATM   17  C12 UNL     1      24.890   5.569  49.120  1.00  0.00     0.035 C 
HETATM   18  C13 UNL     1      25.948   6.382  48.485  1.00  0.00     0.063 C 
HETATM   19  C14 UNL     1      27.235   6.016  48.361  1.00  0.00     0.035 C 
HETATM   20  C15 UNL     1      27.885   4.759  48.814  1.00  0.00     0.199 C 
HETATM   21  O5  UNL     1      26.998   3.715  49.024  1.00  0.00    -0.374 OA
BRANCH  18  22
HETATM   22  O4  UNL     1      25.598   7.616  47.974  1.00  0.00    -0.361 OA
HETATM   23  H13 UNL     1      24.641   7.933  48.174  1.00  0.00     0.217 HD
ENDBRANCH  18  22
ENDBRANCH  14  15
ENDBRANCH   1  13
TORSDOF 7
ENDMDL
MODEL 7
REMARK VINA RESULT:      -6.9      3.227      7.450
REMARK  7 active torsions:
REMARK  status: ('A' for Active; 'I' for Inactive)
REMARK    1  A    between atoms: O1_1  and  C1_2 
REMARK    2  A    between atoms: C1_2  and  C2_3 
REMARK    3  A    between atoms: C3_4  and  O2_5 
REMARK    4  A    between atoms: C7_9  and  O3_10 
REMARK    5  A    between atoms: O3_10  and  C8_11 
REMARK    6  A    between atoms: C9_12  and  C10_13 
REMARK    7  A    between atoms: C13_16  and  O4_17 
ROOT
HETATM    1  O3  UNL     1      25.738  -0.444  52.644  1.00  0.00    -0.322 OA
ENDROOT
BRANCH   1   2
HETATM    2  C7  UNL     1      27.046  -0.380  53.001  1.00  0.00     0.086 A 
HETATM    3  C2  UNL     1      27.924   0.610  53.354  1.00  0.00     0.032 A 
HETATM    4  C3  UNL     1      29.238   0.364  53.674  1.00  0.00     0.076 A 
HETATM    5  C4  UNL     1      29.764  -0.901  53.663  1.00  0.00     0.037 A 
HETATM    6  C5  UNL     1      28.910  -1.951  53.309  1.00  0.00     0.005 A 
HETATM    7  C6  UNL     1      27.593  -1.671  52.992  1.00  0.00     0.038 A 
BRANCH   3   8
HETATM    8  C1  UNL     1      27.409   1.993  53.380  1.00  0.00     0.208 C 
BRANCH   8   9
HETATM    9  O1  UNL     1      27.997   2.778  52.377  1.00  0.00    -0.396 OA
HETATM   10  H1  UNL     1      28.877   2.381  52.197  1.00  0.00     0.209 HD
ENDBRANCH   8   9
ENDBRANCH   3   8
BRANCH   4  11
HETATM   11  O2  UNL     1      30.028   1.450  54.015  1.00  0.00    -0.360 OA
HETATM   12  H4  UNL     1      30.561   1.515  54.849  1.00  0.00     0.217 HD
ENDBRANCH   4  11
ENDBRANCH   1   2
BRANCH   1  13
HETATM   13  C8  UNL     1      24.841   0.546  52.424  1.00  0.00     0.141 C 
HETATM   14  C9  UNL     1      23.563   0.793  52.620  1.00  0.00     0.033 C 
BRANCH  14  15
HETATM   15  C10 UNL     1      22.946   2.053  52.216  1.00  0.00     0.169 C 
HETATM   16  C11 UNL     1      23.735   3.208  52.732  1.00  0.00     0.011 C 
HETATM   17  C12 UNL     1      23.330   4.480  52.591  1.00  0.00     0.035 C 
HETATM   18  C13 UNL     1      22.116   5.026  51.950  1.00  0.00     0.063 C 
HETATM   19  C14 UNL     1      21.047   4.302  51.576  1.00  0.00     0.035 C 
HETATM   20  C15 UNL     1      20.832   2.838  51.708  1.00  0.00     0.199 C 
HETATM   21  O5  UNL     1      21.640   2.237  52.659  1.00  0.00    -0.374 OA
BRANCH  18  22
HETATM   22  O4  UNL     1      22.064   6.385  51.712  1.00  0.00    -0.361 OA
HETATM   23  H13 UNL     1      22.967   6.852  51.563  1.00  0.00     0.217 HD
ENDBRANCH  18  22
ENDBRANCH  14  15
ENDBRANCH   1  13
TORSDOF 7
ENDMDL
MODEL 8
REMARK VINA RESULT:      -6.9      2.922      3.989
REMARK  7 active torsions:
REMARK  status: ('A' for Active; 'I' for Inactive)
REMARK    1  A    between atoms: O1_1  and  C1_2 
REMARK    2  A    between atoms: C1_2  and  C2_3 
REMARK    3  A    between atoms: C3_4  and  O2_5 
REMARK    4  A    between atoms: C7_9  and  O3_10 
REMARK    5  A    between atoms: O3_10  and  C8_11 
REMARK    6  A    between atoms: C9_12  and  C10_13 
REMARK    7  A    between atoms: C13_16  and  O4_17 
ROOT
HETATM    1  O3  UNL     1      23.539   3.608  50.402  1.00  0.00    -0.322 OA
ENDROOT
BRANCH   1   2
HETATM    2  C7  UNL     1      24.581   4.285  49.857  1.00  0.00     0.086 A 
HETATM    3  C2  UNL     1      25.930   4.083  49.729  1.00  0.00     0.032 A 
HETATM    4  C3  UNL     1      26.764   4.979  49.104  1.00  0.00     0.076 A 
HETATM    5  C4  UNL     1      26.298   6.148  48.560  1.00  0.00     0.037 A 
HETATM    6  C5  UNL     1      24.927   6.405  48.663  1.00  0.00     0.005 A 
HETATM    7  C6  UNL     1      24.114   5.483  49.298  1.00  0.00     0.038 A 
BRANCH   3   8
HETATM    8  C1  UNL     1      26.484   2.840  50.299  1.00  0.00     0.208 C 
BRANCH   8   9
HETATM    9  O1  UNL     1      27.318   3.106  51.396  1.00  0.00    -0.396 OA
HETATM   10  H1  UNL     1      28.180   2.682  51.194  1.00  0.00     0.209 HD
ENDBRANCH   8   9
ENDBRANCH   3   8
BRANCH   4  11
HETATM   11  O2  UNL     1      28.111   4.662  49.037  1.00  0.00    -0.360 OA
HETATM   12  H4  UNL     1      28.794   5.213  48.577  1.00  0.00     0.217 HD
ENDBRANCH   4  11
ENDBRANCH   1   2
BRANCH   1  13
HETATM   13  C8  UNL     1      23.523   2.647  51.356  1.00  0.00     0.141 C 
HETATM   14  C9  UNL     1      23.220   1.372  51.479  1.00  0.00     0.033 C 
BRANCH  14  15
HETATM   15  C10 UNL     1      23.348   0.664  52.750  1.00  0.00     0.169 C 
HETATM   16  C11 UNL     1      24.774   0.318  53.011  1.00  0.00     0.011 C 
HETATM   17  C12 UNL     1      25.156  -0.426  54.061  1.00  0.00     0.035 C 
HETATM   18  C13 UNL     1      24.349  -1.042  55.135  1.00  0.00     0.063 C 
HETATM   19  C14 UNL     1      23.010  -1.158  55.125  1.00  0.00     0.035 C 
HETATM   20  C15 UNL     1      22.053  -0.715  54.079  1.00  0.00     0.199 C 
HETATM   21  O5  UNL     1      22.631  -0.525  52.835  1.00  0.00    -0.374 OA
BRANCH  18  22
HETATM   22  O4  UNL     1      25.011  -1.540  56.238  1.00  0.00    -0.361 OA
HETATM   23  H13 UNL     1      24.429  -1.744  57.060  1.00  0.00     0.217 HD
ENDBRANCH  18  22
ENDBRANCH  14  15
ENDBRANCH   1  13
TORSDOF 7
ENDMDL
MODEL 9
REMARK VINA RESULT:      -6.9      4.224      7.480
REMARK  7 active torsions:
REMARK  status: ('A' for Active; 'I' for Inactive)
REMARK    1  A    between atoms: O1_1  and  C1_2 
REMARK    2  A    between atoms: C1_2  and  C2_3 
REMARK    3  A    between atoms: C3_4  and  O2_5 
REMARK    4  A    between atoms: C7_9  and  O3_10 
REMARK    5  A    between atoms: O3_10  and  C8_11 
REMARK    6  A    between atoms: C9_12  and  C10_13 
REMARK    7  A    between atoms: C13_16  and  O4_17 
ROOT
HETATM    1  O3  UNL     1      25.787   1.243  53.537  1.00  0.00    -0.322 OA
ENDROOT
BRANCH   1   2
HETATM    2  C7  UNL     1      26.945   0.542  53.436  1.00  0.00     0.086 A 
HETATM    3  C2  UNL     1      28.282   0.836  53.474  1.00  0.00     0.032 A 
HETATM    4  C3  UNL     1      29.261  -0.119  53.337  1.00  0.00     0.076 A 
HETATM    5  C4  UNL     1      28.963  -1.444  53.152  1.00  0.00     0.037 A 
HETATM    6  C5  UNL     1      27.611  -1.800  53.106  1.00  0.00     0.005 A 
HETATM    7  C6  UNL     1      26.649  -0.816  53.247  1.00  0.00     0.038 A 
BRANCH   3   8
HETATM    8  C1  UNL     1      28.659   2.249  53.668  1.00  0.00     0.208 C 
BRANCH   8   9
HETATM    9  O1  UNL     1      29.549   2.399  54.743  1.00  0.00    -0.396 OA
HETATM   10  H1  UNL     1      30.288   1.774  54.577  1.00  0.00     0.209 HD
ENDBRANCH   8   9
ENDBRANCH   3   8
BRANCH   4  11
HETATM   11  O2  UNL     1      30.580   0.302  53.392  1.00  0.00    -0.360 OA
HETATM   12  H4  UNL     1      30.908   1.041  53.966  1.00  0.00     0.217 HD
ENDBRANCH   4  11
ENDBRANCH   1   2
BRANCH   1  13
HETATM   13  C8  UNL     1      24.623   1.114  52.858  1.00  0.00     0.141 C 
HETATM   14  C9  UNL     1      23.411   0.633  53.041  1.00  0.00     0.033 C 
BRANCH  14  15
HETATM   15  C10 UNL     1      22.388   0.693  52.001  1.00  0.00     0.169 C 
HETATM   16  C11 UNL     1      22.847   1.549  50.870  1.00  0.00     0.011 C 
HETATM   17  C12 UNL     1      22.055   1.856  49.830  1.00  0.00     0.035 C 
HETATM   18  C13 UNL     1      20.657   1.468  49.551  1.00  0.00     0.063 C 
HETATM   19  C14 UNL     1      19.821   0.900  50.437  1.00  0.00     0.035 C 
HETATM   20  C15 UNL     1      20.087   0.535  51.853  1.00  0.00     0.199 C 
HETATM   21  O5  UNL     1      21.162   1.206  52.412  1.00  0.00    -0.374 OA
BRANCH  18  22
HETATM   22  O4  UNL     1      20.158   1.705  48.286  1.00  0.00    -0.361 OA
HETATM   23  H13 UNL     1      20.751   2.270  47.666  1.00  0.00     0.217 HD
ENDBRANCH  18  22
ENDBRANCH  14  15
ENDBRANCH   1  13
TORSDOF 7
ENDMDL
