MODEL 1
REMARK VINA RESULT:      -7.3      0.000      0.000
REMARK  4 active torsions:
REMARK  status: ('A' for Active; 'I' for Inactive)
REMARK    1  A    between atoms: C2_2  and  N1_3 
REMARK    2  A    between atoms: N1_3  and  C4_5 
REMARK    3  A    between atoms: C4_5  and  C5_6 
REMARK    4  A    between atoms: C15_19  and  O1_20 
ROOT
HETATM    1  C5  UNL     1      24.298   4.966  50.629  1.00  0.00     0.065 C 
HETATM    2  N2  UNL     1      24.023   4.281  51.760  1.00  0.00    -0.252 NA
HETATM    3  C6  UNL     1      23.796   2.877  51.689  1.00  0.00     0.076 C 
HETATM    4  C7  UNL     1      24.661   1.778  52.013  1.00  0.00     0.032 A 
HETATM    5  C8  UNL     1      25.939   1.768  51.522  1.00  0.00     0.018 A 
HETATM    6  C9  UNL     1      26.793   0.736  51.834  1.00  0.00     0.020 A 
HETATM    7  C10 UNL     1      26.446  -0.339  52.641  1.00  0.00     0.013 A 
HETATM    8 BR1  UNL     1      27.624  -1.760  53.068  1.00  0.00    -0.051 Br
HETATM    9  C11 UNL     1      25.167  -0.344  53.143  1.00  0.00     0.062 A 
HETATM   10  C12 UNL     1      24.317   0.691  52.827  1.00  0.00     0.130 A 
HETATM   11  F1  UNL     1      23.065   0.661  53.358  1.00  0.00    -0.205 F 
HETATM   12  C13 UNL     1      22.546   2.678  51.306  1.00  0.00    -0.022 C 
HETATM   13  C14 UNL     1      21.179   3.205  50.906  1.00  0.00     0.049 C 
HETATM   14  C15 UNL     1      21.961   3.826  50.049  1.00  0.00     0.101 C 
HETATM   15  C17 UNL     1      22.448   2.821  49.052  1.00  0.00     0.099 C 
HETATM   16  C18 UNL     1      21.961   1.557  49.252  1.00  0.00     0.017 C 
HETATM   17  C19 UNL     1      22.276   1.289  50.746  1.00  0.00     0.071 C 
HETATM   18  O2  UNL     1      23.032   4.105  48.731  1.00  0.00    -0.343 OA
HETATM   19  C20 UNL     1      24.365   4.289  49.293  1.00  0.00     0.232 C 
ENDROOT
BRANCH   1  20
HETATM   20  C4  UNL     1      24.503   6.408  50.897  1.00  0.00     0.328 C 
BRANCH  20  21
HETATM   21  N1  UNL     1      24.944   7.211  49.825  1.00  0.00     0.089 N 
HETATM   22  C3  UNL     1      24.181   8.437  49.672  1.00  0.00     0.310 C 
BRANCH  21  23
HETATM   23  C2  UNL     1      26.321   7.504  49.694  1.00  0.00     0.268 C 
HETATM   24  C1  UNL     1      26.995   6.748  48.558  1.00  0.00     0.037 C 
ENDBRANCH  21  23
ENDBRANCH  20  21
ENDBRANCH   1  20
BRANCH  14  25
HETATM   25  O1  UNL     1      21.622   4.934  50.881  1.00  0.00    -0.353 OA
HETATM   26  C16 UNL     1      20.739   5.919  50.361  1.00  0.00     0.210 C 
ENDBRANCH  14  25
TORSDOF 4
ENDMDL
MODEL 2
REMARK VINA RESULT:      -7.3      2.698      5.234
REMARK  4 active torsions:
REMARK  status: ('A' for Active; 'I' for Inactive)
REMARK    1  A    between atoms: C2_2  and  N1_3 
REMARK    2  A    between atoms: N1_3  and  C4_5 
REMARK    3  A    between atoms: C4_5  and  C5_6 
REMARK    4  A    between atoms: C15_19  and  O1_20 
ROOT
HETATM    1  C5  UNL     1      21.211   1.220  51.489  1.00  0.00     0.065 C 
HETATM    2  N2  UNL     1      22.372   1.114  50.808  1.00  0.00    -0.252 NA
HETATM    3  C6  UNL     1      23.501   1.873  51.229  1.00  0.00     0.076 C 
HETATM    4  C7  UNL     1      24.662   1.477  51.975  1.00  0.00     0.032 A 
HETATM    5  C8  UNL     1      24.499   0.762  53.131  1.00  0.00     0.018 A 
HETATM    6  C9  UNL     1      25.596   0.355  53.854  1.00  0.00     0.020 A 
HETATM    7  C10 UNL     1      26.907   0.622  53.488  1.00  0.00     0.013 A 
HETATM    8 BR1  UNL     1      28.416   0.061  54.487  1.00  0.00    -0.051 Br
HETATM    9  C11 UNL     1      27.088   1.339  52.330  1.00  0.00     0.062 A 
HETATM   10  C12 UNL     1      25.988   1.744  51.610  1.00  0.00     0.130 A 
HETATM   11  F1  UNL     1      26.207   2.434  50.459  1.00  0.00    -0.205 F 
HETATM   12  C13 UNL     1      23.376   3.100  50.753  1.00  0.00    -0.022 C 
HETATM   13  C14 UNL     1      22.620   4.141  49.945  1.00  0.00     0.049 C 
HETATM   14  C15 UNL     1      21.696   3.746  50.793  1.00  0.00     0.101 C 
HETATM   15  C17 UNL     1      22.045   4.283  52.145  1.00  0.00     0.099 C 
HETATM   16  C18 UNL     1      23.182   5.046  52.165  1.00  0.00     0.017 C 
HETATM   17  C19 UNL     1      24.228   4.139  51.468  1.00  0.00     0.071 C 
HETATM   18  O2  UNL     1      20.833   3.502  52.262  1.00  0.00    -0.343 OA
HETATM   19  C20 UNL     1      21.073   2.125  52.678  1.00  0.00     0.232 C 
ENDROOT
BRANCH   1  20
HETATM   20  C4  UNL     1      20.153   0.361  50.909  1.00  0.00     0.328 C 
BRANCH  20  21
HETATM   21  N1  UNL     1      18.816   0.666  51.237  1.00  0.00     0.089 N 
HETATM   22  C3  UNL     1      18.080   1.280  50.146  1.00  0.00     0.310 C 
BRANCH  21  23
HETATM   23  C2  UNL     1      18.005  -0.320  51.845  1.00  0.00     0.268 C 
HETATM   24  C1  UNL     1      18.618  -0.917  53.103  1.00  0.00     0.037 C 
ENDBRANCH  21  23
ENDBRANCH  20  21
ENDBRANCH   1  20
BRANCH  14  25
HETATM   25  O1  UNL     1      21.182   3.140  49.608  1.00  0.00    -0.353 OA
HETATM   26  C16 UNL     1      20.331   3.914  48.773  1.00  0.00     0.210 C 
ENDBRANCH  14  25
TORSDOF 4
ENDMDL
MODEL 3
REMARK VINA RESULT:      -7.3      1.348      1.579
REMARK  4 active torsions:
REMARK  status: ('A' for Active; 'I' for Inactive)
REMARK    1  A    between atoms: C2_2  and  N1_3 
REMARK    2  A    between atoms: N1_3  and  C4_5 
REMARK    3  A    between atoms: C4_5  and  C5_6 
REMARK    4  A    between atoms: C15_19  and  O1_20 
ROOT
HETATM    1  C5  UNL     1      22.698   4.328  51.018  1.00  0.00     0.065 C 
HETATM    2  N2  UNL     1      22.755   3.655  52.188  1.00  0.00    -0.252 NA
HETATM    3  C6  UNL     1      22.907   2.239  52.172  1.00  0.00     0.076 C 
HETATM    4  C7  UNL     1      24.067   1.426  52.402  1.00  0.00     0.032 A 
HETATM    5  C8  UNL     1      25.232   1.729  51.750  1.00  0.00     0.018 A 
HETATM    6  C9  UNL     1      26.363   0.976  51.968  1.00  0.00     0.020 A 
HETATM    7  C10 UNL     1      26.417  -0.108  52.832  1.00  0.00     0.013 A 
HETATM    8 BR1  UNL     1      27.976  -1.143  53.129  1.00  0.00    -0.051 Br
HETATM    9  C11 UNL     1      25.256  -0.425  53.495  1.00  0.00     0.062 A 
HETATM   10  C12 UNL     1      24.127   0.331  53.273  1.00  0.00     0.130 A 
HETATM   11  F1  UNL     1      23.003  -0.001  53.962  1.00  0.00    -0.205 F 
HETATM   12  C13 UNL     1      21.719   1.698  51.958  1.00  0.00    -0.022 C 
HETATM   13  C14 UNL     1      20.223   1.823  51.728  1.00  0.00     0.049 C 
HETATM   14  C15 UNL     1      20.701   2.583  50.766  1.00  0.00     0.101 C 
HETATM   15  C17 UNL     1      21.317   1.692  49.734  1.00  0.00     0.099 C 
HETATM   16  C18 UNL     1      21.215   0.356  50.018  1.00  0.00     0.017 C 
HETATM   17  C19 UNL     1      21.767   0.259  51.462  1.00  0.00     0.071 C 
HETATM   18  O2  UNL     1      21.492   3.066  49.316  1.00  0.00    -0.343 OA
HETATM   19  C20 UNL     1      22.784   3.624  49.697  1.00  0.00     0.232 C 
ENDROOT
BRANCH   1  20
HETATM   20  C4  UNL     1      22.538   5.785  51.231  1.00  0.00     0.328 C 
BRANCH  20  21
HETATM   21  N1  UNL     1      23.333   6.647  50.447  1.00  0.00     0.089 N 
HETATM   22  C3  UNL     1      22.732   7.952  50.236  1.00  0.00     0.310 C 
BRANCH  21  23
HETATM   23  C2  UNL     1      24.702   6.813  50.763  1.00  0.00     0.268 C 
HETATM   24  C1  UNL     1      25.639   6.154  49.762  1.00  0.00     0.037 C 
ENDBRANCH  21  23
ENDBRANCH  20  21
ENDBRANCH   1  20
BRANCH  14  25
HETATM   25  O1  UNL     1      20.179   3.603  51.614  1.00  0.00    -0.353 OA
HETATM   26  C16 UNL     1      18.822   3.991  51.443  1.00  0.00     0.210 C 
ENDBRANCH  14  25
TORSDOF 4
ENDMDL
MODEL 4
REMARK VINA RESULT:      -6.9      3.763      5.891
REMARK  4 active torsions:
REMARK  status: ('A' for Active; 'I' for Inactive)
REMARK    1  A    between atoms: C2_2  and  N1_3 
REMARK    2  A    between atoms: N1_3  and  C4_5 
REMARK    3  A    between atoms: C4_5  and  C5_6 
REMARK    4  A    between atoms: C15_19  and  O1_20 
ROOT
HETATM    1  C5  UNL     1      23.681   2.649  52.222  1.00  0.00     0.065 C 
HETATM    2  N2  UNL     1      23.841   2.055  51.020  1.00  0.00    -0.252 NA
HETATM    3  C6  UNL     1      22.772   2.084  50.079  1.00  0.00     0.076 C 
HETATM    4  C7  UNL     1      22.579   2.902  48.915  1.00  0.00     0.032 A 
HETATM    5  C8  UNL     1      22.751   4.257  49.018  1.00  0.00     0.018 A 
HETATM    6  C9  UNL     1      22.590   5.060  47.913  1.00  0.00     0.020 A 
HETATM    7  C10 UNL     1      22.256   4.586  46.653  1.00  0.00     0.013 A 
HETATM    8 BR1  UNL     1      22.035   5.697  45.133  1.00  0.00    -0.051 Br
HETATM    9  C11 UNL     1      22.082   3.229  46.533  1.00  0.00     0.062 A 
HETATM   10  C12 UNL     1      22.243   2.429  47.641  1.00  0.00     0.130 A 
HETATM   11  F1  UNL     1      22.081   1.089  47.479  1.00  0.00    -0.205 F 
HETATM   12  C13 UNL     1      21.915   1.128  50.397  1.00  0.00    -0.022 C 
HETATM   13  C14 UNL     1      21.485  -0.032  51.278  1.00  0.00     0.049 C 
HETATM   14  C15 UNL     1      21.652   0.923  52.166  1.00  0.00     0.101 C 
HETATM   15  C17 UNL     1      20.533   1.905  52.009  1.00  0.00     0.099 C 
HETATM   16  C18 UNL     1      19.631   1.570  51.035  1.00  0.00     0.017 C 
HETATM   17  C19 UNL     1      20.527   1.308  49.798  1.00  0.00     0.071 C 
HETATM   18  O2  UNL     1      21.408   2.373  53.061  1.00  0.00    -0.343 OA
HETATM   19  C20 UNL     1      22.402   3.335  52.600  1.00  0.00     0.232 C 
ENDROOT
BRANCH   1  20
HETATM   20  C4  UNL     1      24.892   2.518  53.064  1.00  0.00     0.328 C 
BRANCH  20  21
HETATM   21  N1  UNL     1      25.878   1.601  52.646  1.00  0.00     0.089 N 
HETATM   22  C3  UNL     1      27.131   2.233  52.273  1.00  0.00     0.310 C 
BRANCH  21  23
HETATM   23  C2  UNL     1      26.152   0.461  53.437  1.00  0.00     0.268 C 
HETATM   24  C1  UNL     1      26.459  -0.784  52.619  1.00  0.00     0.037 C 
ENDBRANCH  21  23
ENDBRANCH  20  21
ENDBRANCH   1  20
BRANCH  14  25
HETATM   25  O1  UNL     1      22.791   0.126  52.483  1.00  0.00    -0.353 OA
HETATM   26  C16 UNL     1      22.656  -0.868  53.490  1.00  0.00     0.210 C 
ENDBRANCH  14  25
TORSDOF 4
ENDMDL
MODEL 5
REMARK VINA RESULT:      -6.6      1.973      2.359
REMARK  4 active torsions:
REMARK  status: ('A' for Active; 'I' for Inactive)
REMARK    1  A    between atoms: C2_2  and  N1_3 
REMARK    2  A    between atoms: N1_3  and  C4_5 
REMARK    3  A    between atoms: C4_5  and  C5_6 
REMARK    4  A    between atoms: C15_19  and  O1_20 
ROOT
HETATM    1  C5  UNL     1      23.711   4.876  50.773  1.00  0.00     0.065 C 
HETATM    2  N2  UNL     1      22.627   4.567  51.516  1.00  0.00    -0.252 NA
HETATM    3  C6  UNL     1      22.032   3.280  51.383  1.00  0.00     0.076 C 
HETATM    4  C7  UNL     1      22.125   2.120  52.224  1.00  0.00     0.032 A 
HETATM    5  C8  UNL     1      23.360   1.694  52.636  1.00  0.00     0.018 A 
HETATM    6  C9  UNL     1      23.475   0.597  53.458  1.00  0.00     0.020 A 
HETATM    7  C10 UNL     1      22.394  -0.140  53.921  1.00  0.00     0.013 A 
HETATM    8 BR1  UNL     1      22.556  -1.652  55.052  1.00  0.00    -0.051 Br
HETATM    9  C11 UNL     1      21.148   0.275  53.518  1.00  0.00     0.062 A 
HETATM   10  C12 UNL     1      21.039   1.373  52.695  1.00  0.00     0.130 A 
HETATM   11  F1  UNL     1      19.788   1.766  52.333  1.00  0.00    -0.205 F 
HETATM   12  C13 UNL     1      21.252   3.293  50.315  1.00  0.00    -0.022 C 
HETATM   13  C14 UNL     1      20.637   4.014  49.128  1.00  0.00     0.049 C 
HETATM   14  C15 UNL     1      21.920   4.209  48.917  1.00  0.00     0.101 C 
HETATM   15  C17 UNL     1      22.523   2.909  48.486  1.00  0.00     0.099 C 
HETATM   16  C18 UNL     1      21.624   1.880  48.396  1.00  0.00     0.017 C 
HETATM   17  C19 UNL     1      20.911   1.913  49.772  1.00  0.00     0.071 C 
HETATM   18  O2  UNL     1      23.572   3.904  48.540  1.00  0.00    -0.343 OA
HETATM   19  C20 UNL     1      24.306   3.901  49.801  1.00  0.00     0.232 C 
ENDROOT
BRANCH   1  20
HETATM   20  C4  UNL     1      24.190   6.250  51.044  1.00  0.00     0.328 C 
BRANCH  20  21
HETATM   21  N1  UNL     1      24.654   7.005  49.947  1.00  0.00     0.089 N 
HETATM   22  C3  UNL     1      23.957   8.268  49.780  1.00  0.00     0.310 C 
BRANCH  21  23
HETATM   23  C2  UNL     1      26.042   7.219  49.785  1.00  0.00     0.268 C 
HETATM   24  C1  UNL     1      26.633   6.481  48.593  1.00  0.00     0.037 C 
ENDBRANCH  21  23
ENDBRANCH  20  21
ENDBRANCH   1  20
BRANCH  14  25
HETATM   25  O1  UNL     1      21.556   5.532  49.306  1.00  0.00    -0.353 OA
HETATM   26  C16 UNL     1      21.079   6.420  48.304  1.00  0.00     0.210 C 
ENDBRANCH  14  25
TORSDOF 4
ENDMDL
MODEL 6
REMARK VINA RESULT:      -6.3      3.965      7.169
REMARK  4 active torsions:
REMARK  status: ('A' for Active; 'I' for Inactive)
REMARK    1  A    between atoms: C2_2  and  N1_3 
REMARK    2  A    between atoms: N1_3  and  C4_5 
REMARK    3  A    between atoms: C4_5  and  C5_6 
REMARK    4  A    between atoms: C15_19  and  O1_20 
ROOT
HETATM    1  C5  UNL     1      20.885   2.556  51.817  1.00  0.00     0.065 C 
HETATM    2  N2  UNL     1      21.416   3.697  52.306  1.00  0.00    -0.252 NA
HETATM    3  C6  UNL     1      22.145   4.557  51.436  1.00  0.00     0.076 C 
HETATM    4  C7  UNL     1      21.756   5.784  50.800  1.00  0.00     0.032 A 
HETATM    5  C8  UNL     1      20.563   5.837  50.129  1.00  0.00     0.018 A 
HETATM    6  C9  UNL     1      20.159   7.006  49.528  1.00  0.00     0.020 A 
HETATM    7  C10 UNL     1      20.895   8.182  49.549  1.00  0.00     0.013 A 
HETATM    8 BR1  UNL     1      20.335   9.790  48.718  1.00  0.00    -0.051 Br
HETATM    9  C11 UNL     1      22.094   8.146  50.219  1.00  0.00     0.062 A 
HETATM   10  C12 UNL     1      22.494   6.974  50.819  1.00  0.00     0.130 A 
HETATM   11  F1  UNL     1      23.677   6.982  51.488  1.00  0.00    -0.205 F 
HETATM   12  C13 UNL     1      23.373   4.080  51.316  1.00  0.00    -0.022 C 
HETATM   13  C14 UNL     1      24.439   3.053  51.657  1.00  0.00     0.049 C 
HETATM   14  C15 UNL     1      23.467   2.285  51.217  1.00  0.00     0.101 C 
HETATM   15  C17 UNL     1      23.368   2.464  49.734  1.00  0.00     0.099 C 
HETATM   16  C18 UNL     1      24.293   3.331  49.215  1.00  0.00     0.017 C 
HETATM   17  C19 UNL     1      24.128   4.594  50.097  1.00  0.00     0.071 C 
HETATM   18  O2  UNL     1      22.344   1.532  50.152  1.00  0.00    -0.343 OA
HETATM   19  C20 UNL     1      21.048   2.162  50.379  1.00  0.00     0.232 C 
ENDROOT
BRANCH   1  20
HETATM   20  C4  UNL     1      20.166   1.793  52.862  1.00  0.00     0.328 C 
BRANCH  20  21
HETATM   21  N1  UNL     1      20.041   0.400  52.680  1.00  0.00     0.089 N 
HETATM   22  C3  UNL     1      20.542  -0.376  53.800  1.00  0.00     0.310 C 
BRANCH  21  23
HETATM   23  C2  UNL     1      18.803  -0.140  52.260  1.00  0.00     0.268 C 
HETATM   24  C1  UNL     1      18.253  -1.200  53.204  1.00  0.00     0.037 C 
ENDBRANCH  21  23
ENDBRANCH  20  21
ENDBRANCH   1  20
BRANCH  14  25
HETATM   25  O1  UNL     1      23.387   1.968  52.605  1.00  0.00    -0.353 OA
HETATM   26  C16 UNL     1      24.039   0.791  53.064  1.00  0.00     0.210 C 
ENDBRANCH  14  25
TORSDOF 4
ENDMDL
MODEL 7
REMARK VINA RESULT:      -6.2      3.035      4.762
REMARK  4 active torsions:
REMARK  status: ('A' for Active; 'I' for Inactive)
REMARK    1  A    between atoms: C2_2  and  N1_3 
REMARK    2  A    between atoms: N1_3  and  C4_5 
REMARK    3  A    between atoms: C4_5  and  C5_6 
REMARK    4  A    between atoms: C15_19  and  O1_20 
ROOT
HETATM    1  C5  UNL     1      22.399   5.259  49.934  1.00  0.00     0.065 C 
HETATM    2  N2  UNL     1      22.157   4.039  49.408  1.00  0.00    -0.252 NA
HETATM    3  C6  UNL     1      21.953   2.931  50.278  1.00  0.00     0.076 C 
HETATM    4  C7  UNL     1      20.741   2.275  50.680  1.00  0.00     0.032 A 
HETATM    5  C8  UNL     1      19.688   3.033  51.120  1.00  0.00     0.018 A 
HETATM    6  C9  UNL     1      18.510   2.429  51.493  1.00  0.00     0.020 A 
HETATM    7  C10 UNL     1      18.295   1.059  51.456  1.00  0.00     0.013 A 
HETATM    8 BR1  UNL     1      16.671   0.232  51.971  1.00  0.00    -0.051 Br
HETATM    9  C11 UNL     1      19.341   0.285  51.016  1.00  0.00     0.062 A 
HETATM   10  C12 UNL     1      20.519   0.893  50.644  1.00  0.00     0.130 A 
HETATM   11  F1  UNL     1      21.525   0.096  50.196  1.00  0.00    -0.205 F 
HETATM   12  C13 UNL     1      23.136   2.488  50.670  1.00  0.00    -0.022 C 
HETATM   13  C14 UNL     1      24.653   2.555  50.649  1.00  0.00     0.049 C 
HETATM   14  C15 UNL     1      24.342   3.782  51.004  1.00  0.00     0.101 C 
HETATM   15  C17 UNL     1      23.838   3.745  52.413  1.00  0.00     0.099 C 
HETATM   16  C18 UNL     1      23.847   2.496  52.975  1.00  0.00     0.017 C 
HETATM   17  C19 UNL     1      23.099   1.632  51.928  1.00  0.00     0.071 C 
HETATM   18  O2  UNL     1      23.776   5.111  51.941  1.00  0.00    -0.343 OA
HETATM   19  C20 UNL     1      22.467   5.481  51.415  1.00  0.00     0.232 C 
ENDROOT
BRANCH   1  20
HETATM   20  C4  UNL     1      22.586   6.283  48.881  1.00  0.00     0.328 C 
BRANCH  20  21
HETATM   21  N1  UNL     1      23.661   7.184  49.033  1.00  0.00     0.089 N 
HETATM   22  C3  UNL     1      24.527   7.250  47.869  1.00  0.00     0.310 C 
BRANCH  21  23
HETATM   23  C2  UNL     1      23.412   8.495  49.500  1.00  0.00     0.268 C 
HETATM   24  C1  UNL     1      22.000   8.983  49.211  1.00  0.00     0.037 C 
ENDBRANCH  21  23
ENDBRANCH  20  21
ENDBRANCH   1  20
BRANCH  14  25
HETATM   25  O1  UNL     1      24.783   4.043  49.674  1.00  0.00    -0.353 OA
HETATM   26  C16 UNL     1      26.158   4.336  49.467  1.00  0.00     0.210 C 
ENDBRANCH  14  25
TORSDOF 4
ENDMDL
MODEL 8
REMARK VINA RESULT:      -6.1      3.516      6.314
REMARK  4 active torsions:
REMARK  status: ('A' for Active; 'I' for Inactive)
REMARK    1  A    between atoms: C2_2  and  N1_3 
REMARK    2  A    between atoms: N1_3  and  C4_5 
REMARK    3  A    between atoms: C4_5  and  C5_6 
REMARK    4  A    between atoms: C15_19  and  O1_20 
ROOT
HETATM    1  C5  UNL     1      23.609   3.511  50.771  1.00  0.00     0.065 C 
HETATM    2  N2  UNL     1      23.599   3.867  49.468  1.00  0.00    -0.252 NA
HETATM    3  C6  UNL     1      23.560   5.247  49.121  1.00  0.00     0.076 C 
HETATM    4  C7  UNL     1      24.604   6.125  48.675  1.00  0.00     0.032 A 
HETATM    5  C8  UNL     1      25.786   6.158  49.367  1.00  0.00     0.018 A 
HETATM    6  C9  UNL     1      26.809   6.977  48.949  1.00  0.00     0.020 A 
HETATM    7  C10 UNL     1      26.735   7.803  47.836  1.00  0.00     0.013 A 
HETATM    8 BR1  UNL     1      28.147   8.930  47.265  1.00  0.00    -0.051 Br
HETATM    9  C11 UNL     1      25.557   7.781  47.131  1.00  0.00     0.062 A 
HETATM   10  C12 UNL     1      24.535   6.960  47.554  1.00  0.00     0.130 A 
HETATM   11  F1  UNL     1      23.391   6.951  46.819  1.00  0.00    -0.205 F 
HETATM   12  C13 UNL     1      22.306   5.659  49.207  1.00  0.00    -0.022 C 
HETATM   13  C14 UNL     1      20.836   5.395  49.482  1.00  0.00     0.049 C 
HETATM   14  C15 UNL     1      21.391   4.976  50.598  1.00  0.00     0.101 C 
HETATM   15  C17 UNL     1      21.860   6.175  51.362  1.00  0.00     0.099 C 
HETATM   16  C18 UNL     1      21.585   7.368  50.749  1.00  0.00     0.017 C 
HETATM   17  C19 UNL     1      22.150   7.170  49.319  1.00  0.00     0.071 C 
HETATM   18  O2  UNL     1      22.209   4.989  52.113  1.00  0.00    -0.343 OA
HETATM   19  C20 UNL     1      23.572   4.532  51.868  1.00  0.00     0.232 C 
ENDROOT
BRANCH   1  20
HETATM   20  C4  UNL     1      23.652   2.040  50.938  1.00  0.00     0.328 C 
BRANCH  20  21
HETATM   21  N1  UNL     1      23.106   1.505  52.123  1.00  0.00     0.089 N 
HETATM   22  C3  UNL     1      21.915   0.705  51.899  1.00  0.00     0.310 C 
BRANCH  21  23
HETATM   23  C2  UNL     1      23.949   0.834  53.038  1.00  0.00     0.268 C 
HETATM   24  C1  UNL     1      23.421  -0.530  53.459  1.00  0.00     0.037 C 
ENDBRANCH  21  23
ENDBRANCH  20  21
ENDBRANCH   1  20
BRANCH  14  25
HETATM   25  O1  UNL     1      21.029   3.713  50.045  1.00  0.00    -0.353 OA
HETATM   26  C16 UNL     1      19.726   3.211  50.312  1.00  0.00     0.210 C 
ENDBRANCH  14  25
TORSDOF 4
ENDMDL
MODEL 9
REMARK VINA RESULT:      -6.0      4.462      7.314
REMARK  4 active torsions:
REMARK  status: ('A' for Active; 'I' for Inactive)
REMARK    1  A    between atoms: C2_2  and  N1_3 
REMARK    2  A    between atoms: N1_3  and  C4_5 
REMARK    3  A    between atoms: C4_5  and  C5_6 
REMARK    4  A    between atoms: C15_19  and  O1_20 
ROOT
HETATM    1  C5  UNL     1      18.373   2.315  51.102  1.00  0.00     0.065 C 
HETATM    2  N2  UNL     1      19.015   3.189  51.906  1.00  0.00    -0.252 NA
HETATM    3  C6  UNL     1      20.317   3.643  51.548  1.00  0.00     0.076 C 
HETATM    4  C7  UNL     1      20.740   4.882  50.960  1.00  0.00     0.032 A 
HETATM    5  C8  UNL     1      20.086   5.352  49.853  1.00  0.00     0.018 A 
HETATM    6  C9  UNL     1      20.461   6.547  49.283  1.00  0.00     0.020 A 
HETATM    7  C10 UNL     1      21.490   7.344  49.761  1.00  0.00     0.013 A 
HETATM    8 BR1  UNL     1      22.004   8.988  48.972  1.00  0.00    -0.051 Br
HETATM    9  C11 UNL     1      22.156   6.887  50.872  1.00  0.00     0.062 A 
HETATM   10  C12 UNL     1      21.778   5.692  51.439  1.00  0.00     0.130 A 
HETATM   11  F1  UNL     1      22.448   5.281  52.549  1.00  0.00    -0.205 F 
HETATM   12  C13 UNL     1      21.191   2.720  51.911  1.00  0.00    -0.022 C 
HETATM   13  C14 UNL     1      21.525   1.384  52.551  1.00  0.00     0.049 C 
HETATM   14  C15 UNL     1      20.641   1.027  51.645  1.00  0.00     0.101 C 
HETATM   15  C17 UNL     1      21.285   1.138  50.299  1.00  0.00     0.099 C 
HETATM   16  C18 UNL     1      22.592   1.544  50.338  1.00  0.00     0.017 C 
HETATM   17  C19 UNL     1      22.539   2.824  51.210  1.00  0.00     0.071 C 
HETATM   18  O2  UNL     1      19.917   0.705  50.117  1.00  0.00    -0.343 OA
HETATM   19  C20 UNL     1      18.996   1.801  49.839  1.00  0.00     0.232 C 
ENDROOT
BRANCH   1  20
HETATM   20  C4  UNL     1      17.038   1.958  51.634  1.00  0.00     0.328 C 
BRANCH  20  21
HETATM   21  N1  UNL     1      15.912   2.501  50.981  1.00  0.00     0.089 N 
HETATM   22  C3  UNL     1      14.772   1.602  50.956  1.00  0.00     0.310 C 
BRANCH  21  23
HETATM   23  C2  UNL     1      15.469   3.801  51.318  1.00  0.00     0.268 C 
HETATM   24  C1  UNL     1      15.411   4.051  52.818  1.00  0.00     0.037 C 
ENDBRANCH  21  23
ENDBRANCH  20  21
ENDBRANCH   1  20
BRANCH  14  25
HETATM   25  O1  UNL     1      19.842   0.853  52.814  1.00  0.00    -0.353 OA
HETATM   26  C16 UNL     1      19.792  -0.438  53.407  1.00  0.00     0.210 C 
ENDBRANCH  14  25
TORSDOF 4
ENDMDL
