MODEL 1
REMARK VINA RESULT:      -9.2      0.000      0.000
REMARK  2 active torsions:
REMARK  status: ('A' for Active; 'I' for Inactive)
REMARK    1  A    between atoms: C5_6  and  N1_7 
REMARK    2  A    between atoms: N1_7  and  C6_8 
ROOT
HETATM    1  C6  UNL     1      23.920  -0.320  53.630  1.00  0.00     0.160 A 
HETATM    2  N2  UNL     1      24.364  -0.853  54.772  1.00  0.00    -0.222 NA
HETATM    3  C7  UNL     1      23.537  -1.464  55.626  1.00  0.00     0.238 A 
HETATM    4  N3  UNL     1      22.207  -1.580  55.390  1.00  0.00    -0.215 NA
HETATM    5  C8  UNL     1      21.679  -1.061  54.245  1.00  0.00     0.202 A 
HETATM    6  C9  UNL     1      22.579  -0.440  53.396  1.00  0.00     0.129 A 
HETATM    7  N4  UNL     1      22.204   0.152  52.140  1.00  0.00    -0.379 N 
HETATM    8  C10 UNL     1      20.974   0.835  51.789  1.00  0.00     0.161 C 
HETATM    9  C11 UNL     1      19.760   0.094  52.147  1.00  0.00    -0.007 A 
HETATM   10  C12 UNL     1      18.765   0.430  51.229  1.00  0.00     0.011 A 
HETATM   11  C13 UNL     1      17.503  -0.118  51.314  1.00  0.00     0.001 A 
HETATM   12  C14 UNL     1      17.191  -1.021  52.322  1.00  0.00     0.003 A 
HETATM   13  C15 UNL     1      18.169  -1.374  53.256  1.00  0.00     0.038 A 
HETATM   14  C16 UNL     1      19.433  -0.817  53.159  1.00  0.00     0.086 A 
HETATM   15  O1  UNL     1      20.296  -1.268  54.162  1.00  0.00    -0.289 OA
HETATM   16  H6  UNL     1      22.990   0.027  51.428  1.00  0.00     0.160 HD
ENDROOT
BRANCH   1  17
HETATM   17  N1  UNL     1      24.791   0.327  52.734  1.00  0.00    -0.339 N 
HETATM   18  H4  UNL     1      24.677   0.703  51.783  1.00  0.00     0.167 HD
BRANCH  17  19
HETATM   19  C5  UNL     1      26.144   0.637  53.013  1.00  0.00     0.035 A 
HETATM   20  C4  UNL     1      26.501   1.946  53.246  1.00  0.00     0.029 A 
HETATM   21  C3  UNL     1      27.796   2.307  53.546  1.00  0.00     0.004 A 
HETATM   22  C2  UNL     1      28.818   1.402  53.632  1.00  0.00     0.019 A 
HETATM   23  C1  UNL     1      28.518   0.076  53.409  1.00  0.00     0.013 A 
HETATM   24 BR1  UNL     1      29.811  -1.322  53.487  1.00  0.00    -0.051 Br
HETATM   25  C17 UNL     1      27.217  -0.255  53.112  1.00  0.00     0.048 A 
ENDBRANCH  17  19
ENDBRANCH   1  17
TORSDOF 2
ENDMDL
MODEL 2
REMARK VINA RESULT:      -9.0      4.173      5.480
REMARK  2 active torsions:
REMARK  status: ('A' for Active; 'I' for Inactive)
REMARK    1  A    between atoms: C5_6  and  N1_7 
REMARK    2  A    between atoms: N1_7  and  C6_8 
ROOT
HETATM    1  C6  UNL     1      26.316   2.395  51.170  1.00  0.00     0.160 A 
HETATM    2  N2  UNL     1      27.500   2.531  51.773  1.00  0.00    -0.222 NA
HETATM    3  C7  UNL     1      27.739   1.993  52.974  1.00  0.00     0.238 A 
HETATM    4  N3  UNL     1      26.803   1.281  53.648  1.00  0.00    -0.215 NA
HETATM    5  C8  UNL     1      25.569   1.098  53.096  1.00  0.00     0.202 A 
HETATM    6  C9  UNL     1      25.375   1.676  51.853  1.00  0.00     0.129 A 
HETATM    7  N4  UNL     1      24.145   1.576  51.117  1.00  0.00    -0.379 N 
HETATM    8  C10 UNL     1      22.785   1.537  51.619  1.00  0.00     0.161 C 
HETATM    9  C11 UNL     1      22.576   0.557  52.691  1.00  0.00    -0.007 A 
HETATM   10  C12 UNL     1      21.255   0.115  52.616  1.00  0.00     0.011 A 
HETATM   11  C13 UNL     1      20.766  -0.819  53.504  1.00  0.00     0.001 A 
HETATM   12  C14 UNL     1      21.581  -1.344  54.498  1.00  0.00     0.003 A 
HETATM   13  C15 UNL     1      22.908  -0.918  54.596  1.00  0.00     0.038 A 
HETATM   14  C16 UNL     1      23.387   0.020  53.698  1.00  0.00     0.086 A 
HETATM   15  O1  UNL     1      24.729   0.343  53.924  1.00  0.00    -0.289 OA
HETATM   16  H6  UNL     1      24.349   1.527  50.070  1.00  0.00     0.160 HD
ENDROOT
BRANCH   1  17
HETATM   17  N1  UNL     1      26.064   2.966  49.909  1.00  0.00    -0.339 N 
HETATM   18  H4  UNL     1      25.664   2.601  49.034  1.00  0.00     0.167 HD
BRANCH  17  19
HETATM   19  C5  UNL     1      26.328   4.315  49.572  1.00  0.00     0.035 A 
HETATM   20  C4  UNL     1      27.429   4.614  48.801  1.00  0.00     0.029 A 
HETATM   21  C3  UNL     1      27.725   5.905  48.420  1.00  0.00     0.004 A 
HETATM   22  C2  UNL     1      26.956   6.978  48.777  1.00  0.00     0.019 A 
HETATM   23  C1  UNL     1      25.840   6.739  49.549  1.00  0.00     0.013 A 
HETATM   24 BR1  UNL     1      24.655   8.109  50.138  1.00  0.00    -0.051 Br
HETATM   25  C17 UNL     1      25.570   5.440  49.913  1.00  0.00     0.048 A 
ENDBRANCH  17  19
ENDBRANCH   1  17
TORSDOF 2
ENDMDL
MODEL 3
REMARK VINA RESULT:      -8.6      2.213      3.537
REMARK  2 active torsions:
REMARK  status: ('A' for Active; 'I' for Inactive)
REMARK    1  A    between atoms: C5_6  and  N1_7 
REMARK    2  A    between atoms: N1_7  and  C6_8 
ROOT
HETATM    1  C6  UNL     1      24.852   2.684  51.701  1.00  0.00     0.160 A 
HETATM    2  N2  UNL     1      25.187   3.243  50.535  1.00  0.00    -0.222 NA
HETATM    3  C7  UNL     1      24.364   3.208  49.482  1.00  0.00     0.238 A 
HETATM    4  N3  UNL     1      23.148   2.610  49.531  1.00  0.00    -0.215 NA
HETATM    5  C8  UNL     1      22.736   2.017  50.688  1.00  0.00     0.202 A 
HETATM    6  C9  UNL     1      23.626   2.081  51.746  1.00  0.00     0.129 A 
HETATM    7  N4  UNL     1      23.356   1.523  53.043  1.00  0.00    -0.379 N 
HETATM    8  C10 UNL     1      22.611   0.326  53.380  1.00  0.00     0.161 C 
HETATM    9  C11 UNL     1      21.295   0.245  52.737  1.00  0.00    -0.007 A 
HETATM   10  C12 UNL     1      20.447  -0.474  53.581  1.00  0.00     0.011 A 
HETATM   11  C13 UNL     1      19.134  -0.712  53.237  1.00  0.00     0.001 A 
HETATM   12  C14 UNL     1      18.621  -0.240  52.036  1.00  0.00     0.003 A 
HETATM   13  C15 UNL     1      19.448   0.482  51.171  1.00  0.00     0.038 A 
HETATM   14  C16 UNL     1      20.766   0.715  51.528  1.00  0.00     0.086 A 
HETATM   15  O1  UNL     1      21.462   1.448  50.563  1.00  0.00    -0.289 OA
HETATM   16  H6  UNL     1      23.795   2.133  53.802  1.00  0.00     0.160 HD
ENDROOT
BRANCH   1  17
HETATM   17  N1  UNL     1      25.721   2.716  52.807  1.00  0.00    -0.339 N 
HETATM   18  H4  UNL     1      25.796   3.328  53.631  1.00  0.00     0.167 HD
BRANCH  17  19
HETATM   19  C5  UNL     1      26.770   1.792  53.031  1.00  0.00     0.035 A 
HETATM   20  C4  UNL     1      27.961   2.239  53.557  1.00  0.00     0.029 A 
HETATM   21  C3  UNL     1      29.010   1.385  53.820  1.00  0.00     0.004 A 
HETATM   22  C2  UNL     1      28.949   0.040  53.580  1.00  0.00     0.019 A 
HETATM   23  C1  UNL     1      27.780  -0.464  53.054  1.00  0.00     0.013 A 
HETATM   24 BR1  UNL     1      27.515  -2.308  52.656  1.00  0.00    -0.051 Br
HETATM   25  C17 UNL     1      26.750   0.412  52.802  1.00  0.00     0.048 A 
ENDBRANCH  17  19
ENDBRANCH   1  17
TORSDOF 2
ENDMDL
MODEL 4
REMARK VINA RESULT:      -8.6      5.108      8.121
REMARK  2 active torsions:
REMARK  status: ('A' for Active; 'I' for Inactive)
REMARK    1  A    between atoms: C5_6  and  N1_7 
REMARK    2  A    between atoms: N1_7  and  C6_8 
ROOT
HETATM    1  C6  UNL     1      22.961   3.388  50.856  1.00  0.00     0.160 A 
HETATM    2  N2  UNL     1      21.964   4.029  51.472  1.00  0.00    -0.222 NA
HETATM    3  C7  UNL     1      21.952   5.362  51.580  1.00  0.00     0.238 A 
HETATM    4  N3  UNL     1      22.941   6.140  51.074  1.00  0.00    -0.215 NA
HETATM    5  C8  UNL     1      23.992   5.557  50.431  1.00  0.00     0.202 A 
HETATM    6  C9  UNL     1      23.956   4.175  50.348  1.00  0.00     0.129 A 
HETATM    7  N4  UNL     1      24.972   3.394  49.696  1.00  0.00    -0.379 N 
HETATM    8  C10 UNL     1      26.399   3.638  49.622  1.00  0.00     0.161 C 
HETATM    9  C11 UNL     1      26.747   4.999  49.198  1.00  0.00    -0.007 A 
HETATM   10  C12 UNL     1      27.966   4.940  48.523  1.00  0.00     0.011 A 
HETATM   11  C13 UNL     1      28.548   6.077  48.004  1.00  0.00     0.001 A 
HETATM   12  C14 UNL     1      27.932   7.313  48.143  1.00  0.00     0.003 A 
HETATM   13  C15 UNL     1      26.711   7.401  48.816  1.00  0.00     0.038 A 
HETATM   14  C16 UNL     1      26.135   6.252  49.332  1.00  0.00     0.086 A 
HETATM   15  O1  UNL     1      24.919   6.502  49.974  1.00  0.00    -0.289 OA
HETATM   16  H6  UNL     1      24.532   2.541  49.229  1.00  0.00     0.160 HD
ENDROOT
BRANCH   1  17
HETATM   17  N1  UNL     1      22.976   1.985  50.749  1.00  0.00    -0.339 N 
HETATM   18  H4  UNL     1      22.831   1.334  49.965  1.00  0.00     0.167 HD
BRANCH  17  19
HETATM   19  C5  UNL     1      23.244   1.101  51.821  1.00  0.00     0.035 A 
HETATM   20  C4  UNL     1      24.527   1.008  52.314  1.00  0.00     0.029 A 
HETATM   21  C3  UNL     1      24.846   0.184  53.371  1.00  0.00     0.004 A 
HETATM   22  C2  UNL     1      23.921  -0.599  54.005  1.00  0.00     0.019 A 
HETATM   23  C1  UNL     1      22.620  -0.547  53.555  1.00  0.00     0.013 A 
HETATM   24 BR1  UNL     1      21.202  -1.566  54.316  1.00  0.00    -0.051 Br
HETATM   25  C17 UNL     1      22.332   0.285  52.498  1.00  0.00     0.048 A 
ENDBRANCH  17  19
ENDBRANCH   1  17
TORSDOF 2
ENDMDL
MODEL 5
REMARK VINA RESULT:      -8.5      4.813      7.973
REMARK  2 active torsions:
REMARK  status: ('A' for Active; 'I' for Inactive)
REMARK    1  A    between atoms: C5_6  and  N1_7 
REMARK    2  A    between atoms: N1_7  and  C6_8 
ROOT
HETATM    1  C6  UNL     1      22.829   3.358  50.788  1.00  0.00     0.160 A 
HETATM    2  N2  UNL     1      21.818   4.020  51.358  1.00  0.00    -0.222 NA
HETATM    3  C7  UNL     1      21.811   5.354  51.435  1.00  0.00     0.238 A 
HETATM    4  N3  UNL     1      22.821   6.114  50.942  1.00  0.00    -0.215 NA
HETATM    5  C8  UNL     1      23.888   5.510  50.345  1.00  0.00     0.202 A 
HETATM    6  C9  UNL     1      23.844   4.127  50.293  1.00  0.00     0.129 A 
HETATM    7  N4  UNL     1      24.874   3.325  49.691  1.00  0.00    -0.379 N 
HETATM    8  C10 UNL     1      26.305   3.559  49.655  1.00  0.00     0.161 C 
HETATM    9  C11 UNL     1      26.675   4.907  49.211  1.00  0.00    -0.007 A 
HETATM   10  C12 UNL     1      27.914   4.825  48.575  1.00  0.00     0.011 A 
HETATM   11  C13 UNL     1      28.520   5.946  48.049  1.00  0.00     0.001 A 
HETATM   12  C14 UNL     1      27.908   7.189  48.140  1.00  0.00     0.003 A 
HETATM   13  C15 UNL     1      26.667   7.300  48.773  1.00  0.00     0.038 A 
HETATM   14  C16 UNL     1      26.068   6.166  49.297  1.00  0.00     0.086 A 
HETATM   15  O1  UNL     1      24.835   6.439  49.896  1.00  0.00    -0.289 OA
HETATM   16  H6  UNL     1      24.443   2.464  49.230  1.00  0.00     0.160 HD
ENDROOT
BRANCH   1  17
HETATM   17  N1  UNL     1      22.838   1.953  50.713  1.00  0.00    -0.339 N 
HETATM   18  H4  UNL     1      22.704   1.284  49.942  1.00  0.00     0.167 HD
BRANCH  17  19
HETATM   19  C5  UNL     1      23.078   1.092  51.811  1.00  0.00     0.035 A 
HETATM   20  C4  UNL     1      22.069   0.268  52.255  1.00  0.00     0.029 A 
HETATM   21  C3  UNL     1      22.249  -0.609  53.302  1.00  0.00     0.004 A 
HETATM   22  C2  UNL     1      23.434  -0.726  53.976  1.00  0.00     0.019 A 
HETATM   23  C1  UNL     1      24.481   0.075  53.574  1.00  0.00     0.013 A 
HETATM   24 BR1  UNL     1      26.200   0.048  54.394  1.00  0.00    -0.051 Br
HETATM   25  C17 UNL     1      24.271   0.940  52.526  1.00  0.00     0.048 A 
ENDBRANCH  17  19
ENDBRANCH   1  17
TORSDOF 2
ENDMDL
MODEL 6
REMARK VINA RESULT:      -8.4      4.419      5.920
REMARK  2 active torsions:
REMARK  status: ('A' for Active; 'I' for Inactive)
REMARK    1  A    between atoms: C5_6  and  N1_7 
REMARK    2  A    between atoms: N1_7  and  C6_8 
ROOT
HETATM    1  C6  UNL     1      24.381   2.874  50.006  1.00  0.00     0.160 A 
HETATM    2  N2  UNL     1      23.671   3.227  48.931  1.00  0.00    -0.222 NA
HETATM    3  C7  UNL     1      22.429   2.773  48.734  1.00  0.00     0.238 A 
HETATM    4  N3  UNL     1      21.817   1.934  49.606  1.00  0.00    -0.215 NA
HETATM    5  C8  UNL     1      22.479   1.529  50.727  1.00  0.00     0.202 A 
HETATM    6  C9  UNL     1      23.761   2.029  50.882  1.00  0.00     0.129 A 
HETATM    7  N4  UNL     1      24.600   1.720  52.007  1.00  0.00    -0.379 N 
HETATM    8  C10 UNL     1      24.691   0.486  52.763  1.00  0.00     0.161 C 
HETATM    9  C11 UNL     1      23.392  -0.037  53.203  1.00  0.00    -0.007 A 
HETATM   10  C12 UNL     1      23.591  -0.730  54.398  1.00  0.00     0.011 A 
HETATM   11  C13 UNL     1      22.540  -1.336  55.052  1.00  0.00     0.001 A 
HETATM   12  C14 UNL     1      21.253  -1.270  54.535  1.00  0.00     0.003 A 
HETATM   13  C15 UNL     1      21.026  -0.583  53.340  1.00  0.00     0.038 A 
HETATM   14  C16 UNL     1      22.090   0.022  52.692  1.00  0.00     0.086 A 
HETATM   15  O1  UNL     1      21.704   0.667  51.513  1.00  0.00    -0.289 OA
HETATM   16  H6  UNL     1      25.203   2.566  52.256  1.00  0.00     0.160 HD
ENDROOT
BRANCH   1  17
HETATM   17  N1  UNL     1      25.690   3.348  50.209  1.00  0.00    -0.339 N 
HETATM   18  H4  UNL     1      26.511   2.971  50.701  1.00  0.00     0.167 HD
BRANCH  17  19
HETATM   19  C5  UNL     1      26.189   4.570  49.697  1.00  0.00     0.035 A 
HETATM   20  C4  UNL     1      27.308   4.557  48.894  1.00  0.00     0.029 A 
HETATM   21  C3  UNL     1      27.828   5.710  48.347  1.00  0.00     0.004 A 
HETATM   22  C2  UNL     1      27.277   6.945  48.558  1.00  0.00     0.019 A 
HETATM   23  C1  UNL     1      26.155   7.018  49.353  1.00  0.00     0.013 A 
HETATM   24 BR1  UNL     1      25.256   8.648  49.756  1.00  0.00    -0.051 Br
HETATM   25  C17 UNL     1      25.659   5.851  49.886  1.00  0.00     0.048 A 
ENDBRANCH  17  19
ENDBRANCH   1  17
TORSDOF 2
ENDMDL
MODEL 7
REMARK VINA RESULT:      -8.4      4.417      7.558
REMARK  2 active torsions:
REMARK  status: ('A' for Active; 'I' for Inactive)
REMARK    1  A    between atoms: C5_6  and  N1_7 
REMARK    2  A    between atoms: N1_7  and  C6_8 
ROOT
HETATM    1  C6  UNL     1      24.491   1.310  52.719  1.00  0.00     0.160 A 
HETATM    2  N2  UNL     1      25.194   0.194  52.931  1.00  0.00    -0.222 NA
HETATM    3  C7  UNL     1      26.354  -0.030  52.306  1.00  0.00     0.238 A 
HETATM    4  N3  UNL     1      26.886   0.854  51.426  1.00  0.00    -0.215 NA
HETATM    5  C8  UNL     1      26.226   2.017  51.158  1.00  0.00     0.202 A 
HETATM    6  C9  UNL     1      25.031   2.198  51.832  1.00  0.00     0.129 A 
HETATM    7  N4  UNL     1      24.208   3.368  51.684  1.00  0.00    -0.379 N 
HETATM    8  C10 UNL     1      23.987   4.181  50.504  1.00  0.00     0.161 C 
HETATM    9  C11 UNL     1      25.222   4.593  49.827  1.00  0.00    -0.007 A 
HETATM   10  C12 UNL     1      24.985   5.824  49.214  1.00  0.00     0.011 A 
HETATM   11  C13 UNL     1      25.973   6.463  48.497  1.00  0.00     0.001 A 
HETATM   12  C14 UNL     1      27.233   5.895  48.367  1.00  0.00     0.003 A 
HETATM   13  C15 UNL     1      27.497   4.662  48.971  1.00  0.00     0.038 A 
HETATM   14  C16 UNL     1      26.496   4.030  49.689  1.00  0.00     0.086 A 
HETATM   15  O1  UNL     1      26.913   2.810  50.230  1.00  0.00    -0.289 OA
HETATM   16  H6  UNL     1      23.735   3.602  52.612  1.00  0.00     0.160 HD
ENDROOT
BRANCH   1  17
HETATM   17  N1  UNL     1      23.267   1.542  53.374  1.00  0.00    -0.339 N 
HETATM   18  H4  UNL     1      22.879   2.348  53.885  1.00  0.00     0.167 HD
BRANCH  17  19
HETATM   19  C5  UNL     1      22.206   0.609  53.447  1.00  0.00     0.035 A 
HETATM   20  C4  UNL     1      22.296  -0.447  54.326  1.00  0.00     0.029 A 
HETATM   21  C3  UNL     1      21.286  -1.374  54.460  1.00  0.00     0.004 A 
HETATM   22  C2  UNL     1      20.128  -1.319  53.735  1.00  0.00     0.019 A 
HETATM   23  C1  UNL     1      19.982  -0.283  52.838  1.00  0.00     0.013 A 
HETATM   24 BR1  UNL     1      18.440  -0.046  51.746  1.00  0.00    -0.051 Br
HETATM   25  C17 UNL     1      21.007   0.628  52.727  1.00  0.00     0.048 A 
ENDBRANCH  17  19
ENDBRANCH   1  17
TORSDOF 2
ENDMDL
MODEL 8
REMARK VINA RESULT:      -8.1      3.453      7.110
REMARK  2 active torsions:
REMARK  status: ('A' for Active; 'I' for Inactive)
REMARK    1  A    between atoms: C5_6  and  N1_7 
REMARK    2  A    between atoms: N1_7  and  C6_8 
ROOT
HETATM    1  C6  UNL     1      22.320   1.220  52.555  1.00  0.00     0.160 A 
HETATM    2  N2  UNL     1      21.507   0.212  52.882  1.00  0.00    -0.222 NA
HETATM    3  C7  UNL     1      21.948  -0.846  53.569  1.00  0.00     0.238 A 
HETATM    4  N3  UNL     1      23.237  -0.962  53.975  1.00  0.00    -0.215 NA
HETATM    5  C8  UNL     1      24.126   0.028  53.678  1.00  0.00     0.202 A 
HETATM    6  C9  UNL     1      23.618   1.100  52.965  1.00  0.00     0.129 A 
HETATM    7  N4  UNL     1      24.406   2.238  52.576  1.00  0.00    -0.379 N 
HETATM    8  C10 UNL     1      25.803   2.288  52.192  1.00  0.00     0.161 C 
HETATM    9  C11 UNL     1      26.701   1.605  53.130  1.00  0.00    -0.007 A 
HETATM   10  C12 UNL     1      27.938   2.250  53.087  1.00  0.00     0.011 A 
HETATM   11  C13 UNL     1      28.990   1.826  53.870  1.00  0.00     0.001 A 
HETATM   12  C14 UNL     1      28.842   0.741  54.724  1.00  0.00     0.003 A 
HETATM   13  C15 UNL     1      27.615   0.076  54.786  1.00  0.00     0.038 A 
HETATM   14  C16 UNL     1      26.566   0.512  53.995  1.00  0.00     0.086 A 
HETATM   15  O1  UNL     1      25.408  -0.252  54.169  1.00  0.00    -0.289 OA
HETATM   16  H6  UNL     1      23.808   3.122  52.602  1.00  0.00     0.160 HD
ENDROOT
BRANCH   1  17
HETATM   17  N1  UNL     1      21.856   2.331  51.827  1.00  0.00    -0.339 N 
HETATM   18  H4  UNL     1      21.388   3.208  52.095  1.00  0.00     0.167 HD
BRANCH  17  19
HETATM   19  C5  UNL     1      21.976   2.479  50.424  1.00  0.00     0.035 A 
HETATM   20  C4  UNL     1      21.794   1.381  49.613  1.00  0.00     0.029 A 
HETATM   21  C3  UNL     1      21.874   1.466  48.240  1.00  0.00     0.004 A 
HETATM   22  C2  UNL     1      22.139   2.637  47.584  1.00  0.00     0.019 A 
HETATM   23  C1  UNL     1      22.329   3.769  48.345  1.00  0.00     0.013 A 
HETATM   24 BR1  UNL     1      22.706   5.483  47.604  1.00  0.00    -0.051 Br
HETATM   25  C17 UNL     1      22.243   3.653  49.713  1.00  0.00     0.048 A 
ENDBRANCH  17  19
ENDBRANCH   1  17
TORSDOF 2
ENDMDL
MODEL 9
REMARK VINA RESULT:      -7.9      4.724      6.991
REMARK  2 active torsions:
REMARK  status: ('A' for Active; 'I' for Inactive)
REMARK    1  A    between atoms: C5_6  and  N1_7 
REMARK    2  A    between atoms: N1_7  and  C6_8 
ROOT
HETATM    1  C6  UNL     1      23.084   4.573  52.334  1.00  0.00     0.160 A 
HETATM    2  N2  UNL     1      21.752   4.524  52.246  1.00  0.00    -0.222 NA
HETATM    3  C7  UNL     1      21.093   3.361  52.263  1.00  0.00     0.238 A 
HETATM    4  N3  UNL     1      21.730   2.168  52.372  1.00  0.00    -0.215 NA
HETATM    5  C8  UNL     1      23.089   2.138  52.467  1.00  0.00     0.202 A 
HETATM    6  C9  UNL     1      23.722   3.369  52.444  1.00  0.00     0.129 A 
HETATM    7  N4  UNL     1      25.147   3.530  52.545  1.00  0.00    -0.379 N 
HETATM    8  C10 UNL     1      26.197   2.669  52.037  1.00  0.00     0.161 C 
HETATM    9  C11 UNL     1      26.027   1.255  52.387  1.00  0.00    -0.007 A 
HETATM   10  C12 UNL     1      27.296   0.681  52.484  1.00  0.00     0.011 A 
HETATM   11  C13 UNL     1      27.452  -0.651  52.804  1.00  0.00     0.001 A 
HETATM   12  C14 UNL     1      26.345  -1.456  53.037  1.00  0.00     0.003 A 
HETATM   13  C15 UNL     1      25.063  -0.908  52.945  1.00  0.00     0.038 A 
HETATM   14  C16 UNL     1      24.920   0.432  52.624  1.00  0.00     0.086 A 
HETATM   15  O1  UNL     1      23.580   0.830  52.571  1.00  0.00    -0.289 OA
HETATM   16  H6  UNL     1      25.376   4.424  53.082  1.00  0.00     0.160 HD
ENDROOT
BRANCH   1  17
HETATM   17  N1  UNL     1      23.777   5.797  52.310  1.00  0.00    -0.339 N 
HETATM   18  H4  UNL     1      24.195   6.389  53.042  1.00  0.00     0.167 HD
BRANCH  17  19
HETATM   19  C5  UNL     1      24.082   6.524  51.134  1.00  0.00     0.035 A 
HETATM   20  C4  UNL     1      23.215   7.503  50.703  1.00  0.00     0.029 A 
HETATM   21  C3  UNL     1      23.469   8.260  49.580  1.00  0.00     0.004 A 
HETATM   22  C2  UNL     1      24.591   8.098  48.814  1.00  0.00     0.019 A 
HETATM   23  C1  UNL     1      25.495   7.132  49.199  1.00  0.00     0.013 A 
HETATM   24 BR1  UNL     1      27.109   6.767  48.255  1.00  0.00    -0.051 Br
HETATM   25  C17 UNL     1      25.215   6.392  50.324  1.00  0.00     0.048 A 
ENDBRANCH  17  19
ENDBRANCH   1  17
TORSDOF 2
ENDMDL
