MODEL 1
REMARK VINA RESULT:      -9.7      0.000      0.000
REMARK  6 active torsions:
REMARK  status: ('A' for Active; 'I' for Inactive)
REMARK    1  A    between atoms: N1_2  and  C2_3 
REMARK    2  A    between atoms: C2_3  and  C3_4 
REMARK    3  A    between atoms: C3_4  and  C4_5 
REMARK    4  A    between atoms: C12_13  and  C13_14 
REMARK    5  A    between atoms: C13_14  and  C14_15 
REMARK    6  A    between atoms: C14_15  and  C15_16 
ROOT
HETATM    1  C4  UNL     1      20.934   0.136  53.506  1.00  0.00    -0.056 A 
HETATM    2  C5  UNL     1      19.701  -0.336  53.045  1.00  0.00     0.009 A 
HETATM    3  C6  UNL     1      19.335   0.001  51.758  1.00  0.00     0.031 A 
HETATM    4  C7  UNL     1      20.091   0.760  50.909  1.00  0.00     0.042 A 
HETATM    5  C8  UNL     1      21.323   1.227  51.380  1.00  0.00    -0.009 A 
HETATM    6  C9  UNL     1      21.691   0.891  52.667  1.00  0.00     0.018 A 
HETATM    7  C10 UNL     1      22.224   2.049  50.566  1.00  0.00     0.096 C 
HETATM    8  C11 UNL     1      23.671   1.803  50.823  1.00  0.00     0.002 C 
HETATM    9  C12 UNL     1      24.497   2.519  51.594  1.00  0.00    -0.064 C 
HETATM   10  C22 UNL     1      23.946   3.690  52.284  1.00  0.00     0.156 C 
HETATM   11  N2  UNL     1      22.725   4.173  51.705  1.00  0.00    -0.356 N 
HETATM   12  C23 UNL     1      21.953   3.509  50.719  1.00  0.00     0.235 C 
HETATM   13  O1  UNL     1      21.096   4.116  50.020  1.00  0.00    -0.272 OA
HETATM   14  C24 UNL     1      21.990   1.722  49.086  1.00  0.00     0.131 C 
HETATM   15  C25 UNL     1      20.545   1.887  48.779  1.00  0.00     0.224 C 
HETATM   16  O2  UNL     1      19.995   2.644  47.909  1.00  0.00    -0.273 OA
HETATM   17  N3  UNL     1      19.659   1.081  49.573  1.00  0.00    -0.327 N 
HETATM   18  H26 UNL     1      22.413   5.099  52.068  1.00  0.00     0.162 HD
HETATM   19  H29 UNL     1      18.738   0.730  49.223  1.00  0.00     0.169 HD
ENDROOT
BRANCH   9  20
HETATM   20  C13 UNL     1      25.920   2.094  51.713  1.00  0.00     0.040 C 
BRANCH  20  21
HETATM   21  C14 UNL     1      26.001   0.652  52.082  1.00  0.00     0.043 C 
BRANCH  21  22
HETATM   22  C15 UNL     1      27.292   0.241  52.685  1.00  0.00    -0.052 A 
HETATM   23  C16 UNL     1      28.219   1.140  53.172  1.00  0.00     0.007 A 
HETATM   24  C17 UNL     1      29.435   0.830  53.742  1.00  0.00     0.001 A 
HETATM   25  C18 UNL     1      29.762  -0.528  53.836  1.00  0.00     0.001 A 
HETATM   26  C19 UNL     1      28.839  -1.456  53.350  1.00  0.00     0.007 A 
HETATM   27  C20 UNL     1      27.634  -1.091  52.788  1.00  0.00    -0.056 A 
HETATM   28  C21 UNL     1      26.741  -2.177  52.309  1.00  0.00     0.049 C 
ENDBRANCH  21  22
ENDBRANCH  20  21
ENDBRANCH   9  20
BRANCH   1  29
HETATM   29  C3  UNL     1      21.375  -0.207  54.904  1.00  0.00     0.068 C 
BRANCH  29  30
HETATM   30  C2  UNL     1      22.013  -1.587  54.908  1.00  0.00     0.273 C 
BRANCH  30  31
HETATM   31  N1  UNL     1      23.241  -1.559  55.690  1.00  0.00     0.079 N 
HETATM   32  C1  UNL     1      24.359  -1.005  54.989  1.00  0.00     0.306 C 
HETATM   33  H4  UNL     1      23.051  -0.987  56.537  1.00  0.00     0.315 HD
ENDBRANCH  30  31
ENDBRANCH  29  30
ENDBRANCH   1  29
TORSDOF 6
ENDMDL
MODEL 2
REMARK VINA RESULT:      -9.4      3.386      5.298
REMARK  6 active torsions:
REMARK  status: ('A' for Active; 'I' for Inactive)
REMARK    1  A    between atoms: N1_2  and  C2_3 
REMARK    2  A    between atoms: C2_3  and  C3_4 
REMARK    3  A    between atoms: C3_4  and  C4_5 
REMARK    4  A    between atoms: C12_13  and  C13_14 
REMARK    5  A    between atoms: C13_14  and  C14_15 
REMARK    6  A    between atoms: C14_15  and  C15_16 
ROOT
HETATM    1  C4  UNL     1      24.926   0.639  53.508  1.00  0.00    -0.056 A 
HETATM    2  C5  UNL     1      24.392  -0.492  54.132  1.00  0.00     0.009 A 
HETATM    3  C6  UNL     1      23.072  -0.798  53.867  1.00  0.00     0.031 A 
HETATM    4  C7  UNL     1      22.257  -0.074  53.042  1.00  0.00     0.042 A 
HETATM    5  C8  UNL     1      22.801   1.057  52.423  1.00  0.00    -0.009 A 
HETATM    6  C9  UNL     1      24.122   1.364  52.686  1.00  0.00     0.018 A 
HETATM    7  C10 UNL     1      22.030   1.913  51.517  1.00  0.00     0.096 C 
HETATM    8  C11 UNL     1      22.832   2.502  50.407  1.00  0.00     0.002 C 
HETATM    9  C12 UNL     1      23.359   3.730  50.341  1.00  0.00    -0.064 C 
HETATM   10  C22 UNL     1      23.144   4.628  51.481  1.00  0.00     0.156 C 
HETATM   11  N2  UNL     1      22.039   4.244  52.312  1.00  0.00    -0.356 N 
HETATM   12  C23 UNL     1      21.331   3.018  52.239  1.00  0.00     0.235 C 
HETATM   13  O1  UNL     1      20.187   2.875  52.751  1.00  0.00    -0.272 OA
HETATM   14  C24 UNL     1      20.933   1.072  50.854  1.00  0.00     0.131 C 
HETATM   15  C25 UNL     1      20.133   0.403  51.913  1.00  0.00     0.224 C 
HETATM   16  O2  UNL     1      18.877   0.479  52.133  1.00  0.00    -0.273 OA
HETATM   17  N3  UNL     1      20.886  -0.440  52.801  1.00  0.00    -0.327 N 
HETATM   18  H26 UNL     1      21.763   4.958  53.020  1.00  0.00     0.162 HD
HETATM   19  H29 UNL     1      20.481  -1.286  53.265  1.00  0.00     0.169 HD
ENDROOT
BRANCH   9  20
HETATM   20  C13 UNL     1      24.131   4.118  49.129  1.00  0.00     0.040 C 
BRANCH  20  21
HETATM   21  C14 UNL     1      24.565   5.541  49.223  1.00  0.00     0.043 C 
BRANCH  21  22
HETATM   22  C15 UNL     1      25.956   5.795  48.773  1.00  0.00    -0.052 A 
HETATM   23  C16 UNL     1      26.976   4.876  48.919  1.00  0.00     0.007 A 
HETATM   24  C17 UNL     1      28.286   5.044  48.526  1.00  0.00     0.001 A 
HETATM   25  C18 UNL     1      28.615   6.264  47.924  1.00  0.00     0.001 A 
HETATM   26  C19 UNL     1      27.599   7.209  47.767  1.00  0.00     0.007 A 
HETATM   27  C20 UNL     1      26.301   6.989  48.178  1.00  0.00    -0.056 A 
HETATM   28  C21 UNL     1      25.314   8.076  47.952  1.00  0.00     0.049 C 
ENDBRANCH  21  22
ENDBRANCH  20  21
ENDBRANCH   9  20
BRANCH   1  29
HETATM   29  C3  UNL     1      26.362   1.012  53.767  1.00  0.00     0.068 C 
BRANCH  29  30
HETATM   30  C2  UNL     1      26.892   0.198  54.937  1.00  0.00     0.273 C 
BRANCH  30  31
HETATM   31  N1  UNL     1      28.124  -0.472  54.550  1.00  0.00     0.079 N 
HETATM   32  C1  UNL     1      29.070   0.385  53.902  1.00  0.00     0.306 C 
HETATM   33  H4  UNL     1      28.550  -0.856  55.418  1.00  0.00     0.315 HD
ENDBRANCH  30  31
ENDBRANCH  29  30
ENDBRANCH   1  29
TORSDOF 6
ENDMDL
MODEL 3
REMARK VINA RESULT:      -8.6      2.889      5.204
REMARK  6 active torsions:
REMARK  status: ('A' for Active; 'I' for Inactive)
REMARK    1  A    between atoms: N1_2  and  C2_3 
REMARK    2  A    between atoms: C2_3  and  C3_4 
REMARK    3  A    between atoms: C3_4  and  C4_5 
REMARK    4  A    between atoms: C12_13  and  C13_14 
REMARK    5  A    between atoms: C13_14  and  C14_15 
REMARK    6  A    between atoms: C14_15  and  C15_16 
ROOT
HETATM    1  C4  UNL     1      22.045   3.445  47.920  1.00  0.00    -0.056 A 
HETATM    2  C5  UNL     1      21.709   4.434  46.991  1.00  0.00     0.009 A 
HETATM    3  C6  UNL     1      22.456   5.595  47.004  1.00  0.00     0.031 A 
HETATM    4  C7  UNL     1      23.495   5.840  47.857  1.00  0.00     0.042 A 
HETATM    5  C8  UNL     1      23.824   4.844  48.783  1.00  0.00    -0.009 A 
HETATM    6  C9  UNL     1      23.078   3.682  48.771  1.00  0.00     0.018 A 
HETATM    7  C10 UNL     1      24.916   4.988  49.749  1.00  0.00     0.096 C 
HETATM    8  C11 UNL     1      25.626   3.714  50.059  1.00  0.00     0.002 C 
HETATM    9  C12 UNL     1      25.443   2.913  51.115  1.00  0.00    -0.064 C 
HETATM   10  C22 UNL     1      24.430   3.303  52.102  1.00  0.00     0.156 C 
HETATM   11  N2  UNL     1      24.084   4.695  52.047  1.00  0.00    -0.356 N 
HETATM   12  C23 UNL     1      24.463   5.606  51.030  1.00  0.00     0.235 C 
HETATM   13  O1  UNL     1      24.418   6.855  51.201  1.00  0.00    -0.272 OA
HETATM   14  C24 UNL     1      25.972   5.935  49.165  1.00  0.00     0.131 C 
HETATM   15  C25 UNL     1      25.313   7.208  48.774  1.00  0.00     0.224 C 
HETATM   16  O2  UNL     1      25.572   8.396  49.168  1.00  0.00    -0.273 OA
HETATM   17  N3  UNL     1      24.242   7.071  47.824  1.00  0.00    -0.327 N 
HETATM   18  H26 UNL     1      23.502   5.026  52.847  1.00  0.00     0.162 HD
HETATM   19  H29 UNL     1      23.995   7.815  47.131  1.00  0.00     0.169 HD
ENDROOT
BRANCH   9  20
HETATM   20  C13 UNL     1      26.266   1.678  51.232  1.00  0.00     0.040 C 
BRANCH  20  21
HETATM   21  C14 UNL     1      26.337   1.235  52.654  1.00  0.00     0.043 C 
BRANCH  21  22
HETATM   22  C15 UNL     1      27.524   0.410  52.985  1.00  0.00    -0.052 A 
HETATM   23  C16 UNL     1      27.557  -0.962  52.835  1.00  0.00     0.007 A 
HETATM   24  C17 UNL     1      28.621  -1.789  53.122  1.00  0.00     0.001 A 
HETATM   25  C18 UNL     1      29.781  -1.179  53.616  1.00  0.00     0.001 A 
HETATM   26  C19 UNL     1      29.771   0.208  53.777  1.00  0.00     0.007 A 
HETATM   27  C20 UNL     1      28.676   0.989  53.472  1.00  0.00    -0.056 A 
HETATM   28  C21 UNL     1      28.796   2.454  53.688  1.00  0.00     0.049 C 
ENDBRANCH  21  22
ENDBRANCH  20  21
ENDBRANCH   9  20
BRANCH   1  29
HETATM   29  C3  UNL     1      21.257   2.162  47.944  1.00  0.00     0.068 C 
BRANCH  29  30
HETATM   30  C2  UNL     1      19.850   2.442  48.446  1.00  0.00     0.273 C 
BRANCH  30  31
HETATM   31  N1  UNL     1      19.408   1.351  49.302  1.00  0.00     0.079 N 
HETATM   32  C1  UNL     1      20.339   1.012  50.335  1.00  0.00     0.306 C 
HETATM   33  H4  UNL     1      18.509   1.646  49.735  1.00  0.00     0.315 HD
ENDBRANCH  30  31
ENDBRANCH  29  30
ENDBRANCH   1  29
TORSDOF 6
ENDMDL
MODEL 4
REMARK VINA RESULT:      -8.5      2.058      5.787
REMARK  6 active torsions:
REMARK  status: ('A' for Active; 'I' for Inactive)
REMARK    1  A    between atoms: N1_2  and  C2_3 
REMARK    2  A    between atoms: C2_3  and  C3_4 
REMARK    3  A    between atoms: C3_4  and  C4_5 
REMARK    4  A    between atoms: C12_13  and  C13_14 
REMARK    5  A    between atoms: C13_14  and  C14_15 
REMARK    6  A    between atoms: C14_15  and  C15_16 
ROOT
HETATM    1  C4  UNL     1      25.495   1.092  52.000  1.00  0.00    -0.056 A 
HETATM    2  C5  UNL     1      26.788   1.584  51.798  1.00  0.00     0.009 A 
HETATM    3  C6  UNL     1      26.909   2.811  51.180  1.00  0.00     0.031 A 
HETATM    4  C7  UNL     1      25.857   3.574  50.755  1.00  0.00     0.042 A 
HETATM    5  C8  UNL     1      24.568   3.073  50.962  1.00  0.00    -0.009 A 
HETATM    6  C9  UNL     1      24.444   1.845  51.581  1.00  0.00     0.018 A 
HETATM    7  C10 UNL     1      23.360   3.796  50.552  1.00  0.00     0.096 C 
HETATM    8  C11 UNL     1      22.195   3.600  51.461  1.00  0.00     0.002 C 
HETATM    9  C12 UNL     1      21.165   2.762  51.300  1.00  0.00    -0.064 C 
HETATM   10  C22 UNL     1      21.149   1.921  50.098  1.00  0.00     0.156 C 
HETATM   11  N2  UNL     1      21.991   2.412  49.045  1.00  0.00    -0.356 N 
HETATM   12  C23 UNL     1      22.941   3.458  49.160  1.00  0.00     0.235 C 
HETATM   13  O1  UNL     1      23.399   4.059  48.149  1.00  0.00    -0.272 OA
HETATM   14  C24 UNL     1      23.659   5.301  50.557  1.00  0.00     0.131 C 
HETATM   15  C25 UNL     1      24.856   5.557  49.714  1.00  0.00     0.224 C 
HETATM   16  O2  UNL     1      24.965   6.315  48.692  1.00  0.00    -0.273 OA
HETATM   17  N3  UNL     1      26.043   4.851  50.115  1.00  0.00    -0.327 N 
HETATM   18  H26 UNL     1      21.861   1.930  48.129  1.00  0.00     0.162 HD
HETATM   19  H29 UNL     1      27.008   5.224  49.961  1.00  0.00     0.169 HD
ENDROOT
BRANCH   9  20
HETATM   20  C13 UNL     1      20.098   2.725  52.338  1.00  0.00     0.040 C 
BRANCH  20  21
HETATM   21  C14 UNL     1      19.426   1.394  52.344  1.00  0.00     0.043 C 
BRANCH  21  22
HETATM   22  C15 UNL     1      20.126   0.353  53.136  1.00  0.00    -0.052 A 
HETATM   23  C16 UNL     1      21.412   0.506  53.617  1.00  0.00     0.007 A 
HETATM   24  C17 UNL     1      22.121  -0.417  54.355  1.00  0.00     0.001 A 
HETATM   25  C18 UNL     1      21.477  -1.625  54.645  1.00  0.00     0.001 A 
HETATM   26  C19 UNL     1      20.176  -1.802  54.168  1.00  0.00     0.007 A 
HETATM   27  C20 UNL     1      19.511  -0.844  53.433  1.00  0.00    -0.056 A 
HETATM   28  C21 UNL     1      18.129  -1.157  52.986  1.00  0.00     0.049 C 
ENDBRANCH  21  22
ENDBRANCH  20  21
ENDBRANCH   9  20
BRANCH   1  29
HETATM   29  C3  UNL     1      25.314  -0.244  52.671  1.00  0.00     0.068 C 
BRANCH  29  30
HETATM   30  C2  UNL     1      25.739  -0.140  54.127  1.00  0.00     0.273 C 
BRANCH  30  31
HETATM   31  N1  UNL     1      27.034  -0.778  54.308  1.00  0.00     0.079 N 
HETATM   32  C1  UNL     1      28.047   0.100  54.810  1.00  0.00     0.306 C 
HETATM   33  H4  UNL     1      26.899  -1.562  54.977  1.00  0.00     0.315 HD
ENDBRANCH  30  31
ENDBRANCH  29  30
ENDBRANCH   1  29
TORSDOF 6
ENDMDL
MODEL 5
REMARK VINA RESULT:      -8.5      2.037      6.457
REMARK  6 active torsions:
REMARK  status: ('A' for Active; 'I' for Inactive)
REMARK    1  A    between atoms: N1_2  and  C2_3 
REMARK    2  A    between atoms: C2_3  and  C3_4 
REMARK    3  A    between atoms: C3_4  and  C4_5 
REMARK    4  A    between atoms: C12_13  and  C13_14 
REMARK    5  A    between atoms: C13_14  and  C14_15 
REMARK    6  A    between atoms: C14_15  and  C15_16 
ROOT
HETATM    1  C4  UNL     1      24.142   1.016  52.926  1.00  0.00    -0.056 A 
HETATM    2  C5  UNL     1      24.960   1.899  53.637  1.00  0.00     0.009 A 
HETATM    3  C6  UNL     1      24.753   3.250  53.442  1.00  0.00     0.031 A 
HETATM    4  C7  UNL     1      23.810   3.779  52.607  1.00  0.00     0.042 A 
HETATM    5  C8  UNL     1      22.997   2.887  51.899  1.00  0.00    -0.009 A 
HETATM    6  C9  UNL     1      23.202   1.535  52.093  1.00  0.00     0.018 A 
HETATM    7  C10 UNL     1      21.950   3.330  50.974  1.00  0.00     0.096 C 
HETATM    8  C11 UNL     1      20.752   2.443  50.940  1.00  0.00     0.002 C 
HETATM    9  C12 UNL     1      20.466   1.491  50.046  1.00  0.00    -0.064 C 
HETATM   10  C22 UNL     1      21.423   1.264  48.958  1.00  0.00     0.156 C 
HETATM   11  N2  UNL     1      22.309   2.371  48.736  1.00  0.00    -0.356 N 
HETATM   12  C23 UNL     1      22.458   3.499  49.581  1.00  0.00     0.235 C 
HETATM   13  O1  UNL     1      22.986   4.572  49.178  1.00  0.00    -0.272 OA
HETATM   14  C24 UNL     1      21.449   4.710  51.418  1.00  0.00     0.131 C 
HETATM   15  C25 UNL     1      22.610   5.630  51.534  1.00  0.00     0.224 C 
HETATM   16  O2  UNL     1      22.811   6.741  50.937  1.00  0.00    -0.273 OA
HETATM   17  N3  UNL     1      23.638   5.199  52.443  1.00  0.00    -0.327 N 
HETATM   18  H26 UNL     1      22.875   2.301  47.863  1.00  0.00     0.162 HD
HETATM   19  H29 UNL     1      24.247   5.865  52.972  1.00  0.00     0.169 HD
ENDROOT
BRANCH   9  20
HETATM   20  C13 UNL     1      19.204   0.715  50.200  1.00  0.00     0.040 C 
BRANCH  20  21
HETATM   21  C14 UNL     1      18.633   0.920  51.562  1.00  0.00     0.043 C 
BRANCH  21  22
HETATM   22  C15 UNL     1      18.216  -0.327  52.250  1.00  0.00    -0.052 A 
HETATM   23  C16 UNL     1      17.011  -0.957  52.008  1.00  0.00     0.007 A 
HETATM   24  C17 UNL     1      16.561  -2.112  52.609  1.00  0.00     0.001 A 
HETATM   25  C18 UNL     1      17.404  -2.703  53.557  1.00  0.00     0.001 A 
HETATM   26  C19 UNL     1      18.628  -2.083  53.818  1.00  0.00     0.007 A 
HETATM   27  C20 UNL     1      19.031  -0.925  53.186  1.00  0.00    -0.056 A 
HETATM   28  C21 UNL     1      20.358  -0.367  53.554  1.00  0.00     0.049 C 
ENDBRANCH  21  22
ENDBRANCH  20  21
ENDBRANCH   9  20
BRANCH   1  29
HETATM   29  C3  UNL     1      24.331  -0.467  53.107  1.00  0.00     0.068 C 
BRANCH  29  30
HETATM   30  C2  UNL     1      25.696  -0.731  53.723  1.00  0.00     0.273 C 
BRANCH  30  31
HETATM   31  N1  UNL     1      26.650  -1.069  52.677  1.00  0.00     0.079 N 
HETATM   32  C1  UNL     1      27.998  -1.190  53.142  1.00  0.00     0.306 C 
HETATM   33  H4  UNL     1      26.347  -1.975  52.267  1.00  0.00     0.315 HD
ENDBRANCH  30  31
ENDBRANCH  29  30
ENDBRANCH   1  29
TORSDOF 6
ENDMDL
MODEL 6
REMARK VINA RESULT:      -8.4      3.878      6.381
REMARK  6 active torsions:
REMARK  status: ('A' for Active; 'I' for Inactive)
REMARK    1  A    between atoms: N1_2  and  C2_3 
REMARK    2  A    between atoms: C2_3  and  C3_4 
REMARK    3  A    between atoms: C3_4  and  C4_5 
REMARK    4  A    between atoms: C12_13  and  C13_14 
REMARK    5  A    between atoms: C13_14  and  C14_15 
REMARK    6  A    between atoms: C14_15  and  C15_16 
ROOT
HETATM    1  C4  UNL     1      22.255  -0.160  52.803  1.00  0.00    -0.056 A 
HETATM    2  C5  UNL     1      22.221  -1.077  53.857  1.00  0.00     0.009 A 
HETATM    3  C6  UNL     1      23.357  -1.192  54.632  1.00  0.00     0.031 A 
HETATM    4  C7  UNL     1      24.505  -0.475  54.440  1.00  0.00     0.042 A 
HETATM    5  C8  UNL     1      24.528   0.440  53.382  1.00  0.00    -0.009 A 
HETATM    6  C9  UNL     1      23.393   0.557  52.605  1.00  0.00     0.018 A 
HETATM    7  C10 UNL     1      25.698   1.267  53.074  1.00  0.00     0.096 C 
HETATM    8  C11 UNL     1      25.365   2.621  52.546  1.00  0.00     0.002 C 
HETATM    9  C12 UNL     1      25.349   3.019  51.269  1.00  0.00    -0.064 C 
HETATM   10  C22 UNL     1      25.694   2.032  50.241  1.00  0.00     0.156 C 
HETATM   11  N2  UNL     1      26.427   0.907  50.750  1.00  0.00    -0.356 N 
HETATM   12  C23 UNL     1      26.630   0.599  52.119  1.00  0.00     0.235 C 
HETATM   13  O1  UNL     1      27.540  -0.189  52.498  1.00  0.00    -0.272 OA
HETATM   14  C24 UNL     1      26.497   1.495  54.364  1.00  0.00     0.131 C 
HETATM   15  C25 UNL     1      26.807   0.177  54.977  1.00  0.00     0.224 C 
HETATM   16  O2  UNL     1      27.949  -0.320  55.264  1.00  0.00    -0.273 OA
HETATM   17  N3  UNL     1      25.662  -0.636  55.282  1.00  0.00    -0.327 N 
HETATM   18  H26 UNL     1      26.829   0.287  50.015  1.00  0.00     0.162 HD
HETATM   19  H29 UNL     1      25.643  -1.320  56.073  1.00  0.00     0.169 HD
ENDROOT
BRANCH   9  20
HETATM   20  C13 UNL     1      24.984   4.429  50.960  1.00  0.00     0.040 C 
BRANCH  20  21
HETATM   21  C14 UNL     1      24.939   4.641  49.484  1.00  0.00     0.043 C 
BRANCH  21  22
HETATM   22  C15 UNL     1      26.117   5.350  48.926  1.00  0.00    -0.052 A 
HETATM   23  C16 UNL     1      27.375   4.785  48.854  1.00  0.00     0.007 A 
HETATM   24  C17 UNL     1      28.510   5.383  48.351  1.00  0.00     0.001 A 
HETATM   25  C18 UNL     1      28.375   6.690  47.868  1.00  0.00     0.001 A 
HETATM   26  C19 UNL     1      27.112   7.282  47.931  1.00  0.00     0.007 A 
HETATM   27  C20 UNL     1      26.007   6.636  48.444  1.00  0.00    -0.056 A 
HETATM   28  C21 UNL     1      24.719   7.378  48.453  1.00  0.00     0.049 C 
ENDBRANCH  21  22
ENDBRANCH  20  21
ENDBRANCH   9  20
BRANCH   1  29
HETATM   29  C3  UNL     1      21.038  -0.000  51.929  1.00  0.00     0.068 C 
BRANCH  29  30
HETATM   30  C2  UNL     1      19.969   0.768  52.689  1.00  0.00     0.273 C 
BRANCH  30  31
HETATM   31  N1  UNL     1      19.642   1.993  51.974  1.00  0.00     0.079 N 
HETATM   32  C1  UNL     1      20.470   3.106  52.326  1.00  0.00     0.306 C 
HETATM   33  H4  UNL     1      19.750   1.793  50.960  1.00  0.00     0.315 HD
ENDBRANCH  30  31
ENDBRANCH  29  30
ENDBRANCH   1  29
TORSDOF 6
ENDMDL
MODEL 7
REMARK VINA RESULT:      -8.4      3.756      7.053
REMARK  6 active torsions:
REMARK  status: ('A' for Active; 'I' for Inactive)
REMARK    1  A    between atoms: N1_2  and  C2_3 
REMARK    2  A    between atoms: C2_3  and  C3_4 
REMARK    3  A    between atoms: C3_4  and  C4_5 
REMARK    4  A    between atoms: C12_13  and  C13_14 
REMARK    5  A    between atoms: C13_14  and  C14_15 
REMARK    6  A    between atoms: C14_15  and  C15_16 
ROOT
HETATM    1  C4  UNL     1      26.555   5.855  48.678  1.00  0.00    -0.056 A 
HETATM    2  C5  UNL     1      26.497   7.131  48.109  1.00  0.00     0.009 A 
HETATM    3  C6  UNL     1      25.325   7.843  48.270  1.00  0.00     0.031 A 
HETATM    4  C7  UNL     1      24.226   7.389  48.944  1.00  0.00     0.042 A 
HETATM    5  C8  UNL     1      24.295   6.111  49.510  1.00  0.00    -0.009 A 
HETATM    6  C9  UNL     1      25.466   5.397  49.351  1.00  0.00     0.018 A 
HETATM    7  C10 UNL     1      23.185   5.513  50.257  1.00  0.00     0.096 C 
HETATM    8  C11 UNL     1      23.612   4.635  51.383  1.00  0.00     0.002 C 
HETATM    9  C12 UNL     1      23.700   3.300  51.390  1.00  0.00    -0.064 C 
HETATM   10  C22 UNL     1      23.345   2.585  50.160  1.00  0.00     0.156 C 
HETATM   11  N2  UNL     1      22.533   3.357  49.263  1.00  0.00    -0.356 N 
HETATM   12  C23 UNL     1      22.258   4.743  49.376  1.00  0.00     0.235 C 
HETATM   13  O1  UNL     1      21.293   5.284  48.770  1.00  0.00    -0.272 OA
HETATM   14  C24 UNL     1      22.348   6.636  50.883  1.00  0.00     0.131 C 
HETATM   15  C25 UNL     1      21.942   7.587  49.815  1.00  0.00     0.224 C 
HETATM   16  O2  UNL     1      20.765   7.943  49.468  1.00  0.00    -0.273 OA
HETATM   17  N3  UNL     1      23.029   8.177  49.082  1.00  0.00    -0.327 N 
HETATM   18  H26 UNL     1      22.129   2.813  48.471  1.00  0.00     0.162 HD
HETATM   19  H29 UNL     1      22.979   9.132  48.658  1.00  0.00     0.169 HD
ENDROOT
BRANCH   9  20
HETATM   20  C13 UNL     1      24.152   2.616  52.633  1.00  0.00     0.040 C 
BRANCH  20  21
HETATM   21  C14 UNL     1      24.223   1.142  52.417  1.00  0.00     0.043 C 
BRANCH  21  22
HETATM   22  C15 UNL     1      23.250   0.354  53.212  1.00  0.00    -0.052 A 
HETATM   23  C16 UNL     1      21.883   0.446  53.041  1.00  0.00     0.007 A 
HETATM   24  C17 UNL     1      20.925  -0.252  53.743  1.00  0.00     0.001 A 
HETATM   25  C18 UNL     1      21.380  -1.140  54.725  1.00  0.00     0.001 A 
HETATM   26  C19 UNL     1      22.759  -1.249  54.916  1.00  0.00     0.007 A 
HETATM   27  C20 UNL     1      23.677  -0.526  54.184  1.00  0.00    -0.056 A 
HETATM   28  C21 UNL     1      25.116  -0.735  54.486  1.00  0.00     0.049 C 
ENDBRANCH  21  22
ENDBRANCH  20  21
ENDBRANCH   9  20
BRANCH   1  29
HETATM   29  C3  UNL     1      27.813   5.041  48.528  1.00  0.00     0.068 C 
BRANCH  29  30
HETATM   30  C2  UNL     1      28.962   5.955  48.131  1.00  0.00     0.273 C 
BRANCH  30  31
HETATM   31  N1  UNL     1      29.991   5.925  49.160  1.00  0.00     0.079 N 
HETATM   32  C1  UNL     1      31.232   6.511  48.753  1.00  0.00     0.306 C 
HETATM   33  H4  UNL     1      29.620   6.447  49.980  1.00  0.00     0.315 HD
ENDBRANCH  30  31
ENDBRANCH  29  30
ENDBRANCH   1  29
TORSDOF 6
ENDMDL
MODEL 8
REMARK VINA RESULT:      -8.4      4.122      5.451
REMARK  6 active torsions:
REMARK  status: ('A' for Active; 'I' for Inactive)
REMARK    1  A    between atoms: N1_2  and  C2_3 
REMARK    2  A    between atoms: C2_3  and  C3_4 
REMARK    3  A    between atoms: C3_4  and  C4_5 
REMARK    4  A    between atoms: C12_13  and  C13_14 
REMARK    5  A    between atoms: C13_14  and  C14_15 
REMARK    6  A    between atoms: C14_15  and  C15_16 
ROOT
HETATM    1  C4  UNL     1      24.769   1.530  53.002  1.00  0.00    -0.056 A 
HETATM    2  C5  UNL     1      23.772   0.578  53.234  1.00  0.00     0.009 A 
HETATM    3  C6  UNL     1      22.755   0.487  52.306  1.00  0.00     0.031 A 
HETATM    4  C7  UNL     1      22.657   1.258  51.182  1.00  0.00     0.042 A 
HETATM    5  C8  UNL     1      23.660   2.208  50.958  1.00  0.00    -0.009 A 
HETATM    6  C9  UNL     1      24.679   2.301  51.886  1.00  0.00     0.018 A 
HETATM    7  C10 UNL     1      23.668   3.094  49.791  1.00  0.00     0.096 C 
HETATM    8  C11 UNL     1      25.031   3.419  49.283  1.00  0.00     0.002 C 
HETATM    9  C12 UNL     1      25.751   4.522  49.520  1.00  0.00    -0.064 C 
HETATM   10  C22 UNL     1      25.160   5.552  50.381  1.00  0.00     0.156 C 
HETATM   11  N2  UNL     1      23.732   5.453  50.493  1.00  0.00    -0.356 N 
HETATM   12  C23 UNL     1      22.936   4.370  50.042  1.00  0.00     0.235 C 
HETATM   13  O1  UNL     1      21.691   4.483  49.866  1.00  0.00    -0.272 OA
HETATM   14  C24 UNL     1      22.935   2.399  48.637  1.00  0.00     0.131 C 
HETATM   15  C25 UNL     1      21.584   1.990  49.101  1.00  0.00     0.224 C 
HETATM   16  O2  UNL     1      20.444   2.309  48.621  1.00  0.00    -0.273 OA
HETATM   17  N3  UNL     1      21.573   1.119  50.245  1.00  0.00    -0.327 N 
HETATM   18  H26 UNL     1      23.278   6.271  50.954  1.00  0.00     0.162 HD
HETATM   19  H29 UNL     1      20.824   0.408  50.414  1.00  0.00     0.169 HD
ENDROOT
BRANCH   9  20
HETATM   20  C13 UNL     1      27.102   4.645  48.908  1.00  0.00     0.040 C 
BRANCH  20  21
HETATM   21  C14 UNL     1      27.303   6.020  48.366  1.00  0.00     0.043 C 
BRANCH  21  22
HETATM   22  C15 UNL     1      28.720   6.452  48.290  1.00  0.00    -0.052 A 
HETATM   23  C16 UNL     1      29.751   5.604  47.939  1.00  0.00     0.007 A 
HETATM   24  C17 UNL     1      31.085   5.937  47.849  1.00  0.00     0.001 A 
HETATM   25  C18 UNL     1      31.429   7.262  48.143  1.00  0.00     0.001 A 
HETATM   26  C19 UNL     1      30.402   8.137  48.501  1.00  0.00     0.007 A 
HETATM   27  C20 UNL     1      29.080   7.752  48.575  1.00  0.00    -0.056 A 
HETATM   28  C21 UNL     1      28.084   8.782  48.967  1.00  0.00     0.049 C 
ENDBRANCH  21  22
ENDBRANCH  20  21
ENDBRANCH   9  20
BRANCH   1  29
HETATM   29  C3  UNL     1      25.899   1.666  53.988  1.00  0.00     0.068 C 
BRANCH  29  30
HETATM   30  C2  UNL     1      26.456   0.289  54.310  1.00  0.00     0.273 C 
BRANCH  30  31
HETATM   31  N1  UNL     1      27.559  -0.018  53.411  1.00  0.00     0.079 N 
HETATM   32  C1  UNL     1      28.814   0.530  53.827  1.00  0.00     0.306 C 
HETATM   33  H4  UNL     1      27.637  -1.054  53.364  1.00  0.00     0.315 HD
ENDBRANCH  30  31
ENDBRANCH  29  30
ENDBRANCH   1  29
TORSDOF 6
ENDMDL
MODEL 9
REMARK VINA RESULT:      -8.3      2.926      6.479
REMARK  6 active torsions:
REMARK  status: ('A' for Active; 'I' for Inactive)
REMARK    1  A    between atoms: N1_2  and  C2_3 
REMARK    2  A    between atoms: C2_3  and  C3_4 
REMARK    3  A    between atoms: C3_4  and  C4_5 
REMARK    4  A    between atoms: C12_13  and  C13_14 
REMARK    5  A    between atoms: C13_14  and  C14_15 
REMARK    6  A    between atoms: C14_15  and  C15_16 
ROOT
HETATM    1  C4  UNL     1      21.836  -0.050  52.396  1.00  0.00    -0.056 A 
HETATM    2  C5  UNL     1      21.913  -1.180  53.216  1.00  0.00     0.009 A 
HETATM    3  C6  UNL     1      23.063  -1.345  53.961  1.00  0.00     0.031 A 
HETATM    4  C7  UNL     1      24.125  -0.484  53.952  1.00  0.00     0.042 A 
HETATM    5  C8  UNL     1      24.038   0.643  53.127  1.00  0.00    -0.009 A 
HETATM    6  C9  UNL     1      22.888   0.810  52.382  1.00  0.00     0.018 A 
HETATM    7  C10 UNL     1      25.109   1.639  53.030  1.00  0.00     0.096 C 
HETATM    8  C11 UNL     1      24.627   3.033  52.817  1.00  0.00     0.002 C 
HETATM    9  C12 UNL     1      24.555   3.706  51.663  1.00  0.00    -0.064 C 
HETATM   10  C22 UNL     1      24.993   3.019  50.443  1.00  0.00     0.156 C 
HETATM   11  N2  UNL     1      25.847   1.893  50.696  1.00  0.00    -0.356 N 
HETATM   12  C23 UNL     1      26.097   1.307  51.962  1.00  0.00     0.235 C 
HETATM   13  O1  UNL     1      27.090   0.556  52.166  1.00  0.00    -0.272 OA
HETATM   14  C24 UNL     1      25.893   1.654  54.349  1.00  0.00     0.131 C 
HETATM   15  C25 UNL     1      26.349   0.273  54.653  1.00  0.00     0.224 C 
HETATM   16  O2  UNL     1      27.540  -0.152  54.837  1.00  0.00    -0.273 OA
HETATM   17  N3  UNL     1      25.301  -0.706  54.752  1.00  0.00    -0.327 N 
HETATM   18  H26 UNL     1      26.306   1.501  49.845  1.00  0.00     0.162 HD
HETATM   19  H29 UNL     1      25.364  -1.550  55.367  1.00  0.00     0.169 HD
ENDROOT
BRANCH   9  20
HETATM   20  C13 UNL     1      24.038   5.102  51.674  1.00  0.00     0.040 C 
BRANCH  20  21
HETATM   21  C14 UNL     1      23.237   5.368  50.445  1.00  0.00     0.043 C 
BRANCH  21  22
HETATM   22  C15 UNL     1      21.937   4.656  50.388  1.00  0.00    -0.052 A 
HETATM   23  C16 UNL     1      21.073   4.573  51.462  1.00  0.00     0.007 A 
HETATM   24  C17 UNL     1      19.855   3.930  51.480  1.00  0.00     0.001 A 
HETATM   25  C18 UNL     1      19.455   3.298  50.296  1.00  0.00     0.001 A 
HETATM   26  C19 UNL     1      20.313   3.368  49.197  1.00  0.00     0.007 A 
HETATM   27  C20 UNL     1      21.524   4.027  49.233  1.00  0.00    -0.056 A 
HETATM   28  C21 UNL     1      22.343   4.029  47.994  1.00  0.00     0.049 C 
ENDBRANCH  21  22
ENDBRANCH  20  21
ENDBRANCH   9  20
BRANCH   1  29
HETATM   29  C3  UNL     1      20.600   0.172  51.565  1.00  0.00     0.068 C 
BRANCH  29  30
HETATM   30  C2  UNL     1      19.395   0.315  52.480  1.00  0.00     0.273 C 
BRANCH  30  31
HETATM   31  N1  UNL     1      18.343  -0.595  52.054  1.00  0.00     0.079 N 
HETATM   32  C1  UNL     1      17.788  -1.377  53.117  1.00  0.00     0.306 C 
HETATM   33  H4  UNL     1      17.591  -0.016  51.627  1.00  0.00     0.315 HD
ENDBRANCH  30  31
ENDBRANCH  29  30
ENDBRANCH   1  29
TORSDOF 6
ENDMDL
