MODEL 1
REMARK VINA RESULT:      -8.4      0.000      0.000
REMARK  5 active torsions:
REMARK  status: ('A' for Active; 'I' for Inactive)
REMARK    1  A    between atoms: C2_2  and  C3_3 
REMARK    2  A    between atoms: C17_19  and  O1_20 
REMARK    3  A    between atoms: O1_20  and  O2_21 
REMARK    4  A    between atoms: C19_23  and  O3_24 
REMARK    5  A    between atoms: C21_26  and  O4_27 
ROOT
HETATM    1  C1  UNL     1      23.039   2.369  48.085  1.00  0.00     0.052 C 
HETATM    2  C2  UNL     1      22.989   2.591  49.564  1.00  0.00     0.096 C 
HETATM    3  C9  UNL     1      22.601   1.365  50.354  1.00  0.00     0.087 C 
HETATM    4  C10 UNL     1      23.376   1.599  51.657  1.00  0.00     0.008 C 
HETATM    5  C11 UNL     1      24.404   2.430  51.361  1.00  0.00     0.057 C 
HETATM    6  C12 UNL     1      25.516   3.015  52.233  1.00  0.00     0.072 C 
HETATM    7  C13 UNL     1      26.250   1.796  52.634  1.00  0.00     0.024 C 
HETATM    8  C14 UNL     1      26.327   0.796  51.494  1.00  0.00     0.027 C 
HETATM    9  C15 UNL     1      26.442  -0.564  52.168  1.00  0.00     0.123 C 
HETATM   10  N1  UNL     1      26.545  -0.320  53.619  1.00  0.00    -0.385 N 
HETATM   11  C16 UNL     1      25.518  -0.785  54.480  1.00  0.00     0.125 C 
HETATM   12  C17 UNL     1      24.234  -0.643  54.592  1.00  0.00     0.124 C 
HETATM   13  C18 UNL     1      23.249   0.095  53.821  1.00  0.00     0.078 C 
HETATM   14  C19 UNL     1      22.817   0.875  52.841  1.00  0.00     0.077 C 
HETATM   15  C20 UNL     1      27.796   0.449  53.830  1.00  0.00     0.154 C 
HETATM   16  C21 UNL     1      27.639   1.862  53.184  1.00  0.00     0.140 C 
HETATM   17  O5  UNL     1      24.345   2.739  50.015  1.00  0.00    -0.339 OA
ENDROOT
BRANCH   2  18
HETATM   18  C3  UNL     1      22.173   3.772  49.932  1.00  0.00    -0.002 A 
HETATM   19  C4  UNL     1      20.914   3.678  50.489  1.00  0.00     0.012 A 
HETATM   20  C5  UNL     1      20.118   4.743  50.847  1.00  0.00     0.001 A 
HETATM   21  C6  UNL     1      20.605   6.016  50.639  1.00  0.00     0.002 A 
HETATM   22  C7  UNL     1      21.858   6.180  50.086  1.00  0.00     0.024 A 
HETATM   23  C8  UNL     1      22.621   5.083  49.742  1.00  0.00     0.043 A 
HETATM   24 CL1  UNL     1      24.207   5.335  49.043  1.00  0.00    -0.084 Cl
ENDBRANCH   2  18
BRANCH  14  25
HETATM   25  O3  UNL     1      21.406   1.123  52.907  1.00  0.00    -0.360 OA
HETATM   26  H20 UNL     1      21.055   1.071  53.867  1.00  0.00     0.217 HD
ENDBRANCH  14  25
BRANCH  12  27
HETATM   27  O1  UNL     1      23.940  -1.417  55.703  1.00  0.00    -0.199 OA
BRANCH  27  28
HETATM   28  O2  UNL     1      22.730  -1.986  55.718  1.00  0.00    -0.245 OA
HETATM   29  H18 UNL     1      22.240  -1.860  54.873  1.00  0.00     0.254 HD
ENDBRANCH  27  28
ENDBRANCH  12  27
BRANCH  16  30
HETATM   30  O4  UNL     1      27.826   2.852  54.140  1.00  0.00    -0.394 OA
HETATM   31  H24 UNL     1      27.662   3.746  53.786  1.00  0.00     0.210 HD
ENDBRANCH  16  30
TORSDOF 5
ENDMDL
MODEL 2
REMARK VINA RESULT:      -7.9      4.720      7.058
REMARK  5 active torsions:
REMARK  status: ('A' for Active; 'I' for Inactive)
REMARK    1  A    between atoms: C2_2  and  C3_3 
REMARK    2  A    between atoms: C17_19  and  O1_20 
REMARK    3  A    between atoms: O1_20  and  O2_21 
REMARK    4  A    between atoms: C19_23  and  O3_24 
REMARK    5  A    between atoms: C21_26  and  O4_27 
ROOT
HETATM    1  C1  UNL     1      21.838   5.517  48.084  1.00  0.00     0.052 C 
HETATM    2  C2  UNL     1      23.028   5.292  48.962  1.00  0.00     0.096 C 
HETATM    3  C9  UNL     1      24.221   4.714  48.240  1.00  0.00     0.087 C 
HETATM    4  C10 UNL     1      25.375   5.329  49.042  1.00  0.00     0.008 C 
HETATM    5  C11 UNL     1      24.891   6.447  49.636  1.00  0.00     0.057 C 
HETATM    6  C12 UNL     1      25.557   7.477  50.549  1.00  0.00     0.072 C 
HETATM    7  C13 UNL     1      26.573   8.059  49.647  1.00  0.00     0.024 C 
HETATM    8  C14 UNL     1      26.038   8.207  48.233  1.00  0.00     0.027 C 
HETATM    9  C15 UNL     1      27.265   8.131  47.335  1.00  0.00     0.123 C 
HETATM   10  N1  UNL     1      28.444   8.064  48.220  1.00  0.00    -0.385 N 
HETATM   11  C16 UNL     1      29.258   6.902  48.210  1.00  0.00     0.125 C 
HETATM   12  C17 UNL     1      29.100   5.629  48.398  1.00  0.00     0.124 C 
HETATM   13  C18 UNL     1      27.939   4.810  48.705  1.00  0.00     0.078 C 
HETATM   14  C19 UNL     1      26.660   4.569  48.949  1.00  0.00     0.077 C 
HETATM   15  C20 UNL     1      28.467   9.332  48.991  1.00  0.00     0.154 C 
HETATM   16  C21 UNL     1      27.234   9.366  49.948  1.00  0.00     0.140 C 
HETATM   17  O5  UNL     1      23.560   6.586  49.291  1.00  0.00    -0.339 OA
ENDROOT
BRANCH   2  18
HETATM   18  C3  UNL     1      22.693   4.526  50.185  1.00  0.00    -0.002 A 
HETATM   19  C4  UNL     1      23.031   3.200  50.365  1.00  0.00     0.012 A 
HETATM   20  C5  UNL     1      22.741   2.447  51.481  1.00  0.00     0.001 A 
HETATM   21  C6  UNL     1      22.059   3.053  52.514  1.00  0.00     0.002 A 
HETATM   22  C7  UNL     1      21.692   4.378  52.398  1.00  0.00     0.024 A 
HETATM   23  C8  UNL     1      22.003   5.094  51.261  1.00  0.00     0.043 A 
HETATM   24 CL1  UNL     1      21.519   6.775  51.154  1.00  0.00    -0.084 Cl
ENDBRANCH   2  18
BRANCH  14  25
HETATM   25  O3  UNL     1      26.394   3.183  49.210  1.00  0.00    -0.360 OA
HETATM   26  H20 UNL     1      25.563   3.061  49.795  1.00  0.00     0.217 HD
ENDBRANCH  14  25
BRANCH  12  27
HETATM   27  O1  UNL     1      30.383   5.136  48.224  1.00  0.00    -0.199 OA
BRANCH  27  28
HETATM   28  O2  UNL     1      31.223   5.313  49.250  1.00  0.00    -0.245 OA
HETATM   29  H18 UNL     1      32.163   5.158  49.003  1.00  0.00     0.254 HD
ENDBRANCH  27  28
ENDBRANCH  12  27
BRANCH  16  30
HETATM   30  O4  UNL     1      27.651   9.501  51.266  1.00  0.00    -0.394 OA
HETATM   31  H24 UNL     1      27.807  10.432  51.513  1.00  0.00     0.210 HD
ENDBRANCH  16  30
TORSDOF 5
ENDMDL
MODEL 3
REMARK VINA RESULT:      -7.7      9.841     12.442
REMARK  5 active torsions:
REMARK  status: ('A' for Active; 'I' for Inactive)
REMARK    1  A    between atoms: C2_2  and  C3_3 
REMARK    2  A    between atoms: C17_19  and  O1_20 
REMARK    3  A    between atoms: O1_20  and  O2_21 
REMARK    4  A    between atoms: C19_23  and  O3_24 
REMARK    5  A    between atoms: C21_26  and  O4_27 
ROOT
HETATM    1  C1  UNL     1      35.138   7.438  48.130  1.00  0.00     0.052 C 
HETATM    2  C2  UNL     1      33.697   7.355  47.737  1.00  0.00     0.096 C 
HETATM    3  C9  UNL     1      32.736   7.632  48.868  1.00  0.00     0.087 C 
HETATM    4  C10 UNL     1      31.562   8.260  48.108  1.00  0.00     0.008 C 
HETATM    5  C11 UNL     1      32.061   8.756  46.950  1.00  0.00     0.057 C 
HETATM    6  C12 UNL     1      31.388   9.493  45.792  1.00  0.00     0.072 C 
HETATM    7  C13 UNL     1      30.938  10.736  46.454  1.00  0.00     0.024 C 
HETATM    8  C14 UNL     1      31.961  11.228  47.463  1.00  0.00     0.027 C 
HETATM    9  C15 UNL     1      31.156  12.005  48.495  1.00  0.00     0.123 C 
HETATM   10  N1  UNL     1      29.762  12.045  48.015  1.00  0.00    -0.385 N 
HETATM   11  C16 UNL     1      28.746  11.403  48.769  1.00  0.00     0.125 C 
HETATM   12  C17 UNL     1      28.508  10.212  49.224  1.00  0.00     0.124 C 
HETATM   13  C18 UNL     1      29.244   8.960  49.153  1.00  0.00     0.078 C 
HETATM   14  C19 UNL     1      30.250   8.167  48.821  1.00  0.00     0.077 C 
HETATM   15  C20 UNL     1      29.778  12.789  46.731  1.00  0.00     0.154 C 
HETATM   16  C21 UNL     1      30.555  11.950  45.669  1.00  0.00     0.140 C 
HETATM   17  O5  UNL     1      33.418   8.496  46.911  1.00  0.00    -0.339 OA
ENDROOT
BRANCH   2  18
HETATM   18  C3  UNL     1      33.375   6.093  47.030  1.00  0.00    -0.002 A 
HETATM   19  C4  UNL     1      32.813   4.998  47.655  1.00  0.00     0.012 A 
HETATM   20  C5  UNL     1      32.497   3.806  47.042  1.00  0.00     0.001 A 
HETATM   21  C6  UNL     1      32.755   3.679  45.694  1.00  0.00     0.002 A 
HETATM   22  C7  UNL     1      33.315   4.738  45.010  1.00  0.00     0.024 A 
HETATM   23  C8  UNL     1      33.617   5.915  45.664  1.00  0.00     0.043 A 
HETATM   24 CL1  UNL     1      34.327   7.236  44.759  1.00  0.00    -0.084 Cl
ENDBRANCH   2  18
BRANCH  14  25
HETATM   25  O3  UNL     1      30.056   6.811  49.250  1.00  0.00    -0.360 OA
HETATM   26  H20 UNL     1      29.192   6.414  48.872  1.00  0.00     0.217 HD
ENDBRANCH  14  25
BRANCH  12  27
HETATM   27  O1  UNL     1      27.292  10.371  49.869  1.00  0.00    -0.199 OA
BRANCH  27  28
HETATM   28  O2  UNL     1      27.180   9.781  51.063  1.00  0.00    -0.245 OA
HETATM   29  H18 UNL     1      27.028   8.810  50.995  1.00  0.00     0.254 HD
ENDBRANCH  27  28
ENDBRANCH  12  27
BRANCH  16  30
HETATM   30  O4  UNL     1      29.743  11.686  44.574  1.00  0.00    -0.394 OA
HETATM   31  H24 UNL     1      29.896  12.309  43.839  1.00  0.00     0.210 HD
ENDBRANCH  16  30
TORSDOF 5
ENDMDL
MODEL 4
REMARK VINA RESULT:      -7.7      4.338      7.273
REMARK  5 active torsions:
REMARK  status: ('A' for Active; 'I' for Inactive)
REMARK    1  A    between atoms: C2_2  and  C3_3 
REMARK    2  A    between atoms: C17_19  and  O1_20 
REMARK    3  A    between atoms: O1_20  and  O2_21 
REMARK    4  A    between atoms: C19_23  and  O3_24 
REMARK    5  A    between atoms: C21_26  and  O4_27 
ROOT
HETATM    1  C1  UNL     1      21.936   1.206  48.141  1.00  0.00     0.052 C 
HETATM    2  C2  UNL     1      21.477   1.662  49.490  1.00  0.00     0.096 C 
HETATM    3  C9  UNL     1      20.363   2.679  49.447  1.00  0.00     0.087 C 
HETATM    4  C10 UNL     1      19.611   2.346  50.741  1.00  0.00     0.008 C 
HETATM    5  C11 UNL     1      19.908   1.059  51.050  1.00  0.00     0.057 C 
HETATM    6  C12 UNL     1      19.460   0.168  52.209  1.00  0.00     0.072 C 
HETATM    7  C13 UNL     1      18.007   0.067  51.961  1.00  0.00     0.024 C 
HETATM    8  C14 UNL     1      17.705  -0.037  50.476  1.00  0.00     0.027 C 
HETATM    9  C15 UNL     1      16.307   0.545  50.315  1.00  0.00     0.123 C 
HETATM   10  N1  UNL     1      15.807   0.848  51.670  1.00  0.00    -0.385 N 
HETATM   11  C16 UNL     1      15.542   2.194  52.030  1.00  0.00     0.125 C 
HETATM   12  C17 UNL     1      16.194   3.315  52.068  1.00  0.00     0.124 C 
HETATM   13  C18 UNL     1      17.557   3.679  51.721  1.00  0.00     0.078 C 
HETATM   14  C19 UNL     1      18.788   3.473  51.281  1.00  0.00     0.077 C 
HETATM   15  C20 UNL     1      15.729  -0.446  52.391  1.00  0.00     0.154 C 
HETATM   16  C21 UNL     1      17.174  -0.999  52.599  1.00  0.00     0.140 C 
HETATM   17  O5  UNL     1      20.767   0.565  50.087  1.00  0.00    -0.339 OA
ENDROOT
BRANCH   2  18
HETATM   18  C3  UNL     1      22.600   2.101  50.351  1.00  0.00    -0.002 A 
HETATM   19  C4  UNL     1      23.094   1.345  51.395  1.00  0.00     0.012 A 
HETATM   20  C5  UNL     1      24.133   1.710  52.222  1.00  0.00     0.001 A 
HETATM   21  C6  UNL     1      24.742   2.928  52.003  1.00  0.00     0.002 A 
HETATM   22  C7  UNL     1      24.295   3.732  50.975  1.00  0.00     0.024 A 
HETATM   23  C8  UNL     1      23.250   3.327  50.171  1.00  0.00     0.043 A 
HETATM   24 CL1  UNL     1      22.714   4.378  48.876  1.00  0.00    -0.084 Cl
ENDBRANCH   2  18
BRANCH  14  25
HETATM   25  O3  UNL     1      19.601   4.654  51.324  1.00  0.00    -0.360 OA
HETATM   26  H20 UNL     1      19.200   5.369  51.937  1.00  0.00     0.217 HD
ENDBRANCH  14  25
BRANCH  12  27
HETATM   27  O1  UNL     1      15.243   4.202  52.547  1.00  0.00    -0.199 OA
BRANCH  27  28
HETATM   28  O2  UNL     1      15.318   4.496  53.849  1.00  0.00    -0.245 OA
HETATM   29  H18 UNL     1      16.225   4.754  54.129  1.00  0.00     0.254 HD
ENDBRANCH  27  28
ENDBRANCH  12  27
BRANCH  16  30
HETATM   30  O4  UNL     1      17.428  -1.185  53.952  1.00  0.00    -0.394 OA
HETATM   31  H24 UNL     1      17.349  -0.358  54.463  1.00  0.00     0.210 HD
ENDBRANCH  16  30
TORSDOF 5
ENDMDL
MODEL 5
REMARK VINA RESULT:      -7.3      9.933     12.391
REMARK  5 active torsions:
REMARK  status: ('A' for Active; 'I' for Inactive)
REMARK    1  A    between atoms: C2_2  and  C3_3 
REMARK    2  A    between atoms: C17_19  and  O1_20 
REMARK    3  A    between atoms: O1_20  and  O2_21 
REMARK    4  A    between atoms: C19_23  and  O3_24 
REMARK    5  A    between atoms: C21_26  and  O4_27 
ROOT
HETATM    1  C1  UNL     1      34.857   9.030  46.254  1.00  0.00     0.052 C 
HETATM    2  C2  UNL     1      33.622   8.299  46.677  1.00  0.00     0.096 C 
HETATM    3  C9  UNL     1      32.923   8.913  47.865  1.00  0.00     0.087 C 
HETATM    4  C10 UNL     1      31.463   8.552  47.565  1.00  0.00     0.008 C 
HETATM    5  C11 UNL     1      31.375   8.347  46.228  1.00  0.00     0.057 C 
HETATM    6  C12 UNL     1      30.189   7.970  45.339  1.00  0.00     0.072 C 
HETATM    7  C13 UNL     1      29.313   9.150  45.498  1.00  0.00     0.024 C 
HETATM    8  C14 UNL     1      30.120  10.435  45.557  1.00  0.00     0.027 C 
HETATM    9  C15 UNL     1      29.269  11.400  46.373  1.00  0.00     0.123 C 
HETATM   10  N1  UNL     1      27.991  10.717  46.652  1.00  0.00    -0.385 N 
HETATM   11  C16 UNL     1      27.642  10.412  47.992  1.00  0.00     0.125 C 
HETATM   12  C17 UNL     1      28.159   9.755  48.983  1.00  0.00     0.124 C 
HETATM   13  C18 UNL     1      29.401   9.018  49.142  1.00  0.00     0.078 C 
HETATM   14  C19 UNL     1      30.575   8.534  48.769  1.00  0.00     0.077 C 
HETATM   15  C20 UNL     1      27.347  10.472  45.338  1.00  0.00     0.154 C 
HETATM   16  C21 UNL     1      28.201   9.437  44.540  1.00  0.00     0.140 C 
HETATM   17  O5  UNL     1      32.625   8.538  45.671  1.00  0.00    -0.339 OA
ENDROOT
BRANCH   2  18
HETATM   18  C3  UNL     1      33.859   6.847  46.859  1.00  0.00    -0.002 A 
HETATM   19  C4  UNL     1      34.009   6.254  48.096  1.00  0.00     0.012 A 
HETATM   20  C5  UNL     1      34.230   4.913  48.317  1.00  0.00     0.001 A 
HETATM   21  C6  UNL     1      34.311   4.079  47.221  1.00  0.00     0.002 A 
HETATM   22  C7  UNL     1      34.169   4.609  45.956  1.00  0.00     0.024 A 
HETATM   23  C8  UNL     1      33.948   5.960  45.782  1.00  0.00     0.043 A 
HETATM   24 CL1  UNL     1      33.773   6.592  44.157  1.00  0.00    -0.084 Cl
ENDBRANCH   2  18
BRANCH  14  25
HETATM   25  O3  UNL     1      31.208   7.753  49.793  1.00  0.00    -0.360 OA
HETATM   26  H20 UNL     1      30.796   7.929  50.713  1.00  0.00     0.217 HD
ENDBRANCH  14  25
BRANCH  12  27
HETATM   27  O1  UNL     1      27.205   9.907  49.978  1.00  0.00    -0.199 OA
BRANCH  27  28
HETATM   28  O2  UNL     1      27.623   9.689  51.229  1.00  0.00    -0.245 OA
HETATM   29  H18 UNL     1      27.626   8.735  51.469  1.00  0.00     0.254 HD
ENDBRANCH  27  28
ENDBRANCH  12  27
BRANCH  16  30
HETATM   30  O4  UNL     1      27.431   8.328  44.213  1.00  0.00    -0.394 OA
HETATM   31  H24 UNL     1      26.786   8.518  43.507  1.00  0.00     0.210 HD
ENDBRANCH  16  30
TORSDOF 5
ENDMDL
MODEL 6
REMARK VINA RESULT:      -7.3      4.325      5.705
REMARK  5 active torsions:
REMARK  status: ('A' for Active; 'I' for Inactive)
REMARK    1  A    between atoms: C2_2  and  C3_3 
REMARK    2  A    between atoms: C17_19  and  O1_20 
REMARK    3  A    between atoms: O1_20  and  O2_21 
REMARK    4  A    between atoms: C19_23  and  O3_24 
REMARK    5  A    between atoms: C21_26  and  O4_27 
ROOT
HETATM    1  C1  UNL     1      16.537   0.579  49.116  1.00  0.00     0.052 C 
HETATM    2  C2  UNL     1      17.018   0.862  50.504  1.00  0.00     0.096 C 
HETATM    3  C9  UNL     1      17.852  -0.245  51.102  1.00  0.00     0.087 C 
HETATM    4  C10 UNL     1      18.794   0.555  52.009  1.00  0.00     0.008 C 
HETATM    5  C11 UNL     1      18.841   1.816  51.516  1.00  0.00     0.057 C 
HETATM    6  C12 UNL     1      19.605   3.057  51.981  1.00  0.00     0.072 C 
HETATM    7  C13 UNL     1      21.007   2.631  51.787  1.00  0.00     0.024 C 
HETATM    8  C14 UNL     1      21.166   1.802  50.525  1.00  0.00     0.027 C 
HETATM    9  C15 UNL     1      22.363   0.901  50.790  1.00  0.00     0.123 C 
HETATM   10  N1  UNL     1      22.920   1.296  52.098  1.00  0.00    -0.385 N 
HETATM   11  C16 UNL     1      22.900   0.371  53.173  1.00  0.00     0.125 C 
HETATM   12  C17 UNL     1      22.012  -0.326  53.812  1.00  0.00     0.124 C 
HETATM   13  C18 UNL     1      20.572  -0.464  53.670  1.00  0.00     0.078 C 
HETATM   14  C19 UNL     1      19.384  -0.238  53.133  1.00  0.00     0.077 C 
HETATM   15  C20 UNL     1      23.374   2.702  51.957  1.00  0.00     0.154 C 
HETATM   16  C21 UNL     1      22.129   3.619  51.744  1.00  0.00     0.140 C 
HETATM   17  O5  UNL     1      18.024   1.883  50.403  1.00  0.00    -0.339 OA
ENDROOT
BRANCH   2  18
HETATM   18  C3  UNL     1      15.922   1.283  51.408  1.00  0.00    -0.002 A 
HETATM   19  C4  UNL     1      15.356   0.448  52.351  1.00  0.00     0.012 A 
HETATM   20  C5  UNL     1      14.338   0.792  53.212  1.00  0.00     0.001 A 
HETATM   21  C6  UNL     1      13.829   2.072  53.140  1.00  0.00     0.002 A 
HETATM   22  C7  UNL     1      14.351   2.955  52.218  1.00  0.00     0.024 A 
HETATM   23  C8  UNL     1      15.372   2.569  51.375  1.00  0.00     0.043 A 
HETATM   24 CL1  UNL     1      16.007   3.722  50.220  1.00  0.00    -0.084 Cl
ENDBRANCH   2  18
BRANCH  14  25
HETATM   25  O3  UNL     1      18.326  -0.940  53.802  1.00  0.00    -0.360 OA
HETATM   26  H20 UNL     1      18.689  -1.652  54.442  1.00  0.00     0.217 HD
ENDBRANCH  14  25
BRANCH  12  27
HETATM   27  O1  UNL     1      22.775  -0.997  54.755  1.00  0.00    -0.199 OA
BRANCH  27  28
HETATM   28  O2  UNL     1      22.165  -2.000  55.395  1.00  0.00    -0.245 OA
HETATM   29  H18 UNL     1      21.305  -1.732  55.792  1.00  0.00     0.254 HD
ENDBRANCH  27  28
ENDBRANCH  12  27
BRANCH  16  30
HETATM   30  O4  UNL     1      22.071   4.589  52.736  1.00  0.00    -0.394 OA
HETATM   31  H24 UNL     1      21.614   4.274  53.539  1.00  0.00     0.210 HD
ENDBRANCH  16  30
TORSDOF 5
ENDMDL
MODEL 7
REMARK VINA RESULT:      -7.2      3.866      7.287
REMARK  5 active torsions:
REMARK  status: ('A' for Active; 'I' for Inactive)
REMARK    1  A    between atoms: C2_2  and  C3_3 
REMARK    2  A    between atoms: C17_19  and  O1_20 
REMARK    3  A    between atoms: O1_20  and  O2_21 
REMARK    4  A    between atoms: C19_23  and  O3_24 
REMARK    5  A    between atoms: C21_26  and  O4_27 
ROOT
HETATM    1  C1  UNL     1      21.918   1.295  48.408  1.00  0.00     0.052 C 
HETATM    2  C2  UNL     1      22.291   2.262  49.486  1.00  0.00     0.096 C 
HETATM    3  C9  UNL     1      23.656   2.881  49.308  1.00  0.00     0.087 C 
HETATM    4  C10 UNL     1      23.439   4.258  49.946  1.00  0.00     0.008 C 
HETATM    5  C11 UNL     1      22.108   4.510  49.899  1.00  0.00     0.057 C 
HETATM    6  C12 UNL     1      21.288   5.711  50.370  1.00  0.00     0.072 C 
HETATM    7  C13 UNL     1      21.805   6.784  49.494  1.00  0.00     0.024 C 
HETATM    8  C14 UNL     1      22.070   6.272  48.089  1.00  0.00     0.027 C 
HETATM    9  C15 UNL     1      23.171   7.171  47.541  1.00  0.00     0.123 C 
HETATM   10  N1  UNL     1      23.422   8.213  48.555  1.00  0.00    -0.385 N 
HETATM   11  C16 UNL     1      24.686   8.274  49.195  1.00  0.00     0.125 C 
HETATM   12  C17 UNL     1      25.440   7.479  49.889  1.00  0.00     0.124 C 
HETATM   13  C18 UNL     1      25.292   6.098  50.318  1.00  0.00     0.078 C 
HETATM   14  C19 UNL     1      24.695   4.921  50.418  1.00  0.00     0.077 C 
HETATM   15  C20 UNL     1      22.163   8.988  48.686  1.00  0.00     0.154 C 
HETATM   16  C21 UNL     1      21.063   8.068  49.303  1.00  0.00     0.140 C 
HETATM   17  O5  UNL     1      21.479   3.433  49.304  1.00  0.00    -0.339 OA
ENDROOT
BRANCH   2  18
HETATM   18  C3  UNL     1      22.111   1.694  50.843  1.00  0.00    -0.002 A 
HETATM   19  C4  UNL     1      23.164   1.328  51.657  1.00  0.00     0.012 A 
HETATM   20  C5  UNL     1      23.047   0.797  52.922  1.00  0.00     0.001 A 
HETATM   21  C6  UNL     1      21.781   0.609  53.434  1.00  0.00     0.002 A 
HETATM   22  C7  UNL     1      20.685   0.955  52.671  1.00  0.00     0.024 A 
HETATM   23  C8  UNL     1      20.848   1.484  51.408  1.00  0.00     0.043 A 
HETATM   24 CL1  UNL     1      19.430   1.910  50.472  1.00  0.00    -0.084 Cl
ENDBRANCH   2  18
BRANCH  14  25
HETATM   25  O3  UNL     1      25.440   3.982  51.208  1.00  0.00    -0.360 OA
HETATM   26  H20 UNL     1      24.920   3.690  52.039  1.00  0.00     0.217 HD
ENDBRANCH  14  25
BRANCH  12  27
HETATM   27  O1  UNL     1      26.539   8.274  50.173  1.00  0.00    -0.199 OA
BRANCH  27  28
HETATM   28  O2  UNL     1      26.285   9.410  50.832  1.00  0.00    -0.245 OA
HETATM   29  H18 UNL     1      25.631   9.291  51.558  1.00  0.00     0.254 HD
ENDBRANCH  27  28
ENDBRANCH  12  27
BRANCH  16  30
HETATM   30  O4  UNL     1      20.576   8.623  50.480  1.00  0.00    -0.394 OA
HETATM   31  H24 UNL     1      21.168   8.466  51.239  1.00  0.00     0.210 HD
ENDBRANCH  16  30
TORSDOF 5
ENDMDL
MODEL 8
REMARK VINA RESULT:      -7.2      3.033      6.695
REMARK  5 active torsions:
REMARK  status: ('A' for Active; 'I' for Inactive)
REMARK    1  A    between atoms: C2_2  and  C3_3 
REMARK    2  A    between atoms: C17_19  and  O1_20 
REMARK    3  A    between atoms: O1_20  and  O2_21 
REMARK    4  A    between atoms: C19_23  and  O3_24 
REMARK    5  A    between atoms: C21_26  and  O4_27 
ROOT
HETATM    1  C1  UNL     1      24.529   3.713  53.483  1.00  0.00     0.052 C 
HETATM    2  C2  UNL     1      23.985   2.691  52.535  1.00  0.00     0.096 C 
HETATM    3  C9  UNL     1      22.514   2.407  52.718  1.00  0.00     0.087 C 
HETATM    4  C10 UNL     1      22.102   2.061  51.283  1.00  0.00     0.008 C 
HETATM    5  C11 UNL     1      23.011   2.638  50.460  1.00  0.00     0.057 C 
HETATM    6  C12 UNL     1      23.131   2.654  48.936  1.00  0.00     0.072 C 
HETATM    7  C13 UNL     1      21.905   3.384  48.551  1.00  0.00     0.024 C 
HETATM    8  C14 UNL     1      21.606   4.515  49.519  1.00  0.00     0.027 C 
HETATM    9  C15 UNL     1      20.096   4.703  49.455  1.00  0.00     0.123 C 
HETATM   10  N1  UNL     1      19.592   3.795  48.407  1.00  0.00    -0.385 N 
HETATM   11  C16 UNL     1      18.720   2.735  48.762  1.00  0.00     0.125 C 
HETATM   12  C17 UNL     1      18.735   1.721  49.570  1.00  0.00     0.124 C 
HETATM   13  C18 UNL     1      19.719   1.226  50.519  1.00  0.00     0.078 C 
HETATM   14  C19 UNL     1      20.863   1.227  51.184  1.00  0.00     0.077 C 
HETATM   15  C20 UNL     1      20.205   4.241  47.131  1.00  0.00     0.154 C 
HETATM   16  C21 UNL     1      21.744   3.987  47.191  1.00  0.00     0.140 C 
HETATM   17  O5  UNL     1      23.944   3.300  51.235  1.00  0.00    -0.339 OA
ENDROOT
BRANCH   2  18
HETATM   18  C3  UNL     1      24.793   1.450  52.517  1.00  0.00    -0.002 A 
HETATM   19  C4  UNL     1      24.406   0.285  53.149  1.00  0.00     0.012 A 
HETATM   20  C5  UNL     1      25.121  -0.892  53.161  1.00  0.00     0.001 A 
HETATM   21  C6  UNL     1      26.326  -0.927  52.491  1.00  0.00     0.002 A 
HETATM   22  C7  UNL     1      26.770   0.204  51.838  1.00  0.00     0.024 A 
HETATM   23  C8  UNL     1      26.021   1.362  51.852  1.00  0.00     0.043 A 
HETATM   24 CL1  UNL     1      26.621   2.776  51.010  1.00  0.00    -0.084 Cl
ENDBRANCH   2  18
BRANCH  14  25
HETATM   25  O3  UNL     1      20.989   0.112  52.079  1.00  0.00    -0.360 OA
HETATM   26  H20 UNL     1      20.545  -0.729  51.702  1.00  0.00     0.217 HD
ENDBRANCH  14  25
BRANCH  12  27
HETATM   27  O1  UNL     1      17.500   1.134  49.344  1.00  0.00    -0.199 OA
BRANCH  27  28
HETATM   28  O2  UNL     1      17.406  -0.166  49.641  1.00  0.00    -0.245 OA
HETATM   29  H18 UNL     1      18.141  -0.698  49.260  1.00  0.00     0.254 HD
ENDBRANCH  27  28
ENDBRANCH  12  27
BRANCH  16  30
HETATM   30  O4  UNL     1      22.136   3.155  46.150  1.00  0.00    -0.394 OA
HETATM   31  H24 UNL     1      22.713   2.428  46.452  1.00  0.00     0.210 HD
ENDBRANCH  16  30
TORSDOF 5
ENDMDL
MODEL 9
REMARK VINA RESULT:      -7.1     21.597     24.686
REMARK  5 active torsions:
REMARK  status: ('A' for Active; 'I' for Inactive)
REMARK    1  A    between atoms: C2_2  and  C3_3 
REMARK    2  A    between atoms: C17_19  and  O1_20 
REMARK    3  A    between atoms: O1_20  and  O2_21 
REMARK    4  A    between atoms: C19_23  and  O3_24 
REMARK    5  A    between atoms: C21_26  and  O4_27 
ROOT
HETATM    1  C1  UNL     1      44.333   0.212  70.885  1.00  0.00     0.052 C 
HETATM    2  C2  UNL     1      43.275   0.758  69.978  1.00  0.00     0.096 C 
HETATM    3  C9  UNL     1      42.732  -0.250  68.995  1.00  0.00     0.087 C 
HETATM    4  C10 UNL     1      41.289   0.245  68.836  1.00  0.00     0.008 C 
HETATM    5  C11 UNL     1      40.992   0.959  69.949  1.00  0.00     0.057 C 
HETATM    6  C12 UNL     1      39.717   1.690  70.372  1.00  0.00     0.072 C 
HETATM    7  C13 UNL     1      38.761   0.570  70.497  1.00  0.00     0.024 C 
HETATM    8  C14 UNL     1      39.424  -0.660  71.091  1.00  0.00     0.027 C 
HETATM    9  C15 UNL     1      38.630  -1.840  70.547  1.00  0.00     0.123 C 
HETATM   10  N1  UNL     1      37.500  -1.282  69.779  1.00  0.00    -0.385 N 
HETATM   11  C16 UNL     1      37.423  -1.514  68.382  1.00  0.00     0.125 C 
HETATM   12  C17 UNL     1      38.171  -1.313  67.342  1.00  0.00     0.124 C 
HETATM   13  C18 UNL     1      39.494  -0.736  67.171  1.00  0.00     0.078 C 
HETATM   14  C19 UNL     1      40.630  -0.181  67.562  1.00  0.00     0.077 C 
HETATM   15  C20 UNL     1      36.667  -0.522  70.744  1.00  0.00     0.154 C 
HETATM   16  C21 UNL     1      37.475   0.716  71.247  1.00  0.00     0.140 C 
HETATM   17  O5  UNL     1      42.099   0.963  70.776  1.00  0.00    -0.339 OA
ENDROOT
BRANCH   2  18
HETATM   18  C3  UNL     1      43.694   2.014  69.313  1.00  0.00    -0.002 A 
HETATM   19  C4  UNL     1      44.124   2.071  68.003  1.00  0.00     0.012 A 
HETATM   20  C5  UNL     1      44.523   3.211  67.342  1.00  0.00     0.001 A 
HETATM   21  C6  UNL     1      44.495   4.405  68.032  1.00  0.00     0.002 A 
HETATM   22  C7  UNL     1      44.075   4.418  69.345  1.00  0.00     0.024 A 
HETATM   23  C8  UNL     1      43.684   3.250  69.968  1.00  0.00     0.043 A 
HETATM   24 CL1  UNL     1      43.156   3.310  71.638  1.00  0.00    -0.084 Cl
ENDBRANCH   2  18
BRANCH  14  25
HETATM   25  O3  UNL     1      41.511   0.117  66.469  1.00  0.00    -0.360 OA
HETATM   26  H20 UNL     1      41.591  -0.671  65.821  1.00  0.00     0.217 HD
ENDBRANCH  14  25
BRANCH  12  27
HETATM   27  O1  UNL     1      37.394  -1.812  66.309  1.00  0.00    -0.199 OA
BRANCH  27  28
HETATM   28  O2  UNL     1      37.806  -2.963  65.768  1.00  0.00    -0.245 OA
HETATM   29  H18 UNL     1      38.080  -2.866  64.828  1.00  0.00     0.254 HD
ENDBRANCH  27  28
ENDBRANCH  12  27
BRANCH  16  30
HETATM   30  O4  UNL     1      36.784   1.888  70.969  1.00  0.00    -0.394 OA
HETATM   31  H24 UNL     1      36.967   2.224  70.072  1.00  0.00     0.210 HD
ENDBRANCH  16  30
TORSDOF 5
ENDMDL
