MODEL 1
REMARK VINA RESULT:      -8.2      0.000      0.000
REMARK  7 active torsions:
REMARK  status: ('A' for Active; 'I' for Inactive)
REMARK    1  A    between atoms: C2_2  and  C3_3 
REMARK    2  A    between atoms: C2_2  and  C9_9 
REMARK    3  A    between atoms: C12_14  and  C13_15 
REMARK       I    between atoms: N3_18  and  C16_19 
REMARK    4  A    between atoms: C16_19  and  C17_21 
REMARK    5  A    between atoms: C18_22  and  C19_23 
REMARK    6  A    between atoms: C19_23  and  N4_24 
REMARK    7  A    between atoms: N4_24  and  S1_26 
ROOT
HETATM    1  C13 UNL     1      25.476   2.439  52.612  1.00  0.00    -0.045 C 
HETATM    2  C14 UNL     1      24.604   3.165  53.266  1.00  0.00     0.001 C 
HETATM    3  C15 UNL     1      23.409   3.872  52.756  1.00  0.00     0.154 C 
HETATM    4  N3  UNL     1      22.682   2.959  51.923  1.00  0.00    -0.345 N 
HETATM    5  C16 UNL     1      21.271   2.889  51.973  1.00  0.00     0.243 C 
HETATM    6  O1  UNL     1      20.620   3.631  52.753  1.00  0.00    -0.268 OA
HETATM    7  C21 UNL     1      23.498   2.165  51.078  1.00  0.00     0.131 C 
HETATM    8  C22 UNL     1      24.971   2.437  51.214  1.00  0.00     0.059 C 
ENDROOT
BRANCH   1   9
HETATM    9  C12 UNL     1      26.656   1.719  53.017  1.00  0.00     0.013 A 
HETATM   10  C9  UNL     1      26.981   0.400  53.121  1.00  0.00     0.056 A 
HETATM   11  N1  UNL     1      28.150  -0.009  53.637  1.00  0.00    -0.245 NA
HETATM   12  C10 UNL     1      29.085   0.840  54.085  1.00  0.00     0.232 A 
HETATM   13  N2  UNL     1      28.803   2.148  53.998  1.00  0.00    -0.253 NA
HETATM   14  C11 UNL     1      27.645   2.594  53.489  1.00  0.00     0.132 A 
BRANCH  10  15
HETATM   15  C2  UNL     1      26.044  -0.598  52.625  1.00  0.00     0.067 C 
HETATM   16  C1  UNL     1      26.817  -1.958  52.761  1.00  0.00     0.021 C 
BRANCH  15  17
HETATM   17  C3  UNL     1      24.857  -0.777  53.490  1.00  0.00    -0.049 A 
HETATM   18  C4  UNL     1      23.553  -0.708  52.990  1.00  0.00     0.008 A 
HETATM   19  C5  UNL     1      22.379  -0.875  53.687  1.00  0.00     0.001 A 
HETATM   20  C6  UNL     1      22.488  -1.144  55.035  1.00  0.00     0.000 A 
HETATM   21  C7  UNL     1      23.720  -1.236  55.631  1.00  0.00     0.001 A 
HETATM   22  C8  UNL     1      24.838  -1.055  54.860  1.00  0.00     0.008 A 
ENDBRANCH  15  17
ENDBRANCH  10  15
ENDBRANCH   1   9
BRANCH   5  23
HETATM   23  C17 UNL     1      20.466   1.988  51.158  1.00  0.00     0.071 C 
HETATM   24  C18 UNL     1      19.816   1.061  51.821  1.00  0.00    -0.006 C 
BRANCH  24  25
HETATM   25  C19 UNL     1      18.938   0.034  51.212  1.00  0.00     0.129 C 
BRANCH  25  26
HETATM   26  N4  UNL     1      17.704  -0.131  51.957  1.00  0.00    -0.262 NA
HETATM   27  C20 UNL     1      16.642  -0.355  50.997  1.00  0.00     0.124 C 
BRANCH  26  28
HETATM   28  S1  UNL     1      17.829  -1.384  53.169  1.00  0.00    -0.096 SA
HETATM   29  H22 UNL     1      16.726  -1.247  54.051  1.00  0.00     0.119 HD
ENDBRANCH  26  28
ENDBRANCH  25  26
ENDBRANCH  24  25
ENDBRANCH   5  23
TORSDOF 7
ENDMDL
MODEL 2
REMARK VINA RESULT:      -7.8      3.733      6.038
REMARK  7 active torsions:
REMARK  status: ('A' for Active; 'I' for Inactive)
REMARK    1  A    between atoms: C2_2  and  C3_3 
REMARK    2  A    between atoms: C2_2  and  C9_9 
REMARK    3  A    between atoms: C12_14  and  C13_15 
REMARK       I    between atoms: N3_18  and  C16_19 
REMARK    4  A    between atoms: C16_19  and  C17_21 
REMARK    5  A    between atoms: C18_22  and  C19_23 
REMARK    6  A    between atoms: C19_23  and  N4_24 
REMARK    7  A    between atoms: N4_24  and  S1_26 
ROOT
HETATM    1  C13 UNL     1      22.624   0.820  52.442  1.00  0.00    -0.045 C 
HETATM    2  C14 UNL     1      22.436   0.548  51.175  1.00  0.00     0.001 C 
HETATM    3  C15 UNL     1      21.783   1.370  50.131  1.00  0.00     0.154 C 
HETATM    4  N3  UNL     1      22.318   2.697  50.220  1.00  0.00    -0.345 N 
HETATM    5  C16 UNL     1      22.636   3.436  49.058  1.00  0.00     0.243 C 
HETATM    6  O1  UNL     1      22.456   2.942  47.915  1.00  0.00    -0.268 OA
HETATM    7  C21 UNL     1      22.487   3.170  51.547  1.00  0.00     0.131 C 
HETATM    8  C22 UNL     1      22.067   2.189  52.607  1.00  0.00     0.059 C 
ENDROOT
BRANCH   1   9
HETATM    9  C12 UNL     1      23.242   0.094  53.521  1.00  0.00     0.013 A 
HETATM   10  C9  UNL     1      24.526  -0.232  53.841  1.00  0.00     0.056 A 
HETATM   11  N1  UNL     1      24.822  -1.027  54.880  1.00  0.00    -0.245 NA
HETATM   12  C10 UNL     1      23.889  -1.558  55.682  1.00  0.00     0.232 A 
HETATM   13  N2  UNL     1      22.613  -1.259  55.400  1.00  0.00    -0.253 NA
HETATM   14  C11 UNL     1      22.277  -0.468  54.369  1.00  0.00     0.132 A 
BRANCH  10  15
HETATM   15  C2  UNL     1      25.613   0.327  53.051  1.00  0.00     0.067 C 
HETATM   16  C1  UNL     1      25.929   1.701  53.741  1.00  0.00     0.021 C 
BRANCH  15  17
HETATM   17  C3  UNL     1      26.880  -0.428  53.169  1.00  0.00    -0.049 A 
HETATM   18  C4  UNL     1      27.008  -1.746  52.719  1.00  0.00     0.008 A 
HETATM   19  C5  UNL     1      28.131  -2.538  52.756  1.00  0.00     0.001 A 
HETATM   20  C6  UNL     1      29.270  -1.980  53.297  1.00  0.00     0.000 A 
HETATM   21  C7  UNL     1      29.259  -0.692  53.770  1.00  0.00     0.001 A 
HETATM   22  C8  UNL     1      28.094   0.026  53.693  1.00  0.00     0.008 A 
ENDBRANCH  15  17
ENDBRANCH  10  15
ENDBRANCH   1   9
BRANCH   5  23
HETATM   23  C17 UNL     1      23.183   4.787  49.071  1.00  0.00     0.071 C 
HETATM   24  C18 UNL     1      24.472   4.874  48.841  1.00  0.00    -0.006 C 
BRANCH  24  25
HETATM   25  C19 UNL     1      25.248   6.136  48.804  1.00  0.00     0.129 C 
BRANCH  25  26
HETATM   26  N4  UNL     1      26.639   5.923  49.157  1.00  0.00    -0.262 NA
HETATM   27  C20 UNL     1      26.900   4.501  49.066  1.00  0.00     0.124 C 
BRANCH  26  28
HETATM   28  S1  UNL     1      27.720   6.897  48.188  1.00  0.00    -0.096 SA
HETATM   29  H22 UNL     1      27.077   7.159  46.951  1.00  0.00     0.119 HD
ENDBRANCH  26  28
ENDBRANCH  25  26
ENDBRANCH  24  25
ENDBRANCH   5  23
TORSDOF 7
ENDMDL
MODEL 3
REMARK VINA RESULT:      -7.8      2.386      2.627
REMARK  7 active torsions:
REMARK  status: ('A' for Active; 'I' for Inactive)
REMARK    1  A    between atoms: C2_2  and  C3_3 
REMARK    2  A    between atoms: C2_2  and  C9_9 
REMARK    3  A    between atoms: C12_14  and  C13_15 
REMARK       I    between atoms: N3_18  and  C16_19 
REMARK    4  A    between atoms: C16_19  and  C17_21 
REMARK    5  A    between atoms: C18_22  and  C19_23 
REMARK    6  A    between atoms: C19_23  and  N4_24 
REMARK    7  A    between atoms: N4_24  and  S1_26 
ROOT
HETATM    1  C13 UNL     1      25.693   2.469  52.678  1.00  0.00    -0.045 C 
HETATM    2  C14 UNL     1      24.735   3.076  53.331  1.00  0.00     0.001 C 
HETATM    3  C15 UNL     1      23.608   3.877  52.802  1.00  0.00     0.154 C 
HETATM    4  N3  UNL     1      23.008   3.136  51.732  1.00  0.00    -0.345 N 
HETATM    5  C16 UNL     1      21.604   3.074  51.582  1.00  0.00     0.243 C 
HETATM    6  O1  UNL     1      20.847   3.672  52.390  1.00  0.00    -0.268 OA
HETATM    7  C21 UNL     1      23.939   2.497  50.872  1.00  0.00     0.131 C 
HETATM    8  C22 UNL     1      25.377   2.723  51.247  1.00  0.00     0.059 C 
ENDROOT
BRANCH   1   9
HETATM    9  C12 UNL     1      26.819   1.675  53.098  1.00  0.00     0.013 A 
HETATM   10  C9  UNL     1      27.067   0.338  53.180  1.00  0.00     0.056 A 
HETATM   11  N1  UNL     1      28.196  -0.147  53.720  1.00  0.00    -0.245 NA
HETATM   12  C10 UNL     1      29.162   0.637  54.215  1.00  0.00     0.232 A 
HETATM   13  N2  UNL     1      28.956   1.960  54.152  1.00  0.00    -0.253 NA
HETATM   14  C11 UNL     1      27.840   2.482  53.620  1.00  0.00     0.132 A 
BRANCH  10  15
HETATM   15  C2  UNL     1      26.092  -0.595  52.634  1.00  0.00     0.067 C 
HETATM   16  C1  UNL     1      26.793  -1.995  52.736  1.00  0.00     0.021 C 
BRANCH  15  17
HETATM   17  C3  UNL     1      24.881  -0.743  53.470  1.00  0.00    -0.049 A 
HETATM   18  C4  UNL     1      23.592  -0.564  52.957  1.00  0.00     0.008 A 
HETATM   19  C5  UNL     1      22.399  -0.693  53.626  1.00  0.00     0.001 A 
HETATM   20  C6  UNL     1      22.466  -1.039  54.960  1.00  0.00     0.000 A 
HETATM   21  C7  UNL     1      23.680  -1.239  55.568  1.00  0.00     0.001 A 
HETATM   22  C8  UNL     1      24.821  -1.090  54.824  1.00  0.00     0.008 A 
ENDBRANCH  15  17
ENDBRANCH  10  15
ENDBRANCH   1   9
BRANCH   5  23
HETATM   23  C17 UNL     1      20.925   2.342  50.520  1.00  0.00     0.071 C 
HETATM   24  C18 UNL     1      20.489   3.075  49.523  1.00  0.00    -0.006 C 
BRANCH  24  25
HETATM   25  C19 UNL     1      19.771   2.557  48.335  1.00  0.00     0.129 C 
BRANCH  25  26
HETATM   26  N4  UNL     1      20.120   3.289  47.132  1.00  0.00    -0.262 NA
HETATM   27  C20 UNL     1      19.417   4.555  47.173  1.00  0.00     0.124 C 
BRANCH  26  28
HETATM   28  S1  UNL     1      21.850   3.454  46.941  1.00  0.00    -0.096 SA
HETATM   29  H22 UNL     1      22.151   3.304  45.562  1.00  0.00     0.119 HD
ENDBRANCH  26  28
ENDBRANCH  25  26
ENDBRANCH  24  25
ENDBRANCH   5  23
TORSDOF 7
ENDMDL
MODEL 4
REMARK VINA RESULT:      -7.7      3.407      4.339
REMARK  7 active torsions:
REMARK  status: ('A' for Active; 'I' for Inactive)
REMARK    1  A    between atoms: C2_2  and  C3_3 
REMARK    2  A    between atoms: C2_2  and  C9_9 
REMARK    3  A    between atoms: C12_14  and  C13_15 
REMARK       I    between atoms: N3_18  and  C16_19 
REMARK    4  A    between atoms: C16_19  and  C17_21 
REMARK    5  A    between atoms: C18_22  and  C19_23 
REMARK    6  A    between atoms: C19_23  and  N4_24 
REMARK    7  A    between atoms: N4_24  and  S1_26 
ROOT
HETATM    1  C13 UNL     1      26.402   2.323  51.727  1.00  0.00    -0.045 C 
HETATM    2  C14 UNL     1      26.773   3.013  50.678  1.00  0.00     0.001 C 
HETATM    3  C15 UNL     1      25.939   3.760  49.710  1.00  0.00     0.154 C 
HETATM    4  N3  UNL     1      25.012   4.559  50.456  1.00  0.00    -0.345 N 
HETATM    5  C16 UNL     1      24.716   5.887  50.069  1.00  0.00     0.243 C 
HETATM    6  O1  UNL     1      25.262   6.396  49.057  1.00  0.00    -0.268 OA
HETATM    7  C21 UNL     1      24.447   3.903  51.579  1.00  0.00     0.131 C 
HETATM    8  C22 UNL     1      24.926   2.490  51.769  1.00  0.00     0.059 C 
ENDROOT
BRANCH   1   9
HETATM    9  C12 UNL     1      27.131   1.573  52.717  1.00  0.00     0.013 A 
HETATM   10  C9  UNL     1      27.008   0.326  53.253  1.00  0.00     0.056 A 
HETATM   11  N1  UNL     1      27.782  -0.097  54.263  1.00  0.00    -0.245 NA
HETATM   12  C10 UNL     1      28.732   0.664  54.821  1.00  0.00     0.232 A 
HETATM   13  N2  UNL     1      28.886   1.898  54.321  1.00  0.00    -0.253 NA
HETATM   14  C11 UNL     1      28.130   2.357  53.312  1.00  0.00     0.132 A 
BRANCH  10  15
HETATM   15  C2  UNL     1      26.027  -0.589  52.688  1.00  0.00     0.067 C 
HETATM   16  C1  UNL     1      26.722  -1.995  52.756  1.00  0.00     0.021 C 
BRANCH  15  17
HETATM   17  C3  UNL     1      24.817  -0.751  53.524  1.00  0.00    -0.049 A 
HETATM   18  C4  UNL     1      23.527  -0.570  53.013  1.00  0.00     0.008 A 
HETATM   19  C5  UNL     1      22.334  -0.709  53.682  1.00  0.00     0.001 A 
HETATM   20  C6  UNL     1      22.404  -1.071  55.011  1.00  0.00     0.000 A 
HETATM   21  C7  UNL     1      23.619  -1.276  55.616  1.00  0.00     0.001 A 
HETATM   22  C8  UNL     1      24.759  -1.114  54.873  1.00  0.00     0.008 A 
ENDBRANCH  15  17
ENDBRANCH  10  15
ENDBRANCH   1   9
BRANCH   5  23
HETATM   23  C17 UNL     1      23.786   6.758  50.778  1.00  0.00     0.071 C 
HETATM   24  C18 UNL     1      22.586   6.843  50.253  1.00  0.00    -0.006 C 
BRANCH  24  25
HETATM   25  C19 UNL     1      21.476   7.663  50.793  1.00  0.00     0.129 C 
BRANCH  25  26
HETATM   26  N4  UNL     1      20.522   8.025  49.762  1.00  0.00    -0.262 NA
HETATM   27  C20 UNL     1      21.246   8.740  48.730  1.00  0.00     0.124 C 
BRANCH  26  28
HETATM   28  S1  UNL     1      19.638   6.639  49.166  1.00  0.00    -0.096 SA
HETATM   29  H22 UNL     1      18.477   6.488  49.967  1.00  0.00     0.119 HD
ENDBRANCH  26  28
ENDBRANCH  25  26
ENDBRANCH  24  25
ENDBRANCH   5  23
TORSDOF 7
ENDMDL
MODEL 5
REMARK VINA RESULT:      -7.6      2.632      4.325
REMARK  7 active torsions:
REMARK  status: ('A' for Active; 'I' for Inactive)
REMARK    1  A    between atoms: C2_2  and  C3_3 
REMARK    2  A    between atoms: C2_2  and  C9_9 
REMARK    3  A    between atoms: C12_14  and  C13_15 
REMARK       I    between atoms: N3_18  and  C16_19 
REMARK    4  A    between atoms: C16_19  and  C17_21 
REMARK    5  A    between atoms: C18_22  and  C19_23 
REMARK    6  A    between atoms: C19_23  and  N4_24 
REMARK    7  A    between atoms: N4_24  and  S1_26 
ROOT
HETATM    1  C13 UNL     1      22.619   0.699  52.427  1.00  0.00    -0.045 C 
HETATM    2  C14 UNL     1      22.720   1.920  51.964  1.00  0.00     0.001 C 
HETATM    3  C15 UNL     1      22.025   2.542  50.815  1.00  0.00     0.154 C 
HETATM    4  N3  UNL     1      20.631   2.229  50.924  1.00  0.00    -0.345 N 
HETATM    5  C16 UNL     1      19.639   3.197  50.645  1.00  0.00     0.243 C 
HETATM    6  O1  UNL     1      19.962   4.361  50.293  1.00  0.00    -0.268 OA
HETATM    7  C21 UNL     1      20.363   0.895  51.327  1.00  0.00     0.131 C 
HETATM    8  C22 UNL     1      21.595   0.064  51.557  1.00  0.00     0.059 C 
ENDROOT
BRANCH   1   9
HETATM    9  C12 UNL     1      23.245   0.010  53.526  1.00  0.00     0.013 A 
HETATM   10  C9  UNL     1      24.533  -0.291  53.855  1.00  0.00     0.056 A 
HETATM   11  N1  UNL     1      24.839  -1.054  54.915  1.00  0.00    -0.245 NA
HETATM   12  C10 UNL     1      23.912  -1.575  55.730  1.00  0.00     0.232 A 
HETATM   13  N2  UNL     1      22.632  -1.300  55.440  1.00  0.00    -0.253 NA
HETATM   14  C11 UNL     1      22.287  -0.541  54.388  1.00  0.00     0.132 A 
BRANCH  10  15
HETATM   15  C2  UNL     1      25.613   0.261  53.051  1.00  0.00     0.067 C 
HETATM   16  C1  UNL     1      25.992   1.601  53.774  1.00  0.00     0.021 C 
BRANCH  15  17
HETATM   17  C3  UNL     1      26.859  -0.536  53.106  1.00  0.00    -0.049 A 
HETATM   18  C4  UNL     1      28.046  -0.030  53.646  1.00  0.00     0.008 A 
HETATM   19  C5  UNL     1      29.253  -0.676  53.769  1.00  0.00     0.001 A 
HETATM   20  C6  UNL     1      29.313  -1.975  53.310  1.00  0.00     0.000 A 
HETATM   21  C7  UNL     1      28.207  -2.574  52.761  1.00  0.00     0.001 A 
HETATM   22  C8  UNL     1      27.044  -1.855  52.678  1.00  0.00     0.008 A 
ENDBRANCH  15  17
ENDBRANCH  10  15
ENDBRANCH   1   9
BRANCH   5  23
HETATM   23  C17 UNL     1      18.206   2.951  50.735  1.00  0.00     0.071 C 
HETATM   24  C18 UNL     1      17.490   3.955  51.185  1.00  0.00    -0.006 C 
BRANCH  24  25
HETATM   25  C19 UNL     1      16.019   3.941  51.363  1.00  0.00     0.129 C 
BRANCH  25  26
HETATM   26  N4  UNL     1      15.634   3.319  52.615  1.00  0.00    -0.262 NA
HETATM   27  C20 UNL     1      14.876   4.295  53.372  1.00  0.00     0.124 C 
BRANCH  26  28
HETATM   28  S1  UNL     1      14.785   1.811  52.369  1.00  0.00    -0.096 SA
HETATM   29  H22 UNL     1      15.716   0.868  51.860  1.00  0.00     0.119 HD
ENDBRANCH  26  28
ENDBRANCH  25  26
ENDBRANCH  24  25
ENDBRANCH   5  23
TORSDOF 7
ENDMDL
MODEL 6
REMARK VINA RESULT:      -7.6      2.629      4.978
REMARK  7 active torsions:
REMARK  status: ('A' for Active; 'I' for Inactive)
REMARK    1  A    between atoms: C2_2  and  C3_3 
REMARK    2  A    between atoms: C2_2  and  C9_9 
REMARK    3  A    between atoms: C12_14  and  C13_15 
REMARK       I    between atoms: N3_18  and  C16_19 
REMARK    4  A    between atoms: C16_19  and  C17_21 
REMARK    5  A    between atoms: C18_22  and  C19_23 
REMARK    6  A    between atoms: C19_23  and  N4_24 
REMARK    7  A    between atoms: N4_24  and  S1_26 
ROOT
HETATM    1  C13 UNL     1      22.653  -0.245  53.594  1.00  0.00    -0.045 C 
HETATM    2  C14 UNL     1      22.093  -1.406  53.824  1.00  0.00     0.001 C 
HETATM    3  C15 UNL     1      20.747  -1.702  54.363  1.00  0.00     0.154 C 
HETATM    4  N3  UNL     1      19.803  -0.893  53.651  1.00  0.00    -0.345 N 
HETATM    5  C16 UNL     1      18.555  -1.416  53.240  1.00  0.00     0.243 C 
HETATM    6  O1  UNL     1      18.246  -2.609  53.493  1.00  0.00    -0.268 OA
HETATM    7  C21 UNL     1      20.236   0.436  53.412  1.00  0.00     0.131 C 
HETATM    8  C22 UNL     1      21.604   0.744  53.957  1.00  0.00     0.059 C 
ENDROOT
BRANCH   1   9
HETATM    9  C12 UNL     1      23.941   0.139  53.076  1.00  0.00     0.013 A 
HETATM   10  C9  UNL     1      24.388   1.152  52.282  1.00  0.00     0.056 A 
HETATM   11  N1  UNL     1      25.658   1.218  51.856  1.00  0.00    -0.245 NA
HETATM   12  C10 UNL     1      26.583   0.304  52.178  1.00  0.00     0.232 A 
HETATM   13  N2  UNL     1      26.183  -0.708  52.960  1.00  0.00    -0.253 NA
HETATM   14  C11 UNL     1      24.921  -0.809  53.404  1.00  0.00     0.132 A 
BRANCH  10  15
HETATM   15  C2  UNL     1      23.465   2.214  51.910  1.00  0.00     0.067 C 
HETATM   16  C1  UNL     1      24.355   3.507  51.873  1.00  0.00     0.021 C 
BRANCH  15  17
HETATM   17  C3  UNL     1      22.954   2.098  50.526  1.00  0.00    -0.049 A 
HETATM   18  C4  UNL     1      21.933   1.206  50.180  1.00  0.00     0.008 A 
HETATM   19  C5  UNL     1      21.365   1.023  48.942  1.00  0.00     0.001 A 
HETATM   20  C6  UNL     1      21.850   1.802  47.912  1.00  0.00     0.000 A 
HETATM   21  C7  UNL     1      22.853   2.712  48.138  1.00  0.00     0.001 A 
HETATM   22  C8  UNL     1      23.361   2.829  49.405  1.00  0.00     0.008 A 
ENDBRANCH  15  17
ENDBRANCH  10  15
ENDBRANCH   1   9
BRANCH   5  23
HETATM   23  C17 UNL     1      17.547  -0.654  52.514  1.00  0.00     0.071 C 
HETATM   24  C18 UNL     1      16.314  -0.805  52.939  1.00  0.00    -0.006 C 
BRANCH  24  25
HETATM   25  C19 UNL     1      15.125  -0.136  52.361  1.00  0.00     0.129 C 
BRANCH  25  26
HETATM   26  N4  UNL     1      14.590   0.876  53.251  1.00  0.00    -0.262 NA
HETATM   27  C20 UNL     1      14.704   2.154  52.578  1.00  0.00     0.124 C 
BRANCH  26  28
HETATM   28  S1  UNL     1      12.963   0.501  53.772  1.00  0.00    -0.096 SA
HETATM   29  H22 UNL     1      13.055  -0.371  54.888  1.00  0.00     0.119 HD
ENDBRANCH  26  28
ENDBRANCH  25  26
ENDBRANCH  24  25
ENDBRANCH   5  23
TORSDOF 7
ENDMDL
MODEL 7
REMARK VINA RESULT:      -7.5      5.372      8.317
REMARK  7 active torsions:
REMARK  status: ('A' for Active; 'I' for Inactive)
REMARK    1  A    between atoms: C2_2  and  C3_3 
REMARK    2  A    between atoms: C2_2  and  C9_9 
REMARK    3  A    between atoms: C12_14  and  C13_15 
REMARK       I    between atoms: N3_18  and  C16_19 
REMARK    4  A    between atoms: C16_19  and  C17_21 
REMARK    5  A    between atoms: C18_22  and  C19_23 
REMARK    6  A    between atoms: C19_23  and  N4_24 
REMARK    7  A    between atoms: N4_24  and  S1_26 
ROOT
HETATM    1  C13 UNL     1      24.597   4.237  49.779  1.00  0.00    -0.045 C 
HETATM    2  C14 UNL     1      24.524   5.543  49.849  1.00  0.00     0.001 C 
HETATM    3  C15 UNL     1      25.614   6.530  50.020  1.00  0.00     0.154 C 
HETATM    4  N3  UNL     1      26.655   6.198  49.093  1.00  0.00    -0.345 N 
HETATM    5  C16 UNL     1      27.339   7.202  48.370  1.00  0.00     0.243 C 
HETATM    6  O1  UNL     1      27.045   8.415  48.526  1.00  0.00    -0.268 OA
HETATM    7  C21 UNL     1      26.917   4.808  48.983  1.00  0.00     0.131 C 
HETATM    8  C22 UNL     1      26.053   3.948  49.865  1.00  0.00     0.059 C 
ENDROOT
BRANCH   1   9
HETATM    9  C12 UNL     1      23.606   3.206  49.614  1.00  0.00     0.013 A 
HETATM   10  C9  UNL     1      23.067   2.259  50.432  1.00  0.00     0.056 A 
HETATM   11  N1  UNL     1      22.210   1.330  49.983  1.00  0.00    -0.245 NA
HETATM   12  C10 UNL     1      21.815   1.261  48.705  1.00  0.00     0.232 A 
HETATM   13  N2  UNL     1      22.322   2.176  47.867  1.00  0.00    -0.253 NA
HETATM   14  C11 UNL     1      23.182   3.120  48.280  1.00  0.00     0.132 A 
BRANCH  10  15
HETATM   15  C2  UNL     1      23.407   2.275  51.848  1.00  0.00     0.067 C 
HETATM   16  C1  UNL     1      22.087   1.829  52.570  1.00  0.00     0.021 C 
BRANCH  15  17
HETATM   17  C3  UNL     1      24.390   1.239  52.234  1.00  0.00    -0.049 A 
HETATM   18  C4  UNL     1      24.089   0.232  53.157  1.00  0.00     0.008 A 
HETATM   19  C5  UNL     1      24.907  -0.790  53.577  1.00  0.00     0.001 A 
HETATM   20  C6  UNL     1      26.173  -0.839  53.033  1.00  0.00     0.000 A 
HETATM   21  C7  UNL     1      26.575   0.099  52.116  1.00  0.00     0.001 A 
HETATM   22  C8  UNL     1      25.694   1.084  51.753  1.00  0.00     0.008 A 
ENDBRANCH  15  17
ENDBRANCH  10  15
ENDBRANCH   1   9
BRANCH   5  23
HETATM   23  C17 UNL     1      28.406   6.940  47.413  1.00  0.00     0.071 C 
HETATM   24  C18 UNL     1      29.625   7.068  47.882  1.00  0.00    -0.006 C 
BRANCH  24  25
HETATM   25  C19 UNL     1      30.866   6.855  47.101  1.00  0.00     0.129 C 
BRANCH  25  26
HETATM   26  N4  UNL     1      31.849   6.094  47.848  1.00  0.00    -0.262 NA
HETATM   27  C20 UNL     1      31.575   6.292  49.257  1.00  0.00     0.124 C 
BRANCH  26  28
HETATM   28  S1  UNL     1      31.882   4.412  47.371  1.00  0.00    -0.096 SA
HETATM   29  H22 UNL     1      32.944   3.783  48.071  1.00  0.00     0.119 HD
ENDBRANCH  26  28
ENDBRANCH  25  26
ENDBRANCH  24  25
ENDBRANCH   5  23
TORSDOF 7
ENDMDL
MODEL 8
REMARK VINA RESULT:      -7.5      5.297      8.440
REMARK  7 active torsions:
REMARK  status: ('A' for Active; 'I' for Inactive)
REMARK    1  A    between atoms: C2_2  and  C3_3 
REMARK    2  A    between atoms: C2_2  and  C9_9 
REMARK    3  A    between atoms: C12_14  and  C13_15 
REMARK       I    between atoms: N3_18  and  C16_19 
REMARK    4  A    between atoms: C16_19  and  C17_21 
REMARK    5  A    between atoms: C18_22  and  C19_23 
REMARK    6  A    between atoms: C19_23  and  N4_24 
REMARK    7  A    between atoms: N4_24  and  S1_26 
ROOT
HETATM    1  C13 UNL     1      24.104   3.788  49.844  1.00  0.00    -0.045 C 
HETATM    2  C14 UNL     1      24.241   5.029  49.450  1.00  0.00     0.001 C 
HETATM    3  C15 UNL     1      25.386   5.947  49.641  1.00  0.00     0.154 C 
HETATM    4  N3  UNL     1      26.580   5.239  49.283  1.00  0.00    -0.345 N 
HETATM    5  C16 UNL     1      27.608   5.867  48.543  1.00  0.00     0.243 C 
HETATM    6  O1  UNL     1      27.496   7.067  48.181  1.00  0.00    -0.268 OA
HETATM    7  C21 UNL     1      26.618   3.895  49.733  1.00  0.00     0.131 C 
HETATM    8  C22 UNL     1      25.398   3.470  50.504  1.00  0.00     0.059 C 
ENDROOT
BRANCH   1   9
HETATM    9  C12 UNL     1      23.042   2.825  49.707  1.00  0.00     0.013 A 
HETATM   10  C9  UNL     1      22.253   2.142  50.583  1.00  0.00     0.056 A 
HETATM   11  N1  UNL     1      21.386   1.201  50.179  1.00  0.00    -0.245 NA
HETATM   12  C10 UNL     1      21.226   0.862  48.893  1.00  0.00     0.232 A 
HETATM   13  N2  UNL     1      21.984   1.513  47.999  1.00  0.00    -0.253 NA
HETATM   14  C11 UNL     1      22.862   2.459  48.365  1.00  0.00     0.132 A 
BRANCH  10  15
HETATM   15  C2  UNL     1      22.328   2.467  52.000  1.00  0.00     0.067 C 
HETATM   16  C1  UNL     1      20.890   2.986  52.356  1.00  0.00     0.021 C 
BRANCH  15  17
HETATM   17  C3  UNL     1      22.503   1.283  52.870  1.00  0.00    -0.049 A 
HETATM   18  C4  UNL     1      21.462   0.771  53.652  1.00  0.00     0.008 A 
HETATM   19  C5  UNL     1      21.498  -0.326  54.479  1.00  0.00     0.001 A 
HETATM   20  C6  UNL     1      22.693  -1.010  54.556  1.00  0.00     0.000 A 
HETATM   21  C7  UNL     1      23.782  -0.595  53.831  1.00  0.00     0.001 A 
HETATM   22  C8  UNL     1      23.657   0.510  53.031  1.00  0.00     0.008 A 
ENDBRANCH  15  17
ENDBRANCH  10  15
ENDBRANCH   1   9
BRANCH   5  23
HETATM   23  C17 UNL     1      28.847   5.212  48.143  1.00  0.00     0.071 C 
HETATM   24  C18 UNL     1      29.922   5.963  48.194  1.00  0.00    -0.006 C 
BRANCH  24  25
HETATM   25  C19 UNL     1      31.289   5.520  47.837  1.00  0.00     0.129 C 
BRANCH  25  26
HETATM   26  N4  UNL     1      32.294   6.139  48.680  1.00  0.00    -0.262 NA
HETATM   27  C20 UNL     1      33.492   6.305  47.882  1.00  0.00     0.124 C 
BRANCH  26  28
HETATM   28  S1  UNL     1      31.723   7.624  49.404  1.00  0.00    -0.096 SA
HETATM   29  H22 UNL     1      31.373   8.512  48.354  1.00  0.00     0.119 HD
ENDBRANCH  26  28
ENDBRANCH  25  26
ENDBRANCH  24  25
ENDBRANCH   5  23
TORSDOF 7
ENDMDL
MODEL 9
REMARK VINA RESULT:      -7.2      6.053      8.785
REMARK  7 active torsions:
REMARK  status: ('A' for Active; 'I' for Inactive)
REMARK    1  A    between atoms: C2_2  and  C3_3 
REMARK    2  A    between atoms: C2_2  and  C9_9 
REMARK    3  A    between atoms: C12_14  and  C13_15 
REMARK       I    between atoms: N3_18  and  C16_19 
REMARK    4  A    between atoms: C16_19  and  C17_21 
REMARK    5  A    between atoms: C18_22  and  C19_23 
REMARK    6  A    between atoms: C19_23  and  N4_24 
REMARK    7  A    between atoms: N4_24  and  S1_26 
ROOT
HETATM    1  C13 UNL     1      26.254   6.143  48.999  1.00  0.00    -0.045 C 
HETATM    2  C14 UNL     1      24.984   5.841  49.101  1.00  0.00     0.001 C 
HETATM    3  C15 UNL     1      24.334   4.513  49.051  1.00  0.00     0.154 C 
HETATM    4  N3  UNL     1      25.065   3.634  49.916  1.00  0.00    -0.345 N 
HETATM    5  C16 UNL     1      24.397   2.715  50.758  1.00  0.00     0.243 C 
HETATM    6  O1  UNL     1      23.141   2.649  50.765  1.00  0.00    -0.268 OA
HETATM    7  C21 UNL     1      26.473   3.780  49.841  1.00  0.00     0.131 C 
HETATM    8  C22 UNL     1      26.931   4.827  48.862  1.00  0.00     0.059 C 
ENDROOT
BRANCH   1   9
HETATM    9  C12 UNL     1      26.973   7.390  49.037  1.00  0.00     0.013 A 
HETATM   10  C9  UNL     1      28.020   7.911  48.336  1.00  0.00     0.056 A 
HETATM   11  N1  UNL     1      28.575   9.090  48.653  1.00  0.00    -0.245 NA
HETATM   12  C10 UNL     1      28.148   9.846  49.674  1.00  0.00     0.232 A 
HETATM   13  N2  UNL     1      27.119   9.368  50.387  1.00  0.00    -0.253 NA
HETATM   14  C11 UNL     1      26.538   8.193  50.101  1.00  0.00     0.132 A 
BRANCH  10  15
HETATM   15  C2  UNL     1      28.530   7.180  47.185  1.00  0.00     0.067 C 
HETATM   16  C1  UNL     1      28.596   8.253  46.041  1.00  0.00     0.021 C 
BRANCH  15  17
HETATM   17  C3  UNL     1      29.934   6.739  47.338  1.00  0.00    -0.049 A 
HETATM   18  C4  UNL     1      30.981   7.316  46.612  1.00  0.00     0.008 A 
HETATM   19  C5  UNL     1      32.319   7.006  46.682  1.00  0.00     0.001 A 
HETATM   20  C6  UNL     1      32.683   6.014  47.567  1.00  0.00     0.000 A 
HETATM   21  C7  UNL     1      31.737   5.379  48.333  1.00  0.00     0.001 A 
HETATM   22  C8  UNL     1      30.425   5.752  48.198  1.00  0.00     0.008 A 
ENDBRANCH  15  17
ENDBRANCH  10  15
ENDBRANCH   1   9
BRANCH   5  23
HETATM   23  C17 UNL     1      25.072   1.793  51.663  1.00  0.00     0.071 C 
HETATM   24  C18 UNL     1      24.284   1.110  52.459  1.00  0.00    -0.006 C 
BRANCH  24  25
HETATM   25  C19 UNL     1      24.739   0.117  53.461  1.00  0.00     0.129 C 
BRANCH  25  26
HETATM   26  N4  UNL     1      26.186   0.050  53.536  1.00  0.00    -0.262 NA
HETATM   27  C20 UNL     1      26.558   0.197  54.928  1.00  0.00     0.124 C 
BRANCH  26  28
HETATM   28  S1  UNL     1      26.817  -1.400  52.791  1.00  0.00    -0.096 SA
HETATM   29  H22 UNL     1      27.541  -1.014  51.633  1.00  0.00     0.119 HD
ENDBRANCH  26  28
ENDBRANCH  25  26
ENDBRANCH  24  25
ENDBRANCH   5  23
TORSDOF 7
ENDMDL
