MODEL 1
REMARK VINA RESULT:      -6.8      0.000      0.000
REMARK  7 active torsions:
REMARK  status: ('A' for Active; 'I' for Inactive)
REMARK    1  A    between atoms: N1_2  and  C2_3 
REMARK    2  A    between atoms: C2_3  and  N2_4 
REMARK    3  A    between atoms: N2_4  and  C3_5 
REMARK    4  A    between atoms: C3_5  and  N3_6 
REMARK    5  A    between atoms: C4_7  and  C5_8 
REMARK    6  A    between atoms: C8_13  and  N6_14 
REMARK    7  A    between atoms: N6_14  and  C9_15 
ROOT
HETATM    1  C5  UNL     1      24.565  -0.492  54.419  1.00  0.00     0.031 A 
HETATM    2  C6  UNL     1      24.065  -1.244  55.470  1.00  0.00     0.133 A 
HETATM    3  N4  UNL     1      22.769  -1.643  55.484  1.00  0.00    -0.253 NA
HETATM    4  C7  UNL     1      21.910  -1.337  54.498  1.00  0.00     0.234 A 
HETATM    5  N5  UNL     1      22.394  -0.606  53.474  1.00  0.00    -0.224 NA
HETATM    6  C8  UNL     1      23.683  -0.186  53.420  1.00  0.00     0.141 A 
ENDROOT
BRANCH   1   7
HETATM    7  C4  UNL     1      25.956  -0.148  54.609  1.00  0.00     0.064 C 
HETATM    8  C3  UNL     1      26.937  -0.815  53.963  1.00  0.00     0.096 C 
BRANCH   8   9
HETATM    9  N2  UNL     1      28.316  -0.513  54.115  1.00  0.00    -0.359 N 
HETATM   10  H5  UNL     1      28.643  -1.467  54.472  1.00  0.00     0.162 HD
BRANCH   9  11
HETATM   11  C2  UNL     1      29.395   0.422  53.990  1.00  0.00     0.270 C 
BRANCH  11  12
HETATM   12  N1  UNL     1      29.048   1.742  54.432  1.00  0.00    -0.293 NA
HETATM   13  C1  UNL     1      28.479   2.511  53.560  1.00  0.00     0.144 C 
ENDBRANCH  11  12
ENDBRANCH   9  11
ENDBRANCH   8   9
BRANCH   8  14
HETATM   14  N3  UNL     1      26.523  -1.903  53.108  1.00  0.00    -0.386 N 
HETATM   15  H6  UNL     1      26.212  -2.617  52.429  1.00  0.00     0.157 HD
HETATM   16  H7  UNL     1      26.286  -1.415  52.200  1.00  0.00     0.157 HD
ENDBRANCH   8  14
ENDBRANCH   1   7
BRANCH   6  17
HETATM   17  N6  UNL     1      24.153   0.579  52.326  1.00  0.00    -0.340 N 
HETATM   18  H11 UNL     1      24.708   0.283  51.518  1.00  0.00     0.167 HD
BRANCH  17  19
HETATM   19  C9  UNL     1      23.726   1.939  52.491  1.00  0.00     0.035 A 
HETATM   20  C10 UNL     1      24.396   2.962  53.106  1.00  0.00     0.029 A 
HETATM   21  C11 UNL     1      23.848   4.226  53.136  1.00  0.00     0.004 A 
HETATM   22  C12 UNL     1      22.616   4.540  52.562  1.00  0.00     0.019 A 
HETATM   23  C13 UNL     1      21.944   3.513  51.945  1.00  0.00     0.013 A 
HETATM   24 BR1  UNL     1      20.264   3.913  51.142  1.00  0.00    -0.051 Br
HETATM   25  C14 UNL     1      22.501   2.243  51.919  1.00  0.00     0.048 A 
ENDBRANCH  17  19
ENDBRANCH   6  17
TORSDOF 7
ENDMDL
MODEL 2
REMARK VINA RESULT:      -6.7      2.030      5.253
REMARK  7 active torsions:
REMARK  status: ('A' for Active; 'I' for Inactive)
REMARK    1  A    between atoms: N1_2  and  C2_3 
REMARK    2  A    between atoms: C2_3  and  N2_4 
REMARK    3  A    between atoms: N2_4  and  C3_5 
REMARK    4  A    between atoms: C3_5  and  N3_6 
REMARK    5  A    between atoms: C4_7  and  C5_8 
REMARK    6  A    between atoms: C8_13  and  N6_14 
REMARK    7  A    between atoms: N6_14  and  C9_15 
ROOT
HETATM    1  C5  UNL     1      27.112   1.302  52.850  1.00  0.00     0.031 A 
HETATM    2  C6  UNL     1      28.088   2.061  53.477  1.00  0.00     0.133 A 
HETATM    3  N4  UNL     1      28.792   1.560  54.522  1.00  0.00    -0.253 NA
HETATM    4  C7  UNL     1      28.587   0.323  55.003  1.00  0.00     0.234 A 
HETATM    5  N5  UNL     1      27.638  -0.416  54.395  1.00  0.00    -0.224 NA
HETATM    6  C8  UNL     1      26.910   0.044  53.347  1.00  0.00     0.141 A 
ENDROOT
BRANCH   1   7
HETATM    7  C4  UNL     1      26.463   2.028  51.781  1.00  0.00     0.064 C 
HETATM    8  C3  UNL     1      25.431   2.863  52.027  1.00  0.00     0.096 C 
BRANCH   8   9
HETATM    9  N2  UNL     1      24.764   3.599  51.013  1.00  0.00    -0.359 N 
HETATM   10  H5  UNL     1      25.072   3.014  50.172  1.00  0.00     0.162 HD
BRANCH   9  11
HETATM   11  C2  UNL     1      23.904   4.681  50.638  1.00  0.00     0.270 C 
BRANCH  11  12
HETATM   12  N1  UNL     1      23.264   5.305  51.761  1.00  0.00    -0.293 NA
HETATM   13  C1  UNL     1      22.113   4.824  52.110  1.00  0.00     0.144 C 
ENDBRANCH  11  12
ENDBRANCH   9  11
ENDBRANCH   8   9
BRANCH   8  14
HETATM   14  N3  UNL     1      24.994   2.961  53.401  1.00  0.00    -0.386 N 
HETATM   15  H6  UNL     1      24.727   2.951  54.399  1.00  0.00     0.157 HD
HETATM   16  H7  UNL     1      25.424   2.105  53.849  1.00  0.00     0.157 HD
ENDBRANCH   8  14
ENDBRANCH   1   7
BRANCH   6  17
HETATM   17  N6  UNL     1      25.924  -0.765  52.734  1.00  0.00    -0.340 N 
HETATM   18  H11 UNL     1      25.962  -1.273  51.846  1.00  0.00     0.167 HD
BRANCH  17  19
HETATM   19  C9  UNL     1      24.761  -0.795  53.573  1.00  0.00     0.035 A 
HETATM   20  C10 UNL     1      24.673  -1.212  54.875  1.00  0.00     0.029 A 
HETATM   21  C11 UNL     1      23.473  -1.132  55.546  1.00  0.00     0.004 A 
HETATM   22  C12 UNL     1      22.304  -0.638  54.967  1.00  0.00     0.019 A 
HETATM   23  C13 UNL     1      22.393  -0.220  53.661  1.00  0.00     0.013 A 
HETATM   24 BR1  UNL     1      20.815   0.470  52.846  1.00  0.00    -0.051 Br
HETATM   25  C14 UNL     1      23.603  -0.304  52.991  1.00  0.00     0.048 A 
ENDBRANCH  17  19
ENDBRANCH   6  17
TORSDOF 7
ENDMDL
MODEL 3
REMARK VINA RESULT:      -6.7      1.716      4.637
REMARK  7 active torsions:
REMARK  status: ('A' for Active; 'I' for Inactive)
REMARK    1  A    between atoms: N1_2  and  C2_3 
REMARK    2  A    between atoms: C2_3  and  N2_4 
REMARK    3  A    between atoms: N2_4  and  C3_5 
REMARK    4  A    between atoms: C3_5  and  N3_6 
REMARK    5  A    between atoms: C4_7  and  C5_8 
REMARK    6  A    between atoms: C8_13  and  N6_14 
REMARK    7  A    between atoms: N6_14  and  C9_15 
ROOT
HETATM    1  C5  UNL     1      26.556  -0.609  53.711  1.00  0.00     0.031 A 
HETATM    2  C6  UNL     1      27.209  -1.798  53.421  1.00  0.00     0.133 A 
HETATM    3  N4  UNL     1      28.560  -1.839  53.315  1.00  0.00    -0.253 NA
HETATM    4  C7  UNL     1      29.331  -0.751  53.480  1.00  0.00     0.234 A 
HETATM    5  N5  UNL     1      28.698   0.405  53.761  1.00  0.00    -0.224 NA
HETATM    6  C8  UNL     1      27.349   0.493  53.877  1.00  0.00     0.141 A 
ENDROOT
BRANCH   1   7
HETATM    7  C4  UNL     1      25.121  -0.774  53.753  1.00  0.00     0.064 C 
HETATM    8  C3  UNL     1      24.480  -1.040  54.911  1.00  0.00     0.096 C 
BRANCH   8   9
HETATM    9  N2  UNL     1      23.073  -1.207  55.004  1.00  0.00    -0.359 N 
HETATM   10  H5  UNL     1      23.062  -2.042  55.672  1.00  0.00     0.162 HD
BRANCH   9  11
HETATM   11  C2  UNL     1      21.754  -0.774  54.650  1.00  0.00     0.270 C 
BRANCH  11  12
HETATM   12  N1  UNL     1      21.751   0.396  53.820  1.00  0.00    -0.293 NA
HETATM   13  C1  UNL     1      21.666   0.197  52.543  1.00  0.00     0.144 C 
ENDBRANCH  11  12
ENDBRANCH   9  11
ENDBRANCH   8   9
BRANCH   8  14
HETATM   14  N3  UNL     1      25.307  -1.184  56.088  1.00  0.00    -0.386 N 
HETATM   15  H6  UNL     1      25.952  -1.344  56.878  1.00  0.00     0.157 HD
HETATM   16  H7  UNL     1      26.077  -1.829  55.759  1.00  0.00     0.157 HD
ENDBRANCH   8  14
ENDBRANCH   1   7
BRANCH   6  17
HETATM   17  N6  UNL     1      26.723   1.726  54.176  1.00  0.00    -0.340 N 
HETATM   18  H11 UNL     1      26.629   2.204  55.076  1.00  0.00     0.167 HD
BRANCH  17  19
HETATM   19  C9  UNL     1      26.187   2.280  52.966  1.00  0.00     0.035 A 
HETATM   20  C10 UNL     1      26.783   2.350  51.736  1.00  0.00     0.029 A 
HETATM   21  C11 UNL     1      26.098   2.882  50.665  1.00  0.00     0.004 A 
HETATM   22  C12 UNL     1      24.795   3.371  50.757  1.00  0.00     0.019 A 
HETATM   23  C13 UNL     1      24.197   3.301  51.992  1.00  0.00     0.013 A 
HETATM   24 BR1  UNL     1      22.413   3.951  52.148  1.00  0.00    -0.051 Br
HETATM   25  C14 UNL     1      24.892   2.764  53.065  1.00  0.00     0.048 A 
ENDBRANCH  17  19
ENDBRANCH   6  17
TORSDOF 7
ENDMDL
MODEL 4
REMARK VINA RESULT:      -6.6      2.743      4.715
REMARK  7 active torsions:
REMARK  status: ('A' for Active; 'I' for Inactive)
REMARK    1  A    between atoms: N1_2  and  C2_3 
REMARK    2  A    between atoms: C2_3  and  N2_4 
REMARK    3  A    between atoms: N2_4  and  C3_5 
REMARK    4  A    between atoms: C3_5  and  N3_6 
REMARK    5  A    between atoms: C4_7  and  C5_8 
REMARK    6  A    between atoms: C8_13  and  N6_14 
REMARK    7  A    between atoms: N6_14  and  C9_15 
ROOT
HETATM    1  C5  UNL     1      26.000   2.458  51.432  1.00  0.00     0.031 A 
HETATM    2  C6  UNL     1      26.691   2.993  50.356  1.00  0.00     0.133 A 
HETATM    3  N4  UNL     1      26.259   4.126  49.749  1.00  0.00    -0.253 NA
HETATM    4  C7  UNL     1      25.157   4.783  50.146  1.00  0.00     0.234 A 
HETATM    5  N5  UNL     1      24.484   4.263  51.192  1.00  0.00    -0.224 NA
HETATM    6  C8  UNL     1      24.879   3.132  51.829  1.00  0.00     0.141 A 
ENDROOT
BRANCH   1   7
HETATM    7  C4  UNL     1      26.608   1.238  51.915  1.00  0.00     0.064 C 
HETATM    8  C3  UNL     1      27.388   1.234  53.017  1.00  0.00     0.096 C 
BRANCH   8   9
HETATM    9  N2  UNL     1      28.004   0.063  53.533  1.00  0.00    -0.359 N 
HETATM   10  H5  UNL     1      27.447  -0.014  54.443  1.00  0.00     0.162 HD
BRANCH   9  11
HETATM   11  C2  UNL     1      28.953  -0.999  53.381  1.00  0.00     0.270 C 
BRANCH  11  12
HETATM   12  N1  UNL     1      28.337  -2.290  53.268  1.00  0.00    -0.293 NA
HETATM   13  C1  UNL     1      27.245  -2.349  52.574  1.00  0.00     0.144 C 
ENDBRANCH  11  12
ENDBRANCH   9  11
ENDBRANCH   8   9
BRANCH   8  14
HETATM   14  N3  UNL     1      27.608   2.511  53.658  1.00  0.00    -0.386 N 
HETATM   15  H6  UNL     1      27.758   3.378  54.198  1.00  0.00     0.157 HD
HETATM   16  H7  UNL     1      27.589   2.266  54.687  1.00  0.00     0.157 HD
ENDBRANCH   8  14
ENDBRANCH   1   7
BRANCH   6  17
HETATM   17  N6  UNL     1      24.146   2.621  52.925  1.00  0.00    -0.340 N 
HETATM   18  H11 UNL     1      24.267   2.798  53.926  1.00  0.00     0.167 HD
BRANCH  17  19
HETATM   19  C9  UNL     1      23.121   1.746  52.431  1.00  0.00     0.035 A 
HETATM   20  C10 UNL     1      22.563   1.726  51.181  1.00  0.00     0.029 A 
HETATM   21  C11 UNL     1      21.612   0.781  50.864  1.00  0.00     0.004 A 
HETATM   22  C12 UNL     1      21.165  -0.187  51.764  1.00  0.00     0.019 A 
HETATM   23  C13 UNL     1      21.726  -0.166  53.019  1.00  0.00     0.013 A 
HETATM   24 BR1  UNL     1      21.145  -1.482  54.267  1.00  0.00    -0.051 Br
HETATM   25  C14 UNL     1      22.682   0.788  53.331  1.00  0.00     0.048 A 
ENDBRANCH  17  19
ENDBRANCH   6  17
TORSDOF 7
ENDMDL
MODEL 5
REMARK VINA RESULT:      -6.6      4.505      6.372
REMARK  7 active torsions:
REMARK  status: ('A' for Active; 'I' for Inactive)
REMARK    1  A    between atoms: N1_2  and  C2_3 
REMARK    2  A    between atoms: C2_3  and  N2_4 
REMARK    3  A    between atoms: N2_4  and  C3_5 
REMARK    4  A    between atoms: C3_5  and  N3_6 
REMARK    5  A    between atoms: C4_7  and  C5_8 
REMARK    6  A    between atoms: C8_13  and  N6_14 
REMARK    7  A    between atoms: N6_14  and  C9_15 
ROOT
HETATM    1  C5  UNL     1      24.790   3.102  50.348  1.00  0.00     0.031 A 
HETATM    2  C6  UNL     1      23.686   3.130  49.510  1.00  0.00     0.133 A 
HETATM    3  N4  UNL     1      22.437   2.938  50.002  1.00  0.00    -0.253 NA
HETATM    4  C7  UNL     1      22.201   2.713  51.305  1.00  0.00     0.234 A 
HETATM    5  N5  UNL     1      23.274   2.685  52.121  1.00  0.00    -0.224 NA
HETATM    6  C8  UNL     1      24.540   2.872  51.672  1.00  0.00     0.141 A 
ENDROOT
BRANCH   1   7
HETATM    7  C4  UNL     1      26.026   3.300  49.624  1.00  0.00     0.064 C 
HETATM    8  C3  UNL     1      26.595   4.521  49.533  1.00  0.00     0.096 C 
BRANCH   8   9
HETATM    9  N2  UNL     1      27.809   4.766  48.838  1.00  0.00    -0.359 N 
HETATM   10  H5  UNL     1      28.139   3.753  48.744  1.00  0.00     0.162 HD
BRANCH   9  11
HETATM   11  C2  UNL     1      28.714   5.693  48.227  1.00  0.00     0.270 C 
BRANCH  11  12
HETATM   12  N1  UNL     1      30.033   5.156  48.049  1.00  0.00    -0.293 NA
HETATM   13  C1  UNL     1      31.011   6.003  48.092  1.00  0.00     0.144 C 
ENDBRANCH  11  12
ENDBRANCH   9  11
ENDBRANCH   8   9
BRANCH   8  14
HETATM   14  N3  UNL     1      25.888   5.612  50.163  1.00  0.00    -0.386 N 
HETATM   15  H6  UNL     1      25.347   6.329  50.673  1.00  0.00     0.157 HD
HETATM   16  H7  UNL     1      25.368   5.135  50.950  1.00  0.00     0.157 HD
ENDBRANCH   8  14
ENDBRANCH   1   7
BRANCH   6  17
HETATM   17  N6  UNL     1      25.640   2.838  52.562  1.00  0.00    -0.340 N 
HETATM   18  H11 UNL     1      26.118   3.611  53.033  1.00  0.00     0.167 HD
BRANCH  17  19
HETATM   19  C9  UNL     1      26.046   1.474  52.747  1.00  0.00     0.035 A 
HETATM   20  C10 UNL     1      25.274   0.347  52.658  1.00  0.00     0.029 A 
HETATM   21  C11 UNL     1      25.844  -0.896  52.825  1.00  0.00     0.004 A 
HETATM   22  C12 UNL     1      27.201  -1.086  53.090  1.00  0.00     0.019 A 
HETATM   23  C13 UNL     1      27.975   0.045  53.179  1.00  0.00     0.013 A 
HETATM   24 BR1  UNL     1      29.834  -0.182  53.528  1.00  0.00    -0.051 Br
HETATM   25  C14 UNL     1      27.395   1.293  53.010  1.00  0.00     0.048 A 
ENDBRANCH  17  19
ENDBRANCH   6  17
TORSDOF 7
ENDMDL
MODEL 6
REMARK VINA RESULT:      -6.6      2.045      4.203
REMARK  7 active torsions:
REMARK  status: ('A' for Active; 'I' for Inactive)
REMARK    1  A    between atoms: N1_2  and  C2_3 
REMARK    2  A    between atoms: C2_3  and  N2_4 
REMARK    3  A    between atoms: N2_4  and  C3_5 
REMARK    4  A    between atoms: C3_5  and  N3_6 
REMARK    5  A    between atoms: C4_7  and  C5_8 
REMARK    6  A    between atoms: C8_13  and  N6_14 
REMARK    7  A    between atoms: N6_14  and  C9_15 
ROOT
HETATM    1  C5  UNL     1      24.307   2.802  53.013  1.00  0.00     0.031 A 
HETATM    2  C6  UNL     1      24.040   4.154  53.163  1.00  0.00     0.133 A 
HETATM    3  N4  UNL     1      23.065   4.754  52.436  1.00  0.00    -0.253 NA
HETATM    4  C7  UNL     1      22.316   4.086  51.544  1.00  0.00     0.234 A 
HETATM    5  N5  UNL     1      22.575   2.771  51.395  1.00  0.00    -0.224 NA
HETATM    6  C8  UNL     1      23.540   2.131  52.102  1.00  0.00     0.141 A 
ENDROOT
BRANCH   1   7
HETATM    7  C4  UNL     1      25.397   2.366  53.856  1.00  0.00     0.064 C 
HETATM    8  C3  UNL     1      26.658   2.279  53.380  1.00  0.00     0.096 C 
BRANCH   8   9
HETATM    9  N2  UNL     1      27.762   1.860  54.169  1.00  0.00    -0.359 N 
HETATM   10  H5  UNL     1      27.649   2.557  54.973  1.00  0.00     0.162 HD
BRANCH   9  11
HETATM   11  C2  UNL     1      28.866   0.970  54.370  1.00  0.00     0.270 C 
BRANCH  11  12
HETATM   12  N1  UNL     1      28.474  -0.410  54.418  1.00  0.00    -0.293 NA
HETATM   13  C1  UNL     1      28.783  -1.133  53.389  1.00  0.00     0.144 C 
ENDBRANCH  11  12
ENDBRANCH   9  11
ENDBRANCH   8   9
BRANCH   8  14
HETATM   14  N3  UNL     1      26.847   2.608  51.986  1.00  0.00    -0.386 N 
HETATM   15  H6  UNL     1      26.939   2.762  50.969  1.00  0.00     0.157 HD
HETATM   16  H7  UNL     1      26.403   1.789  51.487  1.00  0.00     0.157 HD
ENDBRANCH   8  14
ENDBRANCH   1   7
BRANCH   6  17
HETATM   17  N6  UNL     1      23.778   0.748  51.918  1.00  0.00    -0.340 N 
HETATM   18  H11 UNL     1      24.392   0.279  51.246  1.00  0.00     0.167 HD
BRANCH  17  19
HETATM   19  C9  UNL     1      22.993   0.011  52.866  1.00  0.00     0.035 A 
HETATM   20  C10 UNL     1      23.419  -0.615  54.007  1.00  0.00     0.029 A 
HETATM   21  C11 UNL     1      22.511  -1.245  54.830  1.00  0.00     0.004 A 
HETATM   22  C12 UNL     1      21.142  -1.288  54.567  1.00  0.00     0.019 A 
HETATM   23  C13 UNL     1      20.714  -0.659  53.423  1.00  0.00     0.013 A 
HETATM   24 BR1  UNL     1      18.848  -0.689  53.043  1.00  0.00    -0.051 Br
HETATM   25  C14 UNL     1      21.633  -0.027  52.599  1.00  0.00     0.048 A 
ENDBRANCH  17  19
ENDBRANCH   6  17
TORSDOF 7
ENDMDL
MODEL 7
REMARK VINA RESULT:      -6.6      2.492      5.067
REMARK  7 active torsions:
REMARK  status: ('A' for Active; 'I' for Inactive)
REMARK    1  A    between atoms: N1_2  and  C2_3 
REMARK    2  A    between atoms: C2_3  and  N2_4 
REMARK    3  A    between atoms: N2_4  and  C3_5 
REMARK    4  A    between atoms: C3_5  and  N3_6 
REMARK    5  A    between atoms: C4_7  and  C5_8 
REMARK    6  A    between atoms: C8_13  and  N6_14 
REMARK    7  A    between atoms: N6_14  and  C9_15 
ROOT
HETATM    1  C5  UNL     1      26.520   0.749  53.061  1.00  0.00     0.031 A 
HETATM    2  C6  UNL     1      27.129   0.810  54.305  1.00  0.00     0.133 A 
HETATM    3  N4  UNL     1      28.156   1.666  54.533  1.00  0.00    -0.253 NA
HETATM    4  C7  UNL     1      28.635   2.487  53.585  1.00  0.00     0.234 A 
HETATM    5  N5  UNL     1      28.045   2.429  52.375  1.00  0.00    -0.224 NA
HETATM    6  C8  UNL     1      27.015   1.589  52.102  1.00  0.00     0.141 A 
ENDROOT
BRANCH   1   7
HETATM    7  C4  UNL     1      25.470  -0.243  53.019  1.00  0.00     0.064 C 
HETATM    8  C3  UNL     1      24.176   0.100  53.199  1.00  0.00     0.096 C 
BRANCH   8   9
HETATM    9  N2  UNL     1      23.109  -0.836  53.163  1.00  0.00    -0.359 N 
HETATM   10  H5  UNL     1      23.321  -1.274  52.210  1.00  0.00     0.162 HD
BRANCH   9  11
HETATM   11  C2  UNL     1      21.970  -1.433  53.796  1.00  0.00     0.270 C 
BRANCH  11  12
HETATM   12  N1  UNL     1      21.310  -0.549  54.713  1.00  0.00    -0.293 NA
HETATM   13  C1  UNL     1      20.565   0.373  54.190  1.00  0.00     0.144 C 
ENDBRANCH  11  12
ENDBRANCH   9  11
ENDBRANCH   8   9
BRANCH   8  14
HETATM   14  N3  UNL     1      23.909   1.494  53.469  1.00  0.00    -0.386 N 
HETATM   15  H6  UNL     1      23.629   2.465  53.679  1.00  0.00     0.157 HD
HETATM   16  H7  UNL     1      22.883   1.493  53.725  1.00  0.00     0.157 HD
ENDBRANCH   8  14
ENDBRANCH   1   7
BRANCH   6  17
HETATM   17  N6  UNL     1      26.420   1.560  50.818  1.00  0.00    -0.340 N 
HETATM   18  H11 UNL     1      26.191   0.756  50.227  1.00  0.00     0.167 HD
BRANCH  17  19
HETATM   19  C9  UNL     1      26.150   2.906  50.401  1.00  0.00     0.035 A 
HETATM   20  C10 UNL     1      26.837   3.657  49.486  1.00  0.00     0.029 A 
HETATM   21  C11 UNL     1      26.407   4.928  49.174  1.00  0.00     0.004 A 
HETATM   22  C12 UNL     1      25.282   5.519  49.749  1.00  0.00     0.019 A 
HETATM   23  C13 UNL     1      24.593   4.764  50.668  1.00  0.00     0.013 A 
HETATM   24 BR1  UNL     1      23.045   5.538  51.463  1.00  0.00    -0.051 Br
HETATM   25  C14 UNL     1      25.031   3.486  50.978  1.00  0.00     0.048 A 
ENDBRANCH  17  19
ENDBRANCH   6  17
TORSDOF 7
ENDMDL
MODEL 8
REMARK VINA RESULT:      -6.5      3.863      6.459
REMARK  7 active torsions:
REMARK  status: ('A' for Active; 'I' for Inactive)
REMARK    1  A    between atoms: N1_2  and  C2_3 
REMARK    2  A    between atoms: C2_3  and  N2_4 
REMARK    3  A    between atoms: N2_4  and  C3_5 
REMARK    4  A    between atoms: C3_5  and  N3_6 
REMARK    5  A    between atoms: C4_7  and  C5_8 
REMARK    6  A    between atoms: C8_13  and  N6_14 
REMARK    7  A    between atoms: N6_14  and  C9_15 
ROOT
HETATM    1  C5  UNL     1      25.021   2.680  52.257  1.00  0.00     0.031 A 
HETATM    2  C6  UNL     1      25.432   2.421  53.555  1.00  0.00     0.133 A 
HETATM    3  N4  UNL     1      26.743   2.228  53.842  1.00  0.00    -0.253 NA
HETATM    4  C7  UNL     1      27.702   2.275  52.903  1.00  0.00     0.234 A 
HETATM    5  N5  UNL     1      27.304   2.527  51.640  1.00  0.00    -0.224 NA
HETATM    6  C8  UNL     1      26.004   2.726  51.308  1.00  0.00     0.141 A 
ENDROOT
BRANCH   1   7
HETATM    7  C4  UNL     1      23.586   2.827  52.161  1.00  0.00     0.064 C 
HETATM    8  C3  UNL     1      22.985   4.009  52.414  1.00  0.00     0.096 C 
BRANCH   8   9
HETATM    9  N2  UNL     1      21.581   4.205  52.330  1.00  0.00    -0.359 N 
HETATM   10  H5  UNL     1      21.409   4.515  53.339  1.00  0.00     0.162 HD
BRANCH   9  11
HETATM   11  C2  UNL     1      20.379   4.197  51.550  1.00  0.00     0.270 C 
BRANCH  11  12
HETATM   12  N1  UNL     1      19.393   3.281  52.046  1.00  0.00    -0.293 NA
HETATM   13  C1  UNL     1      19.810   2.094  52.352  1.00  0.00     0.144 C 
ENDBRANCH  11  12
ENDBRANCH   9  11
ENDBRANCH   8   9
BRANCH   8  14
HETATM   14  N3  UNL     1      23.845   5.098  52.817  1.00  0.00    -0.386 N 
HETATM   15  H6  UNL     1      24.481   5.826  53.181  1.00  0.00     0.157 HD
HETATM   16  H7  UNL     1      24.259   4.750  53.726  1.00  0.00     0.157 HD
ENDBRANCH   8  14
ENDBRANCH   1   7
BRANCH   6  17
HETATM   17  N6  UNL     1      25.627   2.991  49.970  1.00  0.00    -0.340 N 
HETATM   18  H11 UNL     1      25.038   2.439  49.340  1.00  0.00     0.167 HD
BRANCH  17  19
HETATM   19  C9  UNL     1      26.218   4.231  49.557  1.00  0.00     0.035 A 
HETATM   20  C10 UNL     1      27.370   4.418  48.841  1.00  0.00     0.029 A 
HETATM   21  C11 UNL     1      27.770   5.690  48.494  1.00  0.00     0.004 A 
HETATM   22  C12 UNL     1      27.054   6.837  48.838  1.00  0.00     0.019 A 
HETATM   23  C13 UNL     1      25.898   6.650  49.557  1.00  0.00     0.013 A 
HETATM   24 BR1  UNL     1      24.893   8.196  50.031  1.00  0.00    -0.051 Br
HETATM   25  C14 UNL     1      25.502   5.367  49.903  1.00  0.00     0.048 A 
ENDBRANCH  17  19
ENDBRANCH   6  17
TORSDOF 7
ENDMDL
MODEL 9
REMARK VINA RESULT:      -6.5      1.655      1.830
REMARK  7 active torsions:
REMARK  status: ('A' for Active; 'I' for Inactive)
REMARK    1  A    between atoms: N1_2  and  C2_3 
REMARK    2  A    between atoms: C2_3  and  N2_4 
REMARK    3  A    between atoms: N2_4  and  C3_5 
REMARK    4  A    between atoms: C3_5  and  N3_6 
REMARK    5  A    between atoms: C4_7  and  C5_8 
REMARK    6  A    between atoms: C8_13  and  N6_14 
REMARK    7  A    between atoms: N6_14  and  C9_15 
ROOT
HETATM    1  C5  UNL     1      24.228   0.189  53.367  1.00  0.00     0.031 A 
HETATM    2  C6  UNL     1      23.328  -0.617  54.046  1.00  0.00     0.133 A 
HETATM    3  N4  UNL     1      22.059  -0.773  53.595  1.00  0.00    -0.253 NA
HETATM    4  C7  UNL     1      21.608  -0.166  52.485  1.00  0.00     0.234 A 
HETATM    5  N5  UNL     1      22.481   0.619  51.824  1.00  0.00    -0.224 NA
HETATM    6  C8  UNL     1      23.760   0.804  52.239  1.00  0.00     0.141 A 
ENDROOT
BRANCH   1   7
HETATM    7  C4  UNL     1      25.514   0.243  54.026  1.00  0.00     0.064 C 
HETATM    8  C3  UNL     1      26.541  -0.534  53.620  1.00  0.00     0.096 C 
BRANCH   8   9
HETATM    9  N2  UNL     1      27.822  -0.516  54.231  1.00  0.00    -0.359 N 
HETATM   10  H5  UNL     1      27.908  -1.562  54.438  1.00  0.00     0.162 HD
BRANCH   9  11
HETATM   11  C2  UNL     1      28.981   0.218  54.644  1.00  0.00     0.270 C 
BRANCH  11  12
HETATM   12  N1  UNL     1      28.738   1.626  54.772  1.00  0.00    -0.293 NA
HETATM   13  C1  UNL     1      28.744   2.314  53.675  1.00  0.00     0.144 C 
ENDBRANCH  11  12
ENDBRANCH   9  11
ENDBRANCH   8   9
BRANCH   8  14
HETATM   14  N3  UNL     1      26.273  -1.438  52.525  1.00  0.00    -0.386 N 
HETATM   15  H6  UNL     1      26.101  -2.013  51.684  1.00  0.00     0.157 HD
HETATM   16  H7  UNL     1      26.445  -0.836  51.672  1.00  0.00     0.157 HD
ENDBRANCH   8  14
ENDBRANCH   1   7
BRANCH   6  17
HETATM   17  N6  UNL     1      24.647   1.635  51.515  1.00  0.00    -0.340 N 
HETATM   18  H11 UNL     1      25.517   1.392  51.034  1.00  0.00     0.167 HD
BRANCH  17  19
HETATM   19  C9  UNL     1      24.144   2.979  51.533  1.00  0.00     0.035 A 
HETATM   20  C10 UNL     1      23.807   3.737  52.622  1.00  0.00     0.029 A 
HETATM   21  C11 UNL     1      23.377   5.035  52.454  1.00  0.00     0.004 A 
HETATM   22  C12 UNL     1      23.257   5.646  51.205  1.00  0.00     0.019 A 
HETATM   23  C13 UNL     1      23.595   4.884  50.112  1.00  0.00     0.013 A 
HETATM   24 BR1  UNL     1      23.454   5.694  48.394  1.00  0.00    -0.051 Br
HETATM   25  C14 UNL     1      24.028   3.579  50.288  1.00  0.00     0.048 A 
ENDBRANCH  17  19
ENDBRANCH   6  17
TORSDOF 7
ENDMDL
