MODEL 1
REMARK VINA RESULT:      -7.9      0.000      0.000
REMARK  9 active torsions:
REMARK  status: ('A' for Active; 'I' for Inactive)
REMARK    1  A    between atoms: N1_1  and  C1_2 
REMARK    2  A    between atoms: C2_3  and  C3_4 
REMARK    3  A    between atoms: C3_4  and  C4_5 
REMARK    4  A    between atoms: C10_14  and  C11_15 
REMARK    5  A    between atoms: C11_15  and  C12_16 
REMARK    6  A    between atoms: C12_16  and  C13_17 
REMARK    7  A    between atoms: C15_19  and  O1_20 
REMARK    8  A    between atoms: O1_20  and  C16_21 
REMARK    9  A    between atoms: S1_24  and  C18_25 
ROOT
HETATM    1  C1  UNL     1      24.525   5.367  49.334  1.00  0.00     0.052 C 
HETATM    2  C2  UNL     1      25.811   5.382  49.421  1.00  0.00     0.061 C 
HETATM    3  N2  UNL     1      26.554   4.373  50.141  1.00  0.00    -0.340 N 
HETATM    4  C5  UNL     1      26.399   2.952  50.074  1.00  0.00     0.267 C 
HETATM    5  N3  UNL     1      25.291   2.861  49.790  1.00  0.00    -0.442 NA
HETATM    6  C6  UNL     1      24.018   2.656  49.461  1.00  0.00     0.240 C 
HETATM    7  C7  UNL     1      23.048   3.323  50.486  1.00  0.00     0.041 A 
HETATM    8  C8  UNL     1      23.788   3.850  51.650  1.00  0.00    -0.006 A 
HETATM    9  C9  UNL     1      23.480   3.109  52.736  1.00  0.00     0.004 A 
HETATM   10  C10 UNL     1      22.532   2.036  52.454  1.00  0.00    -0.061 A 
HETATM   11  C19 UNL     1      22.304   2.191  51.158  1.00  0.00     0.001 A 
HETATM   12  C20 UNL     1      22.192   4.338  49.802  1.00  0.00    -0.004 C 
HETATM   13  C21 UNL     1      23.131   5.091  49.403  1.00  0.00     0.028 C 
HETATM   14  H5  UNL     1      27.259   4.818  50.757  1.00  0.00     0.167 HD
ENDROOT
BRANCH  10  15
HETATM   15  C11 UNL     1      21.893   0.968  53.202  1.00  0.00     0.039 C 
BRANCH  15  16
HETATM   16  C12 UNL     1      22.676  -0.359  52.976  1.00  0.00     0.022 C 
BRANCH  16  17
HETATM   17  C13 UNL     1      23.491  -0.537  54.114  1.00  0.00     0.021 A 
HETATM   18  C14 UNL     1      25.009  -0.510  54.179  1.00  0.00     0.112 A 
HETATM   19  C15 UNL     1      26.546  -0.357  53.517  1.00  0.00     0.135 A 
HETATM   20  C18 UNL     1      24.464  -0.410  53.518  1.00  0.00    -0.030 A 
HETATM   21  S1  UNL     1      25.582  -0.269  52.867  1.00  0.00    -0.175 SA
HETATM   22  C17 UNL     1      26.961  -0.104  52.104  1.00  0.00     0.099 A 
BRANCH  19  23
HETATM   23  O1  UNL     1      27.569  -0.500  54.530  1.00  0.00    -0.304 OA
BRANCH  23  24
HETATM   24  C16 UNL     1      28.804  -0.093  54.630  1.00  0.00     0.399 C 
HETATM   25  O2  UNL     1      28.342   0.941  55.150  1.00  0.00    -0.276 OA
ENDBRANCH  23  24
ENDBRANCH  19  23
ENDBRANCH  16  17
ENDBRANCH  15  16
ENDBRANCH  10  15
BRANCH   1  26
HETATM   26  N1  UNL     1      24.514   6.548  48.538  1.00  0.00    -0.397 N 
HETATM   27  H1  UNL     1      23.993   7.439  48.385  1.00  0.00     0.156 HD
HETATM   28  H2  UNL     1      24.618   7.392  47.876  1.00  0.00     0.156 HD
ENDBRANCH   1  26
BRANCH   2  29
HETATM   29  C3  UNL     1      26.508   6.440  48.756  1.00  0.00     0.044 C 
BRANCH  29  30
HETATM   30  C4  UNL     1      27.202   7.266  48.066  1.00  0.00     0.220 C 
HETATM   31 CL1  UNL     1      27.962   8.119  46.750  1.00  0.00    -0.230 Cl
ENDBRANCH  29  30
ENDBRANCH   2  29
TORSDOF 9
ENDMDL
MODEL 2
REMARK VINA RESULT:      -7.6      5.171      7.949
REMARK  9 active torsions:
REMARK  status: ('A' for Active; 'I' for Inactive)
REMARK    1  A    between atoms: N1_1  and  C1_2 
REMARK    2  A    between atoms: C2_3  and  C3_4 
REMARK    3  A    between atoms: C3_4  and  C4_5 
REMARK    4  A    between atoms: C10_14  and  C11_15 
REMARK    5  A    between atoms: C11_15  and  C12_16 
REMARK    6  A    between atoms: C12_16  and  C13_17 
REMARK    7  A    between atoms: C15_19  and  O1_20 
REMARK    8  A    between atoms: O1_20  and  C16_21 
REMARK    9  A    between atoms: S1_24  and  C18_25 
ROOT
HETATM    1  C1  UNL     1      22.922   1.665  50.945  1.00  0.00     0.052 C 
HETATM    2  C2  UNL     1      23.213   1.288  52.144  1.00  0.00     0.061 C 
HETATM    3  N2  UNL     1      24.258   1.913  52.922  1.00  0.00    -0.340 N 
HETATM    4  C5  UNL     1      24.497   3.311  53.113  1.00  0.00     0.267 C 
HETATM    5  N3  UNL     1      24.062   3.746  52.144  1.00  0.00    -0.442 NA
HETATM    6  C6  UNL     1      23.585   4.341  51.054  1.00  0.00     0.240 C 
HETATM    7  C7  UNL     1      24.254   3.786  49.758  1.00  0.00     0.041 A 
HETATM    8  C8  UNL     1      25.371   2.877  50.087  1.00  0.00    -0.006 A 
HETATM    9  C9  UNL     1      26.532   3.464  49.728  1.00  0.00     0.004 A 
HETATM   10  C10 UNL     1      26.353   4.785  49.133  1.00  0.00    -0.061 A 
HETATM   11  C19 UNL     1      25.037   4.935  49.164  1.00  0.00     0.001 A 
HETATM   12  C20 UNL     1      23.223   3.180  48.864  1.00  0.00    -0.004 C 
HETATM   13  C21 UNL     1      22.822   2.287  49.671  1.00  0.00     0.028 C 
HETATM   14  H5  UNL     1      24.863   1.192  53.355  1.00  0.00     0.167 HD
ENDROOT
BRANCH  10  15
HETATM   15  C11 UNL     1      27.212   5.831  48.607  1.00  0.00     0.039 C 
BRANCH  15  16
HETATM   16  C12 UNL     1      28.602   5.226  48.252  1.00  0.00     0.022 C 
BRANCH  16  17
HETATM   17  C13 UNL     1      29.500   6.313  48.180  1.00  0.00     0.021 A 
HETATM   18  C14 UNL     1      30.998   6.262  47.929  1.00  0.00     0.112 A 
HETATM   19  C15 UNL     1      32.453   5.476  47.635  1.00  0.00     0.135 A 
HETATM   20  C18 UNL     1      30.406   5.637  47.984  1.00  0.00    -0.030 A 
HETATM   21  S1  UNL     1      31.451   4.894  47.761  1.00  0.00    -0.175 SA
HETATM   22  C17 UNL     1      32.743   4.017  47.488  1.00  0.00     0.099 A 
BRANCH  19  23
HETATM   23  O1  UNL     1      33.543   6.420  47.515  1.00  0.00    -0.304 OA
BRANCH  23  24
HETATM   24  C16 UNL     1      34.596   6.682  48.240  1.00  0.00     0.399 C 
HETATM   25  O2  UNL     1      34.054   7.774  48.497  1.00  0.00    -0.276 OA
ENDBRANCH  23  24
ENDBRANCH  19  23
ENDBRANCH  16  17
ENDBRANCH  15  16
ENDBRANCH  10  15
BRANCH   1  26
HETATM   26  N1  UNL     1      21.884   0.694  50.840  1.00  0.00    -0.397 N 
HETATM   27  H1  UNL     1      20.846   0.591  50.815  1.00  0.00     0.156 HD
HETATM   28  H2  UNL     1      21.198  -0.132  50.750  1.00  0.00     0.156 HD
ENDBRANCH   1  26
BRANCH   2  29
HETATM   29  C3  UNL     1      22.447   0.221  52.709  1.00  0.00     0.044 C 
BRANCH  29  30
HETATM   30  C4  UNL     1      21.867  -0.726  53.347  1.00  0.00     0.220 C 
HETATM   31 CL1  UNL     1      21.334  -1.819  54.595  1.00  0.00    -0.230 Cl
ENDBRANCH  29  30
ENDBRANCH   2  29
TORSDOF 9
ENDMDL
MODEL 3
REMARK VINA RESULT:      -7.6      1.925      2.320
REMARK  9 active torsions:
REMARK  status: ('A' for Active; 'I' for Inactive)
REMARK    1  A    between atoms: N1_1  and  C1_2 
REMARK    2  A    between atoms: C2_3  and  C3_4 
REMARK    3  A    between atoms: C3_4  and  C4_5 
REMARK    4  A    between atoms: C10_14  and  C11_15 
REMARK    5  A    between atoms: C11_15  and  C12_16 
REMARK    6  A    between atoms: C12_16  and  C13_17 
REMARK    7  A    between atoms: C15_19  and  O1_20 
REMARK    8  A    between atoms: O1_20  and  C16_21 
REMARK    9  A    between atoms: S1_24  and  C18_25 
ROOT
HETATM    1  C1  UNL     1      22.430   3.913  48.493  1.00  0.00     0.052 C 
HETATM    2  C2  UNL     1      22.833   5.111  48.748  1.00  0.00     0.061 C 
HETATM    3  N2  UNL     1      23.266   5.522  50.064  1.00  0.00    -0.340 N 
HETATM    4  C5  UNL     1      24.163   4.843  50.947  1.00  0.00     0.267 C 
HETATM    5  N3  UNL     1      24.008   3.751  50.627  1.00  0.00    -0.442 NA
HETATM    6  C6  UNL     1      23.894   2.460  50.327  1.00  0.00     0.240 C 
HETATM    7  C7  UNL     1      22.420   1.967  50.467  1.00  0.00     0.041 A 
HETATM    8  C8  UNL     1      21.568   3.011  51.071  1.00  0.00    -0.006 A 
HETATM    9  C9  UNL     1      21.197   2.612  52.306  1.00  0.00     0.004 A 
HETATM   10  C10 UNL     1      21.727   1.302  52.674  1.00  0.00    -0.061 A 
HETATM   11  C19 UNL     1      22.419   0.962  51.597  1.00  0.00     0.001 A 
HETATM   12  C20 UNL     1      21.918   1.460  49.155  1.00  0.00    -0.004 C 
HETATM   13  C21 UNL     1      22.049   2.543  48.508  1.00  0.00     0.028 C 
HETATM   14  H5  UNL     1      22.823   6.423  50.322  1.00  0.00     0.167 HD
ENDROOT
BRANCH  10  15
HETATM   15  C11 UNL     1      21.672   0.429  53.833  1.00  0.00     0.039 C 
BRANCH  15  16
HETATM   16  C12 UNL     1      22.624  -0.783  53.612  1.00  0.00     0.022 C 
BRANCH  16  17
HETATM   17  C13 UNL     1      23.549  -0.760  54.677  1.00  0.00     0.021 A 
HETATM   18  C14 UNL     1      25.062  -0.657  54.588  1.00  0.00     0.112 A 
HETATM   19  C15 UNL     1      26.521  -0.532  53.763  1.00  0.00     0.135 A 
HETATM   20  C18 UNL     1      24.454  -0.676  53.976  1.00  0.00    -0.030 A 
HETATM   21  S1  UNL     1      25.499  -0.582  53.205  1.00  0.00    -0.175 SA
HETATM   22  C17 UNL     1      26.790  -0.466  52.294  1.00  0.00     0.099 A 
BRANCH  19  23
HETATM   23  O1  UNL     1      27.639  -0.484  54.680  1.00  0.00    -0.304 OA
BRANCH  23  24
HETATM   24  C16 UNL     1      28.867  -0.055  54.585  1.00  0.00     0.399 C 
HETATM   25  O2  UNL     1      28.484   0.952  55.212  1.00  0.00    -0.276 OA
ENDBRANCH  23  24
ENDBRANCH  19  23
ENDBRANCH  16  17
ENDBRANCH  15  16
ENDBRANCH  10  15
BRANCH   1  26
HETATM   26  N1  UNL     1      22.207   4.227  47.121  1.00  0.00    -0.397 N 
HETATM   27  H1  UNL     1      22.503   3.970  46.154  1.00  0.00     0.156 HD
HETATM   28  H2  UNL     1      21.947   4.554  46.128  1.00  0.00     0.156 HD
ENDBRANCH   1  26
BRANCH   2  29
HETATM   29  C3  UNL     1      22.859   6.047  47.666  1.00  0.00     0.044 C 
BRANCH  29  30
HETATM   30  C4  UNL     1      22.989   6.975  46.794  1.00  0.00     0.220 C 
HETATM   31 CL1  UNL     1      23.171   7.847  45.295  1.00  0.00    -0.230 Cl
ENDBRANCH  29  30
ENDBRANCH   2  29
TORSDOF 9
ENDMDL
MODEL 4
REMARK VINA RESULT:      -7.6      1.440      2.297
REMARK  9 active torsions:
REMARK  status: ('A' for Active; 'I' for Inactive)
REMARK    1  A    between atoms: N1_1  and  C1_2 
REMARK    2  A    between atoms: C2_3  and  C3_4 
REMARK    3  A    between atoms: C3_4  and  C4_5 
REMARK    4  A    between atoms: C10_14  and  C11_15 
REMARK    5  A    between atoms: C11_15  and  C12_16 
REMARK    6  A    between atoms: C12_16  and  C13_17 
REMARK    7  A    between atoms: C15_19  and  O1_20 
REMARK    8  A    between atoms: O1_20  and  C16_21 
REMARK    9  A    between atoms: S1_24  and  C18_25 
ROOT
HETATM    1  C1  UNL     1      24.495   5.044  49.600  1.00  0.00     0.052 C 
HETATM    2  C2  UNL     1      23.607   5.837  49.105  1.00  0.00     0.061 C 
HETATM    3  N2  UNL     1      22.229   5.829  49.539  1.00  0.00    -0.340 N 
HETATM    4  C5  UNL     1      21.729   5.820  50.879  1.00  0.00     0.267 C 
HETATM    5  N3  UNL     1      22.586   5.295  51.434  1.00  0.00    -0.442 NA
HETATM    6  C6  UNL     1      23.526   4.696  52.161  1.00  0.00     0.240 C 
HETATM    7  C7  UNL     1      23.841   3.265  51.624  1.00  0.00     0.041 A 
HETATM    8  C8  UNL     1      22.888   2.877  50.564  1.00  0.00    -0.006 A 
HETATM    9  C9  UNL     1      22.097   1.887  51.029  1.00  0.00     0.004 A 
HETATM   10  C10 UNL     1      22.404   1.498  52.402  1.00  0.00    -0.061 A 
HETATM   11  C19 UNL     1      23.408   2.305  52.708  1.00  0.00     0.001 A 
HETATM   12  C20 UNL     1      25.274   3.171  51.214  1.00  0.00    -0.004 C 
HETATM   13  C21 UNL     1      25.241   4.071  50.321  1.00  0.00     0.028 C 
HETATM   14  H5  UNL     1      21.595   5.827  48.720  1.00  0.00     0.167 HD
ENDROOT
BRANCH  10  15
HETATM   15  C11 UNL     1      21.885   0.548  53.371  1.00  0.00     0.039 C 
BRANCH  15  16
HETATM   16  C12 UNL     1      22.710  -0.771  53.292  1.00  0.00     0.022 C 
BRANCH  16  17
HETATM   17  C13 UNL     1      23.575  -0.763  54.407  1.00  0.00     0.021 A 
HETATM   18  C14 UNL     1      25.090  -0.643  54.403  1.00  0.00     0.112 A 
HETATM   19  C15 UNL     1      26.589  -0.485  53.663  1.00  0.00     0.135 A 
HETATM   20  C18 UNL     1      24.516  -0.655  53.759  1.00  0.00    -0.030 A 
HETATM   21  S1  UNL     1      25.600  -0.531  53.049  1.00  0.00    -0.175 SA
HETATM   22  C17 UNL     1      26.938  -0.382  52.213  1.00  0.00     0.099 A 
BRANCH  19  23
HETATM   23  O1  UNL     1      27.655  -0.448  54.641  1.00  0.00    -0.304 OA
BRANCH  23  24
HETATM   24  C16 UNL     1      28.924  -0.149  54.583  1.00  0.00     0.399 C 
HETATM   25  O2  UNL     1      28.625   0.904  55.181  1.00  0.00    -0.276 OA
ENDBRANCH  23  24
ENDBRANCH  19  23
ENDBRANCH  16  17
ENDBRANCH  15  16
ENDBRANCH  10  15
BRANCH   1  26
HETATM   26  N1  UNL     1      25.518   5.592  48.774  1.00  0.00    -0.397 N 
HETATM   27  H1  UNL     1      25.683   6.278  48.006  1.00  0.00     0.156 HD
HETATM   28  H2  UNL     1      26.378   5.926  48.217  1.00  0.00     0.156 HD
ENDBRANCH   1  26
BRANCH   2  29
HETATM   29  C3  UNL     1      24.031   6.763  48.101  1.00  0.00     0.044 C 
BRANCH  29  30
HETATM   30  C4  UNL     1      24.294   7.522  47.103  1.00  0.00     0.220 C 
HETATM   31 CL1  UNL     1      25.078   8.297  45.753  1.00  0.00    -0.230 Cl
ENDBRANCH  29  30
ENDBRANCH   2  29
TORSDOF 9
ENDMDL
MODEL 5
REMARK VINA RESULT:      -7.4      1.456      1.985
REMARK  9 active torsions:
REMARK  status: ('A' for Active; 'I' for Inactive)
REMARK    1  A    between atoms: N1_1  and  C1_2 
REMARK    2  A    between atoms: C2_3  and  C3_4 
REMARK    3  A    between atoms: C3_4  and  C4_5 
REMARK    4  A    between atoms: C10_14  and  C11_15 
REMARK    5  A    between atoms: C11_15  and  C12_16 
REMARK    6  A    between atoms: C12_16  and  C13_17 
REMARK    7  A    between atoms: C15_19  and  O1_20 
REMARK    8  A    between atoms: O1_20  and  C16_21 
REMARK    9  A    between atoms: S1_24  and  C18_25 
ROOT
HETATM    1  C1  UNL     1      24.205   5.901  50.805  1.00  0.00     0.052 C 
HETATM    2  C2  UNL     1      24.370   6.020  49.532  1.00  0.00     0.061 C 
HETATM    3  N2  UNL     1      23.822   5.075  48.586  1.00  0.00    -0.340 N 
HETATM    4  C5  UNL     1      22.495   4.542  48.543  1.00  0.00     0.267 C 
HETATM    5  N3  UNL     1      22.196   4.598  49.650  1.00  0.00    -0.442 NA
HETATM    6  C6  UNL     1      21.761   4.623  50.907  1.00  0.00     0.240 C 
HETATM    7  C7  UNL     1      22.705   3.821  51.856  1.00  0.00     0.041 A 
HETATM    8  C8  UNL     1      23.733   3.090  51.086  1.00  0.00    -0.006 A 
HETATM    9  C9  UNL     1      23.487   1.766  51.177  1.00  0.00     0.004 A 
HETATM   10  C10 UNL     1      22.315   1.449  51.986  1.00  0.00    -0.061 A 
HETATM   11  C19 UNL     1      21.895   2.648  52.361  1.00  0.00     0.001 A 
HETATM   12  C20 UNL     1      23.262   4.719  52.910  1.00  0.00    -0.004 C 
HETATM   13  C21 UNL     1      23.861   5.521  52.132  1.00  0.00     0.028 C 
HETATM   14  H5  UNL     1      24.543   4.802  47.894  1.00  0.00     0.167 HD
ENDROOT
BRANCH  10  15
HETATM   15  C11 UNL     1      21.604   0.248  52.389  1.00  0.00     0.039 C 
BRANCH  15  16
HETATM   16  C12 UNL     1      22.632  -0.849  52.793  1.00  0.00     0.022 C 
BRANCH  16  17
HETATM   17  C13 UNL     1      23.294  -0.367  53.942  1.00  0.00     0.021 A 
HETATM   18  C14 UNL     1      24.791  -0.328  54.202  1.00  0.00     0.112 A 
HETATM   19  C15 UNL     1      26.400  -0.593  53.799  1.00  0.00     0.135 A 
HETATM   20  C18 UNL     1      24.335  -0.610  53.526  1.00  0.00    -0.030 A 
HETATM   21  S1  UNL     1      25.528  -0.874  53.077  1.00  0.00    -0.175 SA
HETATM   22  C17 UNL     1      26.994  -1.184  52.561  1.00  0.00     0.099 A 
BRANCH  19  23
HETATM   23  O1  UNL     1      27.284  -0.157  54.857  1.00  0.00    -0.304 OA
BRANCH  23  24
HETATM   24  C16 UNL     1      28.557   0.125  54.912  1.00  0.00     0.399 C 
HETATM   25  O2  UNL     1      28.215   1.324  54.887  1.00  0.00    -0.276 OA
ENDBRANCH  23  24
ENDBRANCH  19  23
ENDBRANCH  16  17
ENDBRANCH  15  16
ENDBRANCH  10  15
BRANCH   1  26
HETATM   26  N1  UNL     1      24.941   7.093  51.062  1.00  0.00    -0.397 N 
HETATM   27  H1  UNL     1      24.850   8.132  51.095  1.00  0.00     0.156 HD
HETATM   28  H2  UNL     1      25.604   7.914  51.282  1.00  0.00     0.156 HD
ENDBRANCH   1  26
BRANCH   2  29
HETATM   29  C3  UNL     1      25.111   7.149  49.061  1.00  0.00     0.044 C 
BRANCH  29  30
HETATM   30  C4  UNL     1      25.710   8.126  48.488  1.00  0.00     0.220 C 
HETATM   31 CL1  UNL     1      26.167   9.380  47.368  1.00  0.00    -0.230 Cl
ENDBRANCH  29  30
ENDBRANCH   2  29
TORSDOF 9
ENDMDL
MODEL 6
REMARK VINA RESULT:      -7.4      4.071      5.732
REMARK  9 active torsions:
REMARK  status: ('A' for Active; 'I' for Inactive)
REMARK    1  A    between atoms: N1_1  and  C1_2 
REMARK    2  A    between atoms: C2_3  and  C3_4 
REMARK    3  A    between atoms: C3_4  and  C4_5 
REMARK    4  A    between atoms: C10_14  and  C11_15 
REMARK    5  A    between atoms: C11_15  and  C12_16 
REMARK    6  A    between atoms: C12_16  and  C13_17 
REMARK    7  A    between atoms: C15_19  and  O1_20 
REMARK    8  A    between atoms: O1_20  and  C16_21 
REMARK    9  A    between atoms: S1_24  and  C18_25 
ROOT
HETATM    1  C1  UNL     1      25.785   3.491  50.601  1.00  0.00     0.052 C 
HETATM    2  C2  UNL     1      25.066   4.526  50.329  1.00  0.00     0.061 C 
HETATM    3  N2  UNL     1      23.749   4.726  50.888  1.00  0.00    -0.340 N 
HETATM    4  C5  UNL     1      23.341   4.581  52.252  1.00  0.00     0.267 C 
HETATM    5  N3  UNL     1      24.093   3.800  52.629  1.00  0.00    -0.442 NA
HETATM    6  C6  UNL     1      24.919   2.899  53.154  1.00  0.00     0.240 C 
HETATM    7  C7  UNL     1      24.878   1.554  52.365  1.00  0.00     0.041 A 
HETATM    8  C8  UNL     1      23.801   1.567  51.354  1.00  0.00    -0.006 A 
HETATM    9  C9  UNL     1      22.840   0.695  51.728  1.00  0.00     0.004 A 
HETATM   10  C10 UNL     1      23.136   0.012  52.983  1.00  0.00    -0.061 A 
HETATM   11  C19 UNL     1      24.311   0.526  53.317  1.00  0.00     0.001 A 
HETATM   12  C20 UNL     1      26.228   1.240  51.809  1.00  0.00    -0.004 C 
HETATM   13  C21 UNL     1      26.340   2.272  51.080  1.00  0.00     0.028 C 
HETATM   14  H5  UNL     1      23.082   5.002  50.145  1.00  0.00     0.167 HD
ENDROOT
BRANCH  10  15
HETATM   15  C11 UNL     1      22.480  -0.967  53.832  1.00  0.00     0.039 C 
BRANCH  15  16
HETATM   16  C12 UNL     1      21.174  -0.352  54.415  1.00  0.00     0.022 C 
BRANCH  16  17
HETATM   17  C13 UNL     1      20.139  -1.262  54.113  1.00  0.00     0.021 A 
HETATM   18  C14 UNL     1      18.990  -1.068  53.137  1.00  0.00     0.112 A 
HETATM   19  C15 UNL     1      18.103  -0.202  52.004  1.00  0.00     0.135 A 
HETATM   20  C18 UNL     1      19.644  -0.551  53.360  1.00  0.00    -0.030 A 
HETATM   21  S1  UNL     1      19.062   0.235  52.501  1.00  0.00    -0.175 SA
HETATM   22  C17 UNL     1      18.329   1.168  51.451  1.00  0.00     0.099 A 
BRANCH  19  23
HETATM   23  O1  UNL     1      16.965  -0.964  51.536  1.00  0.00    -0.304 OA
BRANCH  23  24
HETATM   24  C16 UNL     1      15.702  -0.688  51.365  1.00  0.00     0.399 C 
HETATM   25  O2  UNL     1      15.591  -0.782  52.603  1.00  0.00    -0.276 OA
ENDBRANCH  23  24
ENDBRANCH  19  23
ENDBRANCH  16  17
ENDBRANCH  15  16
ENDBRANCH  10  15
BRANCH   1  26
HETATM   26  N1  UNL     1      26.852   3.954  49.779  1.00  0.00    -0.397 N 
HETATM   27  H1  UNL     1      27.488   4.767  49.627  1.00  0.00     0.156 HD
HETATM   28  H2  UNL     1      27.652   4.184  49.094  1.00  0.00     0.156 HD
ENDBRANCH   1  26
BRANCH   2  29
HETATM   29  C3  UNL     1      25.623   5.509  49.452  1.00  0.00     0.044 C 
BRANCH  29  30
HETATM   30  C4  UNL     1      26.091   6.500  48.789  1.00  0.00     0.220 C 
HETATM   31 CL1  UNL     1      27.101   7.528  47.809  1.00  0.00    -0.230 Cl
ENDBRANCH  29  30
ENDBRANCH   2  29
TORSDOF 9
ENDMDL
MODEL 7
REMARK VINA RESULT:      -7.2      5.363      8.724
REMARK  9 active torsions:
REMARK  status: ('A' for Active; 'I' for Inactive)
REMARK    1  A    between atoms: N1_1  and  C1_2 
REMARK    2  A    between atoms: C2_3  and  C3_4 
REMARK    3  A    between atoms: C3_4  and  C4_5 
REMARK    4  A    between atoms: C10_14  and  C11_15 
REMARK    5  A    between atoms: C11_15  and  C12_16 
REMARK    6  A    between atoms: C12_16  and  C13_17 
REMARK    7  A    between atoms: C15_19  and  O1_20 
REMARK    8  A    between atoms: O1_20  and  C16_21 
REMARK    9  A    between atoms: S1_24  and  C18_25 
ROOT
HETATM    1  C1  UNL     1      22.863   1.748  51.035  1.00  0.00     0.052 C 
HETATM    2  C2  UNL     1      23.094   1.413  52.258  1.00  0.00     0.061 C 
HETATM    3  N2  UNL     1      24.172   1.988  53.030  1.00  0.00    -0.340 N 
HETATM    4  C5  UNL     1      24.526   3.368  53.156  1.00  0.00     0.267 C 
HETATM    5  N3  UNL     1      24.152   3.787  52.154  1.00  0.00    -0.442 NA
HETATM    6  C6  UNL     1      23.751   4.361  51.023  1.00  0.00     0.240 C 
HETATM    7  C7  UNL     1      24.398   3.683  49.776  1.00  0.00     0.041 A 
HETATM    8  C8  UNL     1      25.425   2.701  50.180  1.00  0.00    -0.006 A 
HETATM    9  C9  UNL     1      26.640   3.167  49.822  1.00  0.00     0.004 A 
HETATM   10  C10 UNL     1      26.588   4.465  49.156  1.00  0.00    -0.061 A 
HETATM   11  C19 UNL     1      25.290   4.728  49.144  1.00  0.00     0.001 A 
HETATM   12  C20 UNL     1      23.339   3.119  48.887  1.00  0.00    -0.004 C 
HETATM   13  C21 UNL     1      22.844   2.308  49.728  1.00  0.00     0.028 C 
HETATM   14  H5  UNL     1      24.703   1.242  53.516  1.00  0.00     0.167 HD
ENDROOT
BRANCH  10  15
HETATM   15  C11 UNL     1      27.546   5.405  48.600  1.00  0.00     0.039 C 
BRANCH  15  16
HETATM   16  C12 UNL     1      26.826   6.749  48.285  1.00  0.00     0.022 C 
BRANCH  16  17
HETATM   17  C13 UNL     1      27.650   7.770  48.801  1.00  0.00     0.021 A 
HETATM   18  C14 UNL     1      27.374   9.265  48.819  1.00  0.00     0.112 A 
HETATM   19  C15 UNL     1      26.452  10.633  48.501  1.00  0.00     0.135 A 
HETATM   20  C18 UNL     1      26.911   8.602  48.518  1.00  0.00    -0.030 A 
HETATM   21  S1  UNL     1      26.091   9.564  48.209  1.00  0.00    -0.175 SA
HETATM   22  C17 UNL     1      25.115  10.758  47.845  1.00  0.00     0.099 A 
BRANCH  19  23
HETATM   23  O1  UNL     1      27.117  11.832  48.964  1.00  0.00    -0.304 OA
BRANCH  23  24
HETATM   24  C16 UNL     1      27.399  12.979  48.411  1.00  0.00     0.399 C 
HETATM   25  O2  UNL     1      28.218  13.139  49.337  1.00  0.00    -0.276 OA
ENDBRANCH  23  24
ENDBRANCH  19  23
ENDBRANCH  16  17
ENDBRANCH  15  16
ENDBRANCH  10  15
BRANCH   1  26
HETATM   26  N1  UNL     1      21.748   0.865  50.952  1.00  0.00    -0.397 N 
HETATM   27  H1  UNL     1      21.441  -0.045  50.545  1.00  0.00     0.156 HD
HETATM   28  H2  UNL     1      20.839   0.286  50.969  1.00  0.00     0.156 HD
ENDBRANCH   1  26
BRANCH   2  29
HETATM   29  C3  UNL     1      22.227   0.447  52.857  1.00  0.00     0.044 C 
BRANCH  29  30
HETATM   30  C4  UNL     1      21.591  -0.502  53.436  1.00  0.00     0.220 C 
HETATM   31 CL1  UNL     1      21.080  -1.726  54.568  1.00  0.00    -0.230 Cl
ENDBRANCH  29  30
ENDBRANCH   2  29
TORSDOF 9
ENDMDL
MODEL 8
REMARK VINA RESULT:      -7.0      5.318      8.602
REMARK  9 active torsions:
REMARK  status: ('A' for Active; 'I' for Inactive)
REMARK    1  A    between atoms: N1_1  and  C1_2 
REMARK    2  A    between atoms: C2_3  and  C3_4 
REMARK    3  A    between atoms: C3_4  and  C4_5 
REMARK    4  A    between atoms: C10_14  and  C11_15 
REMARK    5  A    between atoms: C11_15  and  C12_16 
REMARK    6  A    between atoms: C12_16  and  C13_17 
REMARK    7  A    between atoms: C15_19  and  O1_20 
REMARK    8  A    between atoms: O1_20  and  C16_21 
REMARK    9  A    between atoms: S1_24  and  C18_25 
ROOT
HETATM    1  C1  UNL     1      22.961   1.600  51.069  1.00  0.00     0.052 C 
HETATM    2  C2  UNL     1      23.242   1.198  52.261  1.00  0.00     0.061 C 
HETATM    3  N2  UNL     1      24.355   1.725  53.017  1.00  0.00    -0.340 N 
HETATM    4  C5  UNL     1      24.722   3.095  53.202  1.00  0.00     0.267 C 
HETATM    5  N3  UNL     1      24.309   3.569  52.242  1.00  0.00    -0.442 NA
HETATM    6  C6  UNL     1      23.865   4.206  51.161  1.00  0.00     0.240 C 
HETATM    7  C7  UNL     1      24.454   3.594  49.853  1.00  0.00     0.041 A 
HETATM    8  C8  UNL     1      25.491   2.588  50.159  1.00  0.00    -0.006 A 
HETATM    9  C9  UNL     1      26.693   3.068  49.776  1.00  0.00     0.004 A 
HETATM   10  C10 UNL     1      26.622   4.400  49.184  1.00  0.00    -0.061 A 
HETATM   11  C19 UNL     1      25.325   4.668  49.242  1.00  0.00     0.001 A 
HETATM   12  C20 UNL     1      23.355   3.084  48.980  1.00  0.00    -0.004 C 
HETATM   13  C21 UNL     1      22.892   2.230  49.796  1.00  0.00     0.028 C 
HETATM   14  H5  UNL     1      24.901   0.952  53.439  1.00  0.00     0.167 HD
ENDROOT
BRANCH  10  15
HETATM   15  C11 UNL     1      27.561   5.365  48.640  1.00  0.00     0.039 C 
BRANCH  15  16
HETATM   16  C12 UNL     1      26.965   6.798  48.777  1.00  0.00     0.022 C 
BRANCH  16  17
HETATM   17  C13 UNL     1      27.357   7.502  47.619  1.00  0.00     0.021 A 
HETATM   18  C14 UNL     1      28.432   8.570  47.502  1.00  0.00     0.112 A 
HETATM   19  C15 UNL     1      29.642   9.566  48.108  1.00  0.00     0.135 A 
HETATM   20  C18 UNL     1      28.152   8.112  48.178  1.00  0.00    -0.030 A 
HETATM   21  S1  UNL     1      29.061   8.817  48.787  1.00  0.00    -0.175 SA
HETATM   22  C17 UNL     1      30.174   9.692  49.499  1.00  0.00     0.099 A 
BRANCH  19  23
HETATM   23  O1  UNL     1      30.208  10.395  47.067  1.00  0.00    -0.304 OA
BRANCH  23  24
HETATM   24  C16 UNL     1      31.412  10.828  46.810  1.00  0.00     0.399 C 
HETATM   25  O2  UNL     1      31.595   9.744  46.223  1.00  0.00    -0.276 OA
ENDBRANCH  23  24
ENDBRANCH  19  23
ENDBRANCH  16  17
ENDBRANCH  15  16
ENDBRANCH  10  15
BRANCH   1  26
HETATM   26  N1  UNL     1      21.838   0.727  50.985  1.00  0.00    -0.397 N 
HETATM   27  H1  UNL     1      20.840   0.688  50.684  1.00  0.00     0.156 HD
HETATM   28  H2  UNL     1      21.070  -0.029  50.974  1.00  0.00     0.156 HD
ENDBRANCH   1  26
BRANCH   2  29
HETATM   29  C3  UNL     1      22.394   0.203  52.843  1.00  0.00     0.044 C 
BRANCH  29  30
HETATM   30  C4  UNL     1      21.736  -0.677  53.500  1.00  0.00     0.220 C 
HETATM   31 CL1  UNL     1      21.203  -1.795  54.726  1.00  0.00    -0.230 Cl
ENDBRANCH  29  30
ENDBRANCH   2  29
TORSDOF 9
ENDMDL
MODEL 9
REMARK VINA RESULT:      -6.8      2.810      3.741
REMARK  9 active torsions:
REMARK  status: ('A' for Active; 'I' for Inactive)
REMARK    1  A    between atoms: N1_1  and  C1_2 
REMARK    2  A    between atoms: C2_3  and  C3_4 
REMARK    3  A    between atoms: C3_4  and  C4_5 
REMARK    4  A    between atoms: C10_14  and  C11_15 
REMARK    5  A    between atoms: C11_15  and  C12_16 
REMARK    6  A    between atoms: C12_16  and  C13_17 
REMARK    7  A    between atoms: C15_19  and  O1_20 
REMARK    8  A    between atoms: O1_20  and  C16_21 
REMARK    9  A    between atoms: S1_24  and  C18_25 
ROOT
HETATM    1  C1  UNL     1      21.985   4.217  48.215  1.00  0.00     0.052 C 
HETATM    2  C2  UNL     1      21.100   3.869  47.344  1.00  0.00     0.061 C 
HETATM    3  N2  UNL     1      20.056   2.914  47.636  1.00  0.00    -0.340 N 
HETATM    4  C5  UNL     1      19.203   2.866  48.783  1.00  0.00     0.267 C 
HETATM    5  N3  UNL     1      19.867   3.362  49.577  1.00  0.00    -0.442 NA
HETATM    6  C6  UNL     1      20.563   3.923  50.562  1.00  0.00     0.240 C 
HETATM    7  C7  UNL     1      21.923   3.194  50.790  1.00  0.00     0.041 A 
HETATM    8  C8  UNL     1      22.006   1.962  49.980  1.00  0.00    -0.006 A 
HETATM    9  C9  UNL     1      21.969   0.893  50.804  1.00  0.00     0.004 A 
HETATM   10  C10 UNL     1      21.864   1.255  52.215  1.00  0.00    -0.061 A 
HETATM   11  C19 UNL     1      21.844   2.578  52.169  1.00  0.00     0.001 A 
HETATM   12  C20 UNL     1      23.059   4.139  50.572  1.00  0.00    -0.004 C 
HETATM   13  C21 UNL     1      22.807   4.410  49.359  1.00  0.00     0.028 C 
HETATM   14  H5  UNL     1      19.988   2.214  46.875  1.00  0.00     0.167 HD
ENDROOT
BRANCH  10  15
HETATM   15  C11 UNL     1      21.769   0.549  53.481  1.00  0.00     0.039 C 
BRANCH  15  16
HETATM   16  C12 UNL     1      22.555  -0.792  53.384  1.00  0.00     0.022 C 
BRANCH  16  17
HETATM   17  C13 UNL     1      23.456  -0.802  54.469  1.00  0.00     0.021 A 
HETATM   18  C14 UNL     1      24.969  -0.666  54.418  1.00  0.00     0.112 A 
HETATM   19  C15 UNL     1      26.441  -0.472  53.633  1.00  0.00     0.135 A 
HETATM   20  C18 UNL     1      24.374  -0.667  53.793  1.00  0.00    -0.030 A 
HETATM   21  S1  UNL     1      25.432  -0.514  53.051  1.00  0.00    -0.175 SA
HETATM   22  C17 UNL     1      26.740  -0.329  52.176  1.00  0.00     0.099 A 
BRANCH  19  23
HETATM   23  O1  UNL     1      27.538  -0.447  54.576  1.00  0.00    -0.304 OA
BRANCH  23  24
HETATM   24  C16 UNL     1      28.503   0.398  54.817  1.00  0.00     0.399 C 
HETATM   25  O2  UNL     1      29.279  -0.488  54.408  1.00  0.00    -0.276 OA
ENDBRANCH  23  24
ENDBRANCH  19  23
ENDBRANCH  16  17
ENDBRANCH  15  16
ENDBRANCH  10  15
BRANCH   1  26
HETATM   26  N1  UNL     1      22.606   5.114  47.298  1.00  0.00    -0.397 N 
HETATM   27  H1  UNL     1      23.224   5.143  46.458  1.00  0.00     0.156 HD
HETATM   28  H2  UNL     1      23.015   5.892  46.675  1.00  0.00     0.156 HD
ENDBRANCH   1  26
BRANCH   2  29
HETATM   29  C3  UNL     1      21.164   4.480  46.052  1.00  0.00     0.044 C 
BRANCH  29  30
HETATM   30  C4  UNL     1      21.096   4.923  44.852  1.00  0.00     0.220 C 
HETATM   31 CL1  UNL     1      20.763   5.093  43.150  1.00  0.00    -0.230 Cl
ENDBRANCH  29  30
ENDBRANCH   2  29
TORSDOF 9
ENDMDL
