MODEL 1
REMARK VINA RESULT:      -7.4      0.000      0.000
REMARK  5 active torsions:
REMARK  status: ('A' for Active; 'I' for Inactive)
REMARK    1  A    between atoms: C1_2  and  C2_3 
REMARK    2  A    between atoms: C7_8  and  C8_9 
REMARK    3  A    between atoms: C9_10  and  N1_11 
REMARK    4  A    between atoms: N1_11  and  S1_12 
REMARK    5  A    between atoms: S1_12  and  C10_13 
ROOT
HETATM    1  N1  UNL     1      25.102   2.544  53.219  1.00  0.00    -0.349 N 
HETATM    2  H8  UNL     1      24.968   3.390  53.818  1.00  0.00     0.172 HD
ENDROOT
BRANCH   1   3
HETATM    3  C9  UNL     1      24.012   1.656  53.002  1.00  0.00     0.091 C 
HETATM    4  C8  UNL     1      23.005   1.341  52.213  1.00  0.00     0.000 C 
BRANCH   4   5
HETATM    5  C7  UNL     1      22.015   0.237  52.364  1.00  0.00     0.047 C 
HETATM    6  C2  UNL     1      20.851   0.743  53.198  1.00  0.00     0.082 C 
HETATM    7  C3  UNL     1      20.923   0.254  54.610  1.00  0.00    -0.001 C 
HETATM    8  C4  UNL     1      20.998  -1.063  54.655  1.00  0.00    -0.018 C 
HETATM    9  C5  UNL     1      21.867  -1.673  53.903  1.00  0.00    -0.018 C 
HETATM   10  C6  UNL     1      22.602  -0.907  53.147  1.00  0.00    -0.004 C 
BRANCH   6  11
HETATM   11  C1  UNL     1      19.577   0.257  52.593  1.00  0.00     0.240 C 
HETATM   12  O1  UNL     1      19.579   0.127  51.399  1.00  0.00    -0.306 OA
ENDBRANCH   6  11
ENDBRANCH   4   5
ENDBRANCH   1   3
BRANCH   1  13
HETATM   13  S1  UNL     1      26.715   1.975  52.310  1.00  0.00    -0.101 SA
HETATM   14  C11 UNL     1      26.698   0.191  52.193  1.00  0.00     0.053 A 
HETATM   15  C12 UNL     1      27.618  -0.586  52.685  1.00  0.00     0.031 A 
HETATM   16  C13 UNL     1      28.761  -0.064  53.384  1.00  0.00     0.031 A 
HETATM   17 CL1  UNL     1      29.930  -1.244  53.998  1.00  0.00    -0.085 Cl
HETATM   18  C14 UNL     1      28.971   1.217  53.583  1.00  0.00     0.008 A 
HETATM   19  C15 UNL     1      28.135   2.372  53.164  1.00  0.00     0.114 A 
BRANCH  13  20
HETATM   20  C10 UNL     1      26.532   2.843  50.671  1.00  0.00     0.307 C 
HETATM   21  O2  UNL     1      27.183   3.661  50.107  1.00  0.00    -0.295 OA
ENDBRANCH  13  20
ENDBRANCH   1  13
TORSDOF 5
ENDMDL
MODEL 2
REMARK VINA RESULT:      -7.1      3.812      5.898
REMARK  5 active torsions:
REMARK  status: ('A' for Active; 'I' for Inactive)
REMARK    1  A    between atoms: C1_2  and  C2_3 
REMARK    2  A    between atoms: C7_8  and  C8_9 
REMARK    3  A    between atoms: C9_10  and  N1_11 
REMARK    4  A    between atoms: N1_11  and  S1_12 
REMARK    5  A    between atoms: S1_12  and  C10_13 
ROOT
HETATM    1  N1  UNL     1      23.722   3.822  51.607  1.00  0.00    -0.349 N 
HETATM    2  H8  UNL     1      22.941   4.329  52.084  1.00  0.00     0.172 HD
ENDROOT
BRANCH   1   3
HETATM    3  C9  UNL     1      24.506   2.889  52.343  1.00  0.00     0.091 C 
HETATM    4  C8  UNL     1      25.222   2.688  53.430  1.00  0.00     0.000 C 
BRANCH   4   5
HETATM    5  C7  UNL     1      25.937   1.452  53.857  1.00  0.00     0.047 C 
HETATM    6  C2  UNL     1      27.141   1.254  52.952  1.00  0.00     0.082 C 
HETATM    7  C3  UNL     1      26.892   0.202  51.917  1.00  0.00    -0.001 C 
HETATM    8  C4  UNL     1      26.529  -0.938  52.474  1.00  0.00    -0.018 C 
HETATM    9  C5  UNL     1      25.586  -0.931  53.371  1.00  0.00    -0.018 C 
HETATM   10  C6  UNL     1      25.076   0.236  53.651  1.00  0.00    -0.004 C 
BRANCH   6  11
HETATM   11  C1  UNL     1      28.306   0.835  53.783  1.00  0.00     0.240 C 
HETATM   12  O1  UNL     1      28.275   1.170  54.936  1.00  0.00    -0.306 OA
ENDBRANCH   6  11
ENDBRANCH   4   5
ENDBRANCH   1   3
BRANCH   1  13
HETATM   13  S1  UNL     1      24.288   3.976  49.761  1.00  0.00    -0.101 SA
HETATM   14  C11 UNL     1      25.955   3.342  49.628  1.00  0.00     0.053 A 
HETATM   15  C12 UNL     1      26.971   4.031  49.197  1.00  0.00     0.031 A 
HETATM   16  C13 UNL     1      26.838   5.399  48.777  1.00  0.00     0.031 A 
HETATM   17 CL1  UNL     1      28.309   6.209  48.214  1.00  0.00    -0.085 Cl
HETATM   18  C14 UNL     1      25.704   6.060  48.793  1.00  0.00     0.008 A 
HETATM   19  C15 UNL     1      24.360   5.590  49.221  1.00  0.00     0.114 A 
BRANCH  13  20
HETATM   20  C10 UNL     1      23.009   2.930  48.901  1.00  0.00     0.307 C 
HETATM   21  O2  UNL     1      22.493   1.894  49.167  1.00  0.00    -0.295 OA
ENDBRANCH  13  20
ENDBRANCH   1  13
TORSDOF 5
ENDMDL
MODEL 3
REMARK VINA RESULT:      -7.0      3.814      6.180
REMARK  5 active torsions:
REMARK  status: ('A' for Active; 'I' for Inactive)
REMARK    1  A    between atoms: C1_2  and  C2_3 
REMARK    2  A    between atoms: C7_8  and  C8_9 
REMARK    3  A    between atoms: C9_10  and  N1_11 
REMARK    4  A    between atoms: N1_11  and  S1_12 
REMARK    5  A    between atoms: S1_12  and  C10_13 
ROOT
HETATM    1  N1  UNL     1      26.447   3.252  51.085  1.00  0.00    -0.349 N 
HETATM    2  H8  UNL     1      27.291   3.774  50.753  1.00  0.00     0.172 HD
ENDROOT
BRANCH   1   3
HETATM    3  C9  UNL     1      26.611   2.040  51.811  1.00  0.00     0.091 C 
HETATM    4  C8  UNL     1      26.544   0.725  51.763  1.00  0.00     0.000 C 
BRANCH   4   5
HETATM    5  C7  UNL     1      26.822  -0.261  52.846  1.00  0.00     0.047 C 
HETATM    6  C2  UNL     1      28.091   0.161  53.567  1.00  0.00     0.082 C 
HETATM    7  C3  UNL     1      29.270  -0.659  53.146  1.00  0.00    -0.001 C 
HETATM    8  C4  UNL     1      29.038  -1.948  53.314  1.00  0.00    -0.018 C 
HETATM    9  C5  UNL     1      27.928  -2.455  52.861  1.00  0.00    -0.018 C 
HETATM   10  C6  UNL     1      27.120  -1.619  52.271  1.00  0.00    -0.004 C 
BRANCH   6  11
HETATM   11  C1  UNL     1      27.892  -0.014  55.035  1.00  0.00     0.240 C 
HETATM   12  O1  UNL     1      26.761  -0.202  55.392  1.00  0.00    -0.306 OA
ENDBRANCH   6  11
ENDBRANCH   4   5
ENDBRANCH   1   3
BRANCH   1  13
HETATM   13  S1  UNL     1      24.585   3.726  50.841  1.00  0.00    -0.101 SA
HETATM   14  C11 UNL     1      23.655   3.097  52.232  1.00  0.00     0.053 A 
HETATM   15  C12 UNL     1      22.662   2.262  52.135  1.00  0.00     0.031 A 
HETATM   16  C13 UNL     1      22.212   1.761  50.865  1.00  0.00     0.031 A 
HETATM   17 CL1  UNL     1      20.848   0.631  50.889  1.00  0.00    -0.085 Cl
HETATM   18  C14 UNL     1      22.754   2.093  49.716  1.00  0.00     0.008 A 
HETATM   19  C15 UNL     1      23.894   3.012  49.457  1.00  0.00     0.114 A 
BRANCH  13  20
HETATM   20  C10 UNL     1      24.690   5.585  50.778  1.00  0.00     0.307 C 
HETATM   21  O2  UNL     1      25.444   6.340  50.257  1.00  0.00    -0.295 OA
ENDBRANCH  13  20
ENDBRANCH   1  13
TORSDOF 5
ENDMDL
MODEL 4
REMARK VINA RESULT:      -6.9      3.701      5.691
REMARK  5 active torsions:
REMARK  status: ('A' for Active; 'I' for Inactive)
REMARK    1  A    between atoms: C1_2  and  C2_3 
REMARK    2  A    between atoms: C7_8  and  C8_9 
REMARK    3  A    between atoms: C9_10  and  N1_11 
REMARK    4  A    between atoms: N1_11  and  S1_12 
REMARK    5  A    between atoms: S1_12  and  C10_13 
ROOT
HETATM    1  N1  UNL     1      26.260   3.561  51.097  1.00  0.00    -0.349 N 
HETATM    2  H8  UNL     1      27.043   4.147  50.725  1.00  0.00     0.172 HD
ENDROOT
BRANCH   1   3
HETATM    3  C9  UNL     1      26.555   2.400  51.864  1.00  0.00     0.091 C 
HETATM    4  C8  UNL     1      27.494   1.559  52.249  1.00  0.00     0.000 C 
BRANCH   4   5
HETATM    5  C7  UNL     1      27.369   0.368  53.137  1.00  0.00     0.047 C 
HETATM    6  C2  UNL     1      26.372  -0.595  52.515  1.00  0.00     0.082 C 
HETATM    7  C3  UNL     1      25.037  -0.525  53.186  1.00  0.00    -0.001 C 
HETATM    8  C4  UNL     1      25.145  -0.734  54.485  1.00  0.00    -0.018 C 
HETATM    9  C5  UNL     1      26.043  -0.074  55.158  1.00  0.00    -0.018 C 
HETATM   10  C6  UNL     1      26.779   0.751  54.468  1.00  0.00    -0.004 C 
BRANCH   6  11
HETATM   11  C1  UNL     1      26.897  -1.984  52.646  1.00  0.00     0.240 C 
HETATM   12  O1  UNL     1      28.027  -2.083  53.041  1.00  0.00    -0.306 OA
ENDBRANCH   6  11
ENDBRANCH   4   5
ENDBRANCH   1   3
BRANCH   1  13
HETATM   13  S1  UNL     1      24.356   3.845  50.880  1.00  0.00    -0.101 SA
HETATM   14  C11 UNL     1      23.513   3.097  52.269  1.00  0.00     0.053 A 
HETATM   15  C12 UNL     1      22.610   2.167  52.165  1.00  0.00     0.031 A 
HETATM   16  C13 UNL     1      22.199   1.644  50.891  1.00  0.00     0.031 A 
HETATM   17 CL1  UNL     1      20.959   0.380  50.907  1.00  0.00    -0.085 Cl
HETATM   18  C14 UNL     1      22.690   2.052  49.743  1.00  0.00     0.008 A 
HETATM   19  C15 UNL     1      23.726   3.088  49.490  1.00  0.00     0.114 A 
BRANCH  13  20
HETATM   20  C10 UNL     1      24.268   5.706  50.853  1.00  0.00     0.307 C 
HETATM   21  O2  UNL     1      23.452   6.486  51.219  1.00  0.00    -0.295 OA
ENDBRANCH  13  20
ENDBRANCH   1  13
TORSDOF 5
ENDMDL
MODEL 5
REMARK VINA RESULT:      -6.6      3.551      4.316
REMARK  5 active torsions:
REMARK  status: ('A' for Active; 'I' for Inactive)
REMARK    1  A    between atoms: C1_2  and  C2_3 
REMARK    2  A    between atoms: C7_8  and  C8_9 
REMARK    3  A    between atoms: C9_10  and  N1_11 
REMARK    4  A    between atoms: N1_11  and  S1_12 
REMARK    5  A    between atoms: S1_12  and  C10_13 
ROOT
HETATM    1  N1  UNL     1      24.646   3.780  51.848  1.00  0.00    -0.349 N 
HETATM    2  H8  UNL     1      25.018   4.309  52.669  1.00  0.00     0.172 HD
ENDROOT
BRANCH   1   3
HETATM    3  C9  UNL     1      23.927   2.570  52.059  1.00  0.00     0.091 C 
HETATM    4  C8  UNL     1      23.799   1.498  52.813  1.00  0.00     0.000 C 
BRANCH   4   5
HETATM    5  C7  UNL     1      22.830   0.373  52.675  1.00  0.00     0.047 C 
HETATM    6  C2  UNL     1      21.441   0.890  53.008  1.00  0.00     0.082 C 
HETATM    7  C3  UNL     1      21.011   0.485  54.383  1.00  0.00    -0.001 C 
HETATM    8  C4  UNL     1      21.077  -0.824  54.537  1.00  0.00    -0.018 C 
HETATM    9  C5  UNL     1      22.162  -1.449  54.182  1.00  0.00    -0.018 C 
HETATM   10  C6  UNL     1      23.111  -0.704  53.687  1.00  0.00    -0.004 C 
BRANCH   6  11
HETATM   11  C1  UNL     1      20.469   0.331  52.025  1.00  0.00     0.240 C 
HETATM   12  O1  UNL     1      20.875   0.200  50.902  1.00  0.00    -0.306 OA
ENDBRANCH   6  11
ENDBRANCH   4   5
ENDBRANCH   1   3
BRANCH   1  13
HETATM   13  S1  UNL     1      24.803   4.233  49.971  1.00  0.00    -0.101 SA
HETATM   14  C11 UNL     1      26.389   3.655  49.382  1.00  0.00     0.053 A 
HETATM   15  C12 UNL     1      27.301   4.419  48.856  1.00  0.00     0.031 A 
HETATM   16  C13 UNL     1      27.107   5.834  48.696  1.00  0.00     0.031 A 
HETATM   17 CL1  UNL     1      28.436   6.746  47.963  1.00  0.00    -0.085 Cl
HETATM   18  C14 UNL     1      26.015   6.467  49.061  1.00  0.00     0.008 A 
HETATM   19  C15 UNL     1      24.786   5.914  49.690  1.00  0.00     0.114 A 
BRANCH  13  20
HETATM   20  C10 UNL     1      23.348   3.316  49.254  1.00  0.00     0.307 C 
HETATM   21  O2  UNL     1      23.224   2.587  48.325  1.00  0.00    -0.295 OA
ENDBRANCH  13  20
ENDBRANCH   1  13
TORSDOF 5
ENDMDL
MODEL 6
REMARK VINA RESULT:      -6.6      3.745      4.582
REMARK  5 active torsions:
REMARK  status: ('A' for Active; 'I' for Inactive)
REMARK    1  A    between atoms: C1_2  and  C2_3 
REMARK    2  A    between atoms: C7_8  and  C8_9 
REMARK    3  A    between atoms: C9_10  and  N1_11 
REMARK    4  A    between atoms: N1_11  and  S1_12 
REMARK    5  A    between atoms: S1_12  and  C10_13 
ROOT
HETATM    1  N1  UNL     1      24.079   4.212  52.701  1.00  0.00    -0.349 N 
HETATM    2  H8  UNL     1      24.451   4.627  53.586  1.00  0.00     0.172 HD
ENDROOT
BRANCH   1   3
HETATM    3  C9  UNL     1      23.607   2.869  52.699  1.00  0.00     0.091 C 
HETATM    4  C8  UNL     1      23.865   1.625  53.043  1.00  0.00     0.000 C 
BRANCH   4   5
HETATM    5  C7  UNL     1      23.026   0.410  52.837  1.00  0.00     0.047 C 
HETATM    6  C2  UNL     1      21.564   0.812  52.930  1.00  0.00     0.082 C 
HETATM    7  C3  UNL     1      20.967   0.440  54.251  1.00  0.00    -0.001 C 
HETATM    8  C4  UNL     1      21.119  -0.848  54.497  1.00  0.00    -0.018 C 
HETATM    9  C5  UNL     1      22.294  -1.387  54.345  1.00  0.00    -0.018 C 
HETATM   10  C6  UNL     1      23.240  -0.584  53.947  1.00  0.00    -0.004 C 
BRANCH   6  11
HETATM   11  C1  UNL     1      20.803   0.115  51.854  1.00  0.00     0.240 C 
HETATM   12  O1  UNL     1      21.210   0.276  50.735  1.00  0.00    -0.306 OA
ENDBRANCH   6  11
ENDBRANCH   4   5
ENDBRANCH   1   3
BRANCH   1  13
HETATM   13  S1  UNL     1      23.932   5.054  50.963  1.00  0.00    -0.101 SA
HETATM   14  C11 UNL     1      24.951   4.147  49.808  1.00  0.00     0.053 A 
HETATM   15  C12 UNL     1      25.930   4.666  49.126  1.00  0.00     0.031 A 
HETATM   16  C13 UNL     1      26.286   6.054  49.244  1.00  0.00     0.031 A 
HETATM   17 CL1  UNL     1      27.641   6.619  48.254  1.00  0.00    -0.085 Cl
HETATM   18  C14 UNL     1      25.668   6.900  50.036  1.00  0.00     0.008 A 
HETATM   19  C15 UNL     1      24.521   6.653  50.948  1.00  0.00     0.114 A 
BRANCH  13  20
HETATM   20  C10 UNL     1      22.103   4.902  50.641  1.00  0.00     0.307 C 
HETATM   21  O2  UNL     1      21.143   5.355  51.174  1.00  0.00    -0.295 OA
ENDBRANCH  13  20
ENDBRANCH   1  13
TORSDOF 5
ENDMDL
MODEL 7
REMARK VINA RESULT:      -6.4      3.624      6.469
REMARK  5 active torsions:
REMARK  status: ('A' for Active; 'I' for Inactive)
REMARK    1  A    between atoms: C1_2  and  C2_3 
REMARK    2  A    between atoms: C7_8  and  C8_9 
REMARK    3  A    between atoms: C9_10  and  N1_11 
REMARK    4  A    between atoms: N1_11  and  S1_12 
REMARK    5  A    between atoms: S1_12  and  C10_13 
ROOT
HETATM    1  N1  UNL     1      23.568   4.229  51.150  1.00  0.00    -0.349 N 
HETATM    2  H8  UNL     1      23.939   5.182  50.931  1.00  0.00     0.172 HD
ENDROOT
BRANCH   1   3
HETATM    3  C9  UNL     1      24.335   3.346  51.961  1.00  0.00     0.091 C 
HETATM    4  C8  UNL     1      24.329   2.557  53.015  1.00  0.00     0.000 C 
BRANCH   4   5
HETATM    5  C7  UNL     1      25.445   1.739  53.571  1.00  0.00     0.047 C 
HETATM    6  C2  UNL     1      26.627   1.827  52.620  1.00  0.00     0.082 C 
HETATM    7  C3  UNL     1      26.756   0.597  51.777  1.00  0.00    -0.001 C 
HETATM    8  C4  UNL     1      26.832  -0.488  52.526  1.00  0.00    -0.018 C 
HETATM    9  C5  UNL     1      25.962  -0.661  53.478  1.00  0.00    -0.018 C 
HETATM   10  C6  UNL     1      25.073   0.282  53.615  1.00  0.00    -0.004 C 
BRANCH   6  11
HETATM   11  C1  UNL     1      27.877   1.988  53.418  1.00  0.00     0.240 C 
HETATM   12  O1  UNL     1      28.759   2.610  52.891  1.00  0.00    -0.306 OA
ENDBRANCH   6  11
ENDBRANCH   4   5
ENDBRANCH   1   3
BRANCH   1  13
HETATM   13  S1  UNL     1      21.892   3.446  50.576  1.00  0.00    -0.101 SA
HETATM   14  C11 UNL     1      20.762   3.457  51.961  1.00  0.00     0.053 A 
HETATM   15  C12 UNL     1      20.205   2.394  52.464  1.00  0.00     0.031 A 
HETATM   16  C13 UNL     1      20.455   1.081  51.934  1.00  0.00     0.031 A 
HETATM   17 CL1  UNL     1      19.626  -0.271  52.721  1.00  0.00    -0.085 Cl
HETATM   18  C14 UNL     1      21.254   0.846  50.918  1.00  0.00     0.008 A 
HETATM   19  C15 UNL     1      22.046   1.813  50.114  1.00  0.00     0.114 A 
BRANCH  13  20
HETATM   20  C10 UNL     1      21.409   4.597  49.194  1.00  0.00     0.307 C 
HETATM   21  O2  UNL     1      21.947   4.934  48.191  1.00  0.00    -0.295 OA
ENDBRANCH  13  20
ENDBRANCH   1  13
TORSDOF 5
ENDMDL
MODEL 8
REMARK VINA RESULT:      -6.3      4.667      6.962
REMARK  5 active torsions:
REMARK  status: ('A' for Active; 'I' for Inactive)
REMARK    1  A    between atoms: C1_2  and  C2_3 
REMARK    2  A    between atoms: C7_8  and  C8_9 
REMARK    3  A    between atoms: C9_10  and  N1_11 
REMARK    4  A    between atoms: N1_11  and  S1_12 
REMARK    5  A    between atoms: S1_12  and  C10_13 
ROOT
HETATM    1  N1  UNL     1      23.419   3.567  50.970  1.00  0.00    -0.349 N 
HETATM    2  H8  UNL     1      22.437   3.216  50.888  1.00  0.00     0.172 HD
ENDROOT
BRANCH   1   3
HETATM    3  C9  UNL     1      24.325   2.917  51.854  1.00  0.00     0.091 C 
HETATM    4  C8  UNL     1      24.684   2.743  53.109  1.00  0.00     0.000 C 
BRANCH   4   5
HETATM    5  C7  UNL     1      25.789   1.902  53.653  1.00  0.00     0.047 C 
HETATM    6  C2  UNL     1      26.883   1.807  52.604  1.00  0.00     0.082 C 
HETATM    7  C3  UNL     1      26.854   0.495  51.885  1.00  0.00    -0.001 C 
HETATM    8  C4  UNL     1      26.924  -0.515  52.733  1.00  0.00    -0.018 C 
HETATM    9  C5  UNL     1      26.134  -0.529  53.766  1.00  0.00    -0.018 C 
HETATM   10  C6  UNL     1      25.325   0.488  53.878  1.00  0.00    -0.004 C 
BRANCH   6  11
HETATM   11  C1  UNL     1      28.208   1.950  53.274  1.00  0.00     0.240 C 
HETATM   12  O1  UNL     1      28.227   2.641  54.256  1.00  0.00    -0.306 OA
ENDBRANCH   6  11
ENDBRANCH   4   5
ENDBRANCH   1   3
BRANCH   1  13
HETATM   13  S1  UNL     1      24.229   5.060  50.040  1.00  0.00    -0.101 SA
HETATM   14  C11 UNL     1      24.096   6.510  51.076  1.00  0.00     0.053 A 
HETATM   15  C12 UNL     1      23.493   7.610  50.728  1.00  0.00     0.031 A 
HETATM   16  C13 UNL     1      22.867   7.759  49.443  1.00  0.00     0.031 A 
HETATM   17 CL1  UNL     1      22.086   9.313  49.109  1.00  0.00    -0.085 Cl
HETATM   18  C14 UNL     1      22.847   6.817  48.527  1.00  0.00     0.008 A 
HETATM   19  C15 UNL     1      23.429   5.450  48.587  1.00  0.00     0.114 A 
BRANCH  13  20
HETATM   20  C10 UNL     1      25.974   4.445  49.819  1.00  0.00     0.307 C 
HETATM   21  O2  UNL     1      26.434   3.457  49.347  1.00  0.00    -0.295 OA
ENDBRANCH  13  20
ENDBRANCH   1  13
TORSDOF 5
ENDMDL
MODEL 9
REMARK VINA RESULT:      -6.3      2.928      3.998
REMARK  5 active torsions:
REMARK  status: ('A' for Active; 'I' for Inactive)
REMARK    1  A    between atoms: C1_2  and  C2_3 
REMARK    2  A    between atoms: C7_8  and  C8_9 
REMARK    3  A    between atoms: C9_10  and  N1_11 
REMARK    4  A    between atoms: N1_11  and  S1_12 
REMARK    5  A    between atoms: S1_12  and  C10_13 
ROOT
HETATM    1  N1  UNL     1      24.264  -0.719  53.245  1.00  0.00    -0.349 N 
HETATM    2  H8  UNL     1      24.470  -1.745  53.247  1.00  0.00     0.172 HD
ENDROOT
BRANCH   1   3
HETATM    3  C9  UNL     1      22.912  -0.275  53.262  1.00  0.00     0.091 C 
HETATM    4  C8  UNL     1      21.728  -0.414  53.822  1.00  0.00     0.000 C 
BRANCH   4   5
HETATM    5  C7  UNL     1      20.463   0.315  53.517  1.00  0.00     0.047 C 
HETATM    6  C2  UNL     1      19.831  -0.311  52.286  1.00  0.00     0.082 C 
HETATM    7  C3  UNL     1      20.064   0.515  51.060  1.00  0.00    -0.001 C 
HETATM    8  C4  UNL     1      19.639   1.753  51.231  1.00  0.00    -0.018 C 
HETATM    9  C5  UNL     1      19.990   2.399  52.304  1.00  0.00    -0.018 C 
HETATM   10  C6  UNL     1      20.746   1.744  53.141  1.00  0.00    -0.004 C 
BRANCH   6  11
HETATM   11  C1  UNL     1      18.361  -0.428  52.505  1.00  0.00     0.240 C 
HETATM   12  O1  UNL     1      18.023  -0.890  53.561  1.00  0.00    -0.306 OA
ENDBRANCH   6  11
ENDBRANCH   4   5
ENDBRANCH   1   3
BRANCH   1  13
HETATM   13  S1  UNL     1      25.528   0.747  53.220  1.00  0.00    -0.101 SA
HETATM   14  C11 UNL     1      24.612   2.281  53.140  1.00  0.00     0.053 A 
HETATM   15  C12 UNL     1      24.738   3.164  52.193  1.00  0.00     0.031 A 
HETATM   16  C13 UNL     1      25.651   2.979  51.098  1.00  0.00     0.031 A 
HETATM   17 CL1  UNL     1      25.714   4.266  49.883  1.00  0.00    -0.085 Cl
HETATM   18  C14 UNL     1      26.421   1.923  50.961  1.00  0.00     0.008 A 
HETATM   19  C15 UNL     1      26.534   0.734  51.845  1.00  0.00     0.114 A 
BRANCH  13  20
HETATM   20  C10 UNL     1      26.422   0.482  54.833  1.00  0.00     0.307 C 
HETATM   21  O2  UNL     1      27.167  -0.356  55.221  1.00  0.00    -0.295 OA
ENDBRANCH  13  20
ENDBRANCH   1  13
TORSDOF 5
ENDMDL
