MODEL 1
REMARK VINA RESULT:      -8.8      0.000      0.000
REMARK  2 active torsions:
REMARK  status: ('A' for Active; 'I' for Inactive)
REMARK    1  A    between atoms: C9_12  and  N4_13 
REMARK    2  A    between atoms: N4_13  and  C10_14 
ROOT
HETATM    1  C1  UNL     1      22.055   4.866  50.943  1.00  0.00     0.148 C 
HETATM    2  N1  UNL     1      23.226   5.568  51.309  1.00  0.00    -0.392 N 
HETATM    3  C2  UNL     1      23.893   4.390  51.729  1.00  0.00     0.086 C 
HETATM    4  C3  UNL     1      24.111   3.099  51.597  1.00  0.00     0.033 C 
HETATM    5  C4  UNL     1      24.922   2.042  52.194  1.00  0.00     0.024 A 
HETATM    6  C5  UNL     1      26.202   2.127  51.561  1.00  0.00     0.086 A 
HETATM    7  N2  UNL     1      27.188   1.324  51.957  1.00  0.00    -0.257 NA
HETATM    8  C6  UNL     1      26.989   0.415  52.961  1.00  0.00     0.142 A 
HETATM    9  C7  UNL     1      25.743   0.373  53.529  1.00  0.00     0.089 A 
HETATM   10  C8  UNL     1      25.358  -0.524  54.585  1.00  0.00     0.103 C 
HETATM   11  N3  UNL     1      25.054  -1.274  55.443  1.00  0.00    -0.191 NA
HETATM   12  C9  UNL     1      24.687   1.167  53.174  1.00  0.00     0.067 A 
HETATM   13  C16 UNL     1      26.373   3.034  50.437  1.00  0.00     0.145 C 
HETATM   14  N5  UNL     1      26.625   3.480  49.284  1.00  0.00    -0.274 NA
HETATM   15  C17 UNL     1      26.441   4.953  49.065  1.00  0.00     0.316 C 
HETATM   16  O1  UNL     1      25.571   5.316  50.045  1.00  0.00    -0.369 OA
HETATM   17  C18 UNL     1      25.057   6.575  50.137  1.00  0.00     0.189 C 
HETATM   18  C19 UNL     1      24.222   6.578  51.454  1.00  0.00     0.148 C 
ENDROOT
BRANCH  12  19
HETATM   19  N4  UNL     1      23.343   1.349  53.527  1.00  0.00    -0.354 N 
HETATM   20  H7  UNL     1      23.324   2.318  53.969  1.00  0.00     0.166 HD
BRANCH  19  21
HETATM   21  C10 UNL     1      22.152   0.577  53.420  1.00  0.00     0.033 A 
HETATM   22  C11 UNL     1      21.947  -0.438  54.329  1.00  0.00     0.029 A 
HETATM   23  C12 UNL     1      20.776  -1.141  54.170  1.00  0.00     0.004 A 
HETATM   24  C13 UNL     1      19.865  -0.854  53.172  1.00  0.00     0.019 A 
HETATM   25  C14 UNL     1      20.135   0.179  52.295  1.00  0.00     0.013 A 
HETATM   26 BR1  UNL     1      18.833   0.540  50.920  1.00  0.00    -0.051 Br
HETATM   27  C15 UNL     1      21.306   0.941  52.392  1.00  0.00     0.048 A 
ENDBRANCH  19  21
ENDBRANCH  12  19
TORSDOF 2
ENDMDL
MODEL 2
REMARK VINA RESULT:      -8.8      3.323      5.531
REMARK  2 active torsions:
REMARK  status: ('A' for Active; 'I' for Inactive)
REMARK    1  A    between atoms: C9_12  and  N4_13 
REMARK    2  A    between atoms: N4_13  and  C10_14 
ROOT
HETATM    1  C1  UNL     1      23.564   3.985  49.820  1.00  0.00     0.148 C 
HETATM    2  N1  UNL     1      23.048   2.974  48.978  1.00  0.00    -0.392 N 
HETATM    3  C2  UNL     1      22.590   2.193  50.068  1.00  0.00     0.086 C 
HETATM    4  C3  UNL     1      22.099   2.119  51.287  1.00  0.00     0.033 C 
HETATM    5  C4  UNL     1      21.669   1.113  52.253  1.00  0.00     0.024 A 
HETATM    6  C5  UNL     1      20.323   0.782  51.898  1.00  0.00     0.086 A 
HETATM    7  N2  UNL     1      19.681  -0.175  52.567  1.00  0.00    -0.257 NA
HETATM    8  C6  UNL     1      20.294  -0.844  53.592  1.00  0.00     0.142 A 
HETATM    9  C7  UNL     1      21.582  -0.483  53.892  1.00  0.00     0.089 A 
HETATM   10  C8  UNL     1      22.370  -1.073  54.941  1.00  0.00     0.103 C 
HETATM   11  N3  UNL     1      23.000  -1.558  55.812  1.00  0.00    -0.191 NA
HETATM   12  C9  UNL     1      22.300   0.486  53.248  1.00  0.00     0.067 A 
HETATM   13  C16 UNL     1      19.655   1.561  50.868  1.00  0.00     0.145 C 
HETATM   14  N5  UNL     1      18.820   2.297  50.275  1.00  0.00    -0.274 NA
HETATM   15  C17 UNL     1      19.097   2.624  48.836  1.00  0.00     0.316 C 
HETATM   16  O1  UNL     1      20.439   2.438  48.718  1.00  0.00    -0.369 OA
HETATM   17  C18 UNL     1      21.121   2.731  47.575  1.00  0.00     0.189 C 
HETATM   18  C19 UNL     1      22.582   2.254  47.839  1.00  0.00     0.148 C 
ENDROOT
BRANCH  12  19
HETATM   19  N4  UNL     1      23.568   1.080  53.322  1.00  0.00    -0.354 N 
HETATM   20  H7  UNL     1      23.359   2.104  53.525  1.00  0.00     0.166 HD
BRANCH  19  21
HETATM   21  C10 UNL     1      24.911   0.626  53.190  1.00  0.00     0.033 A 
HETATM   22  C11 UNL     1      25.124  -0.688  52.834  1.00  0.00     0.029 A 
HETATM   23  C12 UNL     1      26.444  -1.058  52.722  1.00  0.00     0.004 A 
HETATM   24  C13 UNL     1      27.485  -0.180  52.949  1.00  0.00     0.019 A 
HETATM   25  C14 UNL     1      27.198   1.124  53.304  1.00  0.00     0.013 A 
HETATM   26 BR1  UNL     1      28.686   2.310  53.611  1.00  0.00    -0.051 Br
HETATM   27  C15 UNL     1      25.879   1.577  53.438  1.00  0.00     0.048 A 
ENDBRANCH  19  21
ENDBRANCH  12  19
TORSDOF 2
ENDMDL
MODEL 3
REMARK VINA RESULT:      -8.8      1.474      2.033
REMARK  2 active torsions:
REMARK  status: ('A' for Active; 'I' for Inactive)
REMARK    1  A    between atoms: C9_12  and  N4_13 
REMARK    2  A    between atoms: N4_13  and  C10_14 
ROOT
HETATM    1  C1  UNL     1      21.612   4.933  50.395  1.00  0.00     0.148 C 
HETATM    2  N1  UNL     1      22.744   5.437  51.074  1.00  0.00    -0.392 N 
HETATM    3  C2  UNL     1      23.097   4.165  51.590  1.00  0.00     0.086 C 
HETATM    4  C3  UNL     1      23.144   2.857  51.456  1.00  0.00     0.033 C 
HETATM    5  C4  UNL     1      23.607   1.681  52.185  1.00  0.00     0.024 A 
HETATM    6  C5  UNL     1      25.004   1.567  51.896  1.00  0.00     0.086 A 
HETATM    7  N2  UNL     1      25.724   0.615  52.487  1.00  0.00    -0.257 NA
HETATM    8  C6  UNL     1      25.142  -0.259  53.365  1.00  0.00     0.142 A 
HETATM    9  C7  UNL     1      23.801  -0.108  53.601  1.00  0.00     0.089 A 
HETATM   10  C8  UNL     1      23.030  -0.941  54.485  1.00  0.00     0.103 C 
HETATM   11  N3  UNL     1      22.409  -1.640  55.204  1.00  0.00    -0.191 NA
HETATM   12  C9  UNL     1      23.002   0.846  53.033  1.00  0.00     0.067 A 
HETATM   13  C16 UNL     1      25.589   2.444  50.894  1.00  0.00     0.145 C 
HETATM   14  N5  UNL     1      26.189   2.853  49.863  1.00  0.00    -0.274 NA
HETATM   15  C17 UNL     1      26.292   4.338  49.675  1.00  0.00     0.316 C 
HETATM   16  O1  UNL     1      25.268   4.827  50.423  1.00  0.00    -0.369 OA
HETATM   17  C18 UNL     1      24.943   6.151  50.444  1.00  0.00     0.189 C 
HETATM   18  C19 UNL     1      23.812   6.276  51.510  1.00  0.00     0.148 C 
ENDROOT
BRANCH  12  19
HETATM   19  N4  UNL     1      21.656   1.236  53.048  1.00  0.00    -0.354 N 
HETATM   20  H7  UNL     1      21.650   2.109  53.658  1.00  0.00     0.166 HD
BRANCH  19  21
HETATM   21  C10 UNL     1      20.450   0.744  52.475  1.00  0.00     0.033 A 
HETATM   22  C11 UNL     1      20.015   1.298  51.291  1.00  0.00     0.029 A 
HETATM   23  C12 UNL     1      18.845   0.774  50.792  1.00  0.00     0.004 A 
HETATM   24  C13 UNL     1      18.153  -0.238  51.428  1.00  0.00     0.019 A 
HETATM   25  C14 UNL     1      18.647  -0.748  52.612  1.00  0.00     0.013 A 
HETATM   26 BR1  UNL     1      17.643  -2.157  53.461  1.00  0.00    -0.051 Br
HETATM   27  C15 UNL     1      19.831  -0.265  53.184  1.00  0.00     0.048 A 
ENDBRANCH  19  21
ENDBRANCH  12  19
TORSDOF 2
ENDMDL
MODEL 4
REMARK VINA RESULT:      -8.7      2.669      5.872
REMARK  2 active torsions:
REMARK  status: ('A' for Active; 'I' for Inactive)
REMARK    1  A    between atoms: C9_12  and  N4_13 
REMARK    2  A    between atoms: N4_13  and  C10_14 
ROOT
HETATM    1  C1  UNL     1      20.575   3.218  52.317  1.00  0.00     0.148 C 
HETATM    2  N1  UNL     1      20.563   1.969  51.657  1.00  0.00    -0.392 N 
HETATM    3  C2  UNL     1      21.857   1.624  52.122  1.00  0.00     0.086 C 
HETATM    4  C3  UNL     1      22.781   1.679  53.057  1.00  0.00     0.033 C 
HETATM    5  C4  UNL     1      24.131   1.187  53.317  1.00  0.00     0.024 A 
HETATM    6  C5  UNL     1      23.971  -0.141  53.823  1.00  0.00     0.086 A 
HETATM    7  N2  UNL     1      25.048  -0.880  54.087  1.00  0.00    -0.257 NA
HETATM    8  C6  UNL     1      26.306  -0.381  53.882  1.00  0.00     0.142 A 
HETATM    9  C7  UNL     1      26.400   0.898  53.400  1.00  0.00     0.089 A 
HETATM   10  C8  UNL     1      27.638   1.581  53.136  1.00  0.00     0.103 C 
HETATM   11  N3  UNL     1      28.662   2.132  52.936  1.00  0.00    -0.191 NA
HETATM   12  C9  UNL     1      25.340   1.711  53.107  1.00  0.00     0.067 A 
HETATM   13  C16 UNL     1      22.632  -0.625  54.121  1.00  0.00     0.145 C 
HETATM   14  N5  UNL     1      21.636  -1.091  54.739  1.00  0.00    -0.274 NA
HETATM   15  C17 UNL     1      20.365  -1.257  53.959  1.00  0.00     0.316 C 
HETATM   16  O1  UNL     1      20.507  -0.388  52.924  1.00  0.00    -0.369 OA
HETATM   17  C18 UNL     1      19.512  -0.153  52.023  1.00  0.00     0.189 C 
HETATM   18  C19 UNL     1      20.142   0.798  50.960  1.00  0.00     0.148 C 
ENDROOT
BRANCH  12  19
HETATM   19  N4  UNL     1      25.109   3.013  52.642  1.00  0.00    -0.354 N 
HETATM   20  H7  UNL     1      24.820   3.550  53.515  1.00  0.00     0.166 HD
BRANCH  19  21
HETATM   21  C10 UNL     1      25.179   3.667  51.379  1.00  0.00     0.033 A 
HETATM   22  C11 UNL     1      26.228   3.358  50.540  1.00  0.00     0.029 A 
HETATM   23  C12 UNL     1      26.233   4.024  49.336  1.00  0.00     0.004 A 
HETATM   24  C13 UNL     1      25.257   4.938  48.988  1.00  0.00     0.019 A 
HETATM   25  C14 UNL     1      24.234   5.199  49.878  1.00  0.00     0.013 A 
HETATM   26 BR1  UNL     1      22.898   6.483  49.346  1.00  0.00    -0.051 Br
HETATM   27  C15 UNL     1      24.161   4.562  51.124  1.00  0.00     0.048 A 
ENDBRANCH  19  21
ENDBRANCH  12  19
TORSDOF 2
ENDMDL
MODEL 5
REMARK VINA RESULT:      -8.1      2.947      6.847
REMARK  2 active torsions:
REMARK  status: ('A' for Active; 'I' for Inactive)
REMARK    1  A    between atoms: C9_12  and  N4_13 
REMARK    2  A    between atoms: N4_13  and  C10_14 
ROOT
HETATM    1  C1  UNL     1      26.719   1.850  51.103  1.00  0.00     0.148 C 
HETATM    2  N1  UNL     1      26.471   2.026  52.483  1.00  0.00    -0.392 N 
HETATM    3  C2  UNL     1      25.088   2.263  52.283  1.00  0.00     0.086 C 
HETATM    4  C3  UNL     1      23.981   2.037  51.608  1.00  0.00     0.033 C 
HETATM    5  C4  UNL     1      22.575   2.428  51.615  1.00  0.00     0.024 A 
HETATM    6  C5  UNL     1      21.938   1.575  52.571  1.00  0.00     0.086 A 
HETATM    7  N2  UNL     1      20.647   1.748  52.851  1.00  0.00    -0.257 NA
HETATM    8  C6  UNL     1      19.922   2.730  52.231  1.00  0.00     0.142 A 
HETATM    9  C7  UNL     1      20.581   3.514  51.321  1.00  0.00     0.089 A 
HETATM   10  C8  UNL     1      19.974   4.582  50.573  1.00  0.00     0.103 C 
HETATM   11  N3  UNL     1      19.458   5.447  49.959  1.00  0.00    -0.191 NA
HETATM   12  C9  UNL     1      21.902   3.394  50.987  1.00  0.00     0.067 A 
HETATM   13  C16 UNL     1      22.697   0.481  53.154  1.00  0.00     0.145 C 
HETATM   14  N5  UNL     1      23.056  -0.678  53.500  1.00  0.00    -0.274 NA
HETATM   15  C17 UNL     1      24.333  -0.794  54.279  1.00  0.00     0.316 C 
HETATM   16  O1  UNL     1      25.007   0.343  53.961  1.00  0.00    -0.369 OA
HETATM   17  C18 UNL     1      26.279   0.584  54.386  1.00  0.00     0.189 C 
HETATM   18  C19 UNL     1      26.603   2.030  53.903  1.00  0.00     0.148 C 
ENDROOT
BRANCH  12  19
HETATM   19  N4  UNL     1      22.827   3.995  50.122  1.00  0.00    -0.354 N 
HETATM   20  H7  UNL     1      22.775   3.403  49.239  1.00  0.00     0.166 HD
BRANCH  19  21
HETATM   21  C10 UNL     1      23.713   5.108  50.197  1.00  0.00     0.033 A 
HETATM   22  C11 UNL     1      23.370   6.162  51.016  1.00  0.00     0.029 A 
HETATM   23  C12 UNL     1      24.271   7.201  51.043  1.00  0.00     0.004 A 
HETATM   24  C13 UNL     1      25.439   7.193  50.305  1.00  0.00     0.019 A 
HETATM   25  C14 UNL     1      25.719   6.102  49.506  1.00  0.00     0.013 A 
HETATM   26 BR1  UNL     1      27.360   6.139  48.495  1.00  0.00    -0.051 Br
HETATM   27  C15 UNL     1      24.851   5.006  49.424  1.00  0.00     0.048 A 
ENDBRANCH  19  21
ENDBRANCH  12  19
TORSDOF 2
ENDMDL
MODEL 6
REMARK VINA RESULT:      -8.0      2.405      4.629
REMARK  2 active torsions:
REMARK  status: ('A' for Active; 'I' for Inactive)
REMARK    1  A    between atoms: C9_12  and  N4_13 
REMARK    2  A    between atoms: N4_13  and  C10_14 
ROOT
HETATM    1  C1  UNL     1      26.673   2.454  51.581  1.00  0.00     0.148 C 
HETATM    2  N1  UNL     1      26.176   3.071  50.411  1.00  0.00    -0.392 N 
HETATM    3  C2  UNL     1      24.825   2.910  50.807  1.00  0.00     0.086 C 
HETATM    4  C3  UNL     1      23.918   2.855  51.760  1.00  0.00     0.033 C 
HETATM    5  C4  UNL     1      22.478   2.678  51.914  1.00  0.00     0.024 A 
HETATM    6  C5  UNL     1      21.902   3.971  51.706  1.00  0.00     0.086 A 
HETATM    7  N2  UNL     1      20.577   4.112  51.714  1.00  0.00    -0.257 NA
HETATM    8  C6  UNL     1      19.760   3.033  51.922  1.00  0.00     0.142 A 
HETATM    9  C7  UNL     1      20.365   1.820  52.120  1.00  0.00     0.089 A 
HETATM   10  C8  UNL     1      19.663   0.588  52.362  1.00  0.00     0.103 C 
HETATM   11  N3  UNL     1      19.073  -0.412  52.570  1.00  0.00    -0.191 NA
HETATM   12  C9  UNL     1      21.716   1.603  52.124  1.00  0.00     0.067 A 
HETATM   13  C16 UNL     1      22.782   5.121  51.576  1.00  0.00     0.145 C 
HETATM   14  N5  UNL     1      23.329   6.240  51.776  1.00  0.00    -0.274 NA
HETATM   15  C17 UNL     1      24.460   6.621  50.866  1.00  0.00     0.316 C 
HETATM   16  O1  UNL     1      24.905   5.427  50.392  1.00  0.00    -0.369 OA
HETATM   17  C18 UNL     1      26.008   5.319  49.599  1.00  0.00     0.189 C 
HETATM   18  C19 UNL     1      26.076   3.814  49.198  1.00  0.00     0.148 C 
ENDROOT
BRANCH  12  19
HETATM   19  N4  UNL     1      22.610   0.539  52.308  1.00  0.00    -0.354 N 
HETATM   20  H7  UNL     1      22.757   0.155  51.326  1.00  0.00     0.166 HD
BRANCH  19  21
HETATM   21  C10 UNL     1      23.271  -0.049  53.423  1.00  0.00     0.033 A 
HETATM   22  C11 UNL     1      22.518  -0.771  54.324  1.00  0.00     0.029 A 
HETATM   23  C12 UNL     1      23.220  -1.313  55.374  1.00  0.00     0.004 A 
HETATM   24  C13 UNL     1      24.584  -1.150  55.521  1.00  0.00     0.019 A 
HETATM   25  C14 UNL     1      25.277  -0.414  54.580  1.00  0.00     0.013 A 
HETATM   26 BR1  UNL     1      27.178  -0.215  54.829  1.00  0.00    -0.051 Br
HETATM   27  C15 UNL     1      24.632   0.170  53.482  1.00  0.00     0.048 A 
ENDBRANCH  19  21
ENDBRANCH  12  19
TORSDOF 2
ENDMDL
MODEL 7
REMARK VINA RESULT:      -8.0      1.929      2.525
REMARK  2 active torsions:
REMARK  status: ('A' for Active; 'I' for Inactive)
REMARK    1  A    between atoms: C9_12  and  N4_13 
REMARK    2  A    between atoms: N4_13  and  C10_14 
ROOT
HETATM    1  C1  UNL     1      22.631   4.744  47.390  1.00  0.00     0.148 C 
HETATM    2  N1  UNL     1      23.189   5.679  48.291  1.00  0.00    -0.392 N 
HETATM    3  C2  UNL     1      23.646   4.670  49.175  1.00  0.00     0.086 C 
HETATM    4  C3  UNL     1      24.115   3.456  49.369  1.00  0.00     0.033 C 
HETATM    5  C4  UNL     1      24.553   2.596  50.464  1.00  0.00     0.024 A 
HETATM    6  C5  UNL     1      25.914   2.955  50.723  1.00  0.00     0.086 A 
HETATM    7  N2  UNL     1      26.567   2.380  51.731  1.00  0.00    -0.257 NA
HETATM    8  C6  UNL     1      25.953   1.446  52.521  1.00  0.00     0.142 A 
HETATM    9  C7  UNL     1      24.651   1.137  52.225  1.00  0.00     0.089 A 
HETATM   10  C8  UNL     1      23.859   0.175  52.943  1.00  0.00     0.103 C 
HETATM   11  N3  UNL     1      23.226  -0.626  53.535  1.00  0.00    -0.191 NA
HETATM   12  C9  UNL     1      23.920   1.687  51.209  1.00  0.00     0.067 A 
HETATM   13  C16 UNL     1      26.581   3.881  49.821  1.00  0.00     0.145 C 
HETATM   14  N5  UNL     1      27.407   4.374  49.005  1.00  0.00    -0.274 NA
HETATM   15  C17 UNL     1      27.149   5.774  48.532  1.00  0.00     0.316 C 
HETATM   16  O1  UNL     1      25.815   5.940  48.735  1.00  0.00    -0.369 OA
HETATM   17  C18 UNL     1      25.146   7.059  48.336  1.00  0.00     0.189 C 
HETATM   18  C19 UNL     1      23.694   6.879  48.873  1.00  0.00     0.148 C 
ENDROOT
BRANCH  12  19
HETATM   19  N4  UNL     1      22.637   1.577  50.656  1.00  0.00    -0.354 N 
HETATM   20  H7  UNL     1      22.813   1.223  49.667  1.00  0.00     0.166 HD
BRANCH  19  21
HETATM   21  C10 UNL     1      21.310   1.821  51.113  1.00  0.00     0.033 A 
HETATM   22  C11 UNL     1      20.905   3.128  51.274  1.00  0.00     0.029 A 
HETATM   23  C12 UNL     1      19.613   3.292  51.715  1.00  0.00     0.004 A 
HETATM   24  C13 UNL     1      18.776   2.225  51.978  1.00  0.00     0.019 A 
HETATM   25  C14 UNL     1      19.248   0.940  51.794  1.00  0.00     0.013 A 
HETATM   26 BR1  UNL     1      18.042  -0.514  52.175  1.00  0.00    -0.051 Br
HETATM   27  C15 UNL     1      20.553   0.692  51.348  1.00  0.00     0.048 A 
ENDBRANCH  19  21
ENDBRANCH  12  19
TORSDOF 2
ENDMDL
MODEL 8
REMARK VINA RESULT:      -7.9      3.236      6.222
REMARK  2 active torsions:
REMARK  status: ('A' for Active; 'I' for Inactive)
REMARK    1  A    between atoms: C9_12  and  N4_13 
REMARK    2  A    between atoms: N4_13  and  C10_14 
ROOT
HETATM    1  C1  UNL     1      19.211   3.576  51.576  1.00  0.00     0.148 C 
HETATM    2  N1  UNL     1      19.223   2.366  50.845  1.00  0.00    -0.392 N 
HETATM    3  C2  UNL     1      20.436   1.932  51.436  1.00  0.00     0.086 C 
HETATM    4  C3  UNL     1      21.244   1.890  52.475  1.00  0.00     0.033 C 
HETATM    5  C4  UNL     1      22.530   1.318  52.860  1.00  0.00     0.024 A 
HETATM    6  C5  UNL     1      22.253  -0.026  53.265  1.00  0.00     0.086 A 
HETATM    7  N2  UNL     1      23.258  -0.832  53.607  1.00  0.00    -0.257 NA
HETATM    8  C6  UNL     1      24.552  -0.386  53.580  1.00  0.00     0.142 A 
HETATM    9  C7  UNL     1      24.759   0.911  53.190  1.00  0.00     0.089 A 
HETATM   10  C8  UNL     1      26.048   1.544  53.113  1.00  0.00     0.103 C 
HETATM   11  N3  UNL     1      27.111   2.052  53.066  1.00  0.00    -0.191 NA
HETATM   12  C9  UNL     1      23.777   1.791  52.824  1.00  0.00     0.067 A 
HETATM   13  C16 UNL     1      20.869  -0.458  53.375  1.00  0.00     0.145 C 
HETATM   14  N5  UNL     1      19.787  -0.905  53.844  1.00  0.00    -0.274 NA
HETATM   15  C17 UNL     1      18.611  -0.965  52.914  1.00  0.00     0.316 C 
HETATM   16  O1  UNL     1      18.914  -0.049  51.956  1.00  0.00    -0.369 OA
HETATM   17  C18 UNL     1      18.045   0.284  50.960  1.00  0.00     0.189 C 
HETATM   18  C19 UNL     1      18.837   1.257  50.036  1.00  0.00     0.148 C 
ENDROOT
BRANCH  12  19
HETATM   19  N4  UNL     1      23.661   3.126  52.413  1.00  0.00    -0.354 N 
HETATM   20  H7  UNL     1      23.315   3.632  53.284  1.00  0.00     0.166 HD
BRANCH  19  21
HETATM   21  C10 UNL     1      23.888   3.839  51.201  1.00  0.00     0.033 A 
HETATM   22  C11 UNL     1      22.805   4.398  50.559  1.00  0.00     0.029 A 
HETATM   23  C12 UNL     1      23.096   5.074  49.397  1.00  0.00     0.004 A 
HETATM   24  C13 UNL     1      24.382   5.187  48.905  1.00  0.00     0.019 A 
HETATM   25  C14 UNL     1      25.421   4.601  49.601  1.00  0.00     0.013 A 
HETATM   26 BR1  UNL     1      27.196   4.787  48.872  1.00  0.00    -0.051 Br
HETATM   27  C15 UNL     1      25.204   3.896  50.792  1.00  0.00     0.048 A 
ENDBRANCH  19  21
ENDBRANCH  12  19
TORSDOF 2
ENDMDL
MODEL 9
REMARK VINA RESULT:      -7.8      3.218      6.258
REMARK  2 active torsions:
REMARK  status: ('A' for Active; 'I' for Inactive)
REMARK    1  A    between atoms: C9_12  and  N4_13 
REMARK    2  A    between atoms: N4_13  and  C10_14 
ROOT
HETATM    1  C1  UNL     1      19.229   2.945  51.895  1.00  0.00     0.148 C 
HETATM    2  N1  UNL     1      19.356   1.582  51.546  1.00  0.00    -0.392 N 
HETATM    3  C2  UNL     1      20.772   1.630  51.562  1.00  0.00     0.086 C 
HETATM    4  C3  UNL     1      21.888   2.118  52.062  1.00  0.00     0.033 C 
HETATM    5  C4  UNL     1      23.332   1.981  51.899  1.00  0.00     0.024 A 
HETATM    6  C5  UNL     1      23.706   0.842  52.681  1.00  0.00     0.086 A 
HETATM    7  N2  UNL     1      24.971   0.423  52.671  1.00  0.00    -0.257 NA
HETATM    8  C6  UNL     1      25.917   1.071  51.924  1.00  0.00     0.142 A 
HETATM    9  C7  UNL     1      25.504   2.158  51.198  1.00  0.00     0.089 A 
HETATM   10  C8  UNL     1      26.364   2.958  50.369  1.00  0.00     0.103 C 
HETATM   11  N3  UNL     1      27.084   3.612  49.701  1.00  0.00    -0.191 NA
HETATM   12  C9  UNL     1      24.225   2.642  51.160  1.00  0.00     0.067 A 
HETATM   13  C16 UNL     1      22.711   0.219  53.539  1.00  0.00     0.145 C 
HETATM   14  N5  UNL     1      22.122  -0.232  54.559  1.00  0.00    -0.274 NA
HETATM   15  C17 UNL     1      20.768  -0.846  54.351  1.00  0.00     0.316 C 
HETATM   16  O1  UNL     1      20.341  -0.291  53.185  1.00  0.00    -0.369 OA
HETATM   17  C18 UNL     1      19.092  -0.510  52.685  1.00  0.00     0.189 C 
HETATM   18  C19 UNL     1      19.078   0.205  51.300  1.00  0.00     0.148 C 
ENDROOT
BRANCH  12  19
HETATM   19  N4  UNL     1      23.516   3.694  50.565  1.00  0.00    -0.354 N 
HETATM   20  H7  UNL     1      23.329   4.365  51.370  1.00  0.00     0.166 HD
BRANCH  19  21
HETATM   21  C10 UNL     1      23.056   3.991  49.251  1.00  0.00     0.033 A 
HETATM   22  C11 UNL     1      22.525   2.967  48.496  1.00  0.00     0.029 A 
HETATM   23  C12 UNL     1      22.098   3.325  47.239  1.00  0.00     0.004 A 
HETATM   24  C13 UNL     1      22.191   4.618  46.761  1.00  0.00     0.019 A 
HETATM   25  C14 UNL     1      22.734   5.595  47.573  1.00  0.00     0.013 A 
HETATM   26 BR1  UNL     1      22.842   7.383  46.860  1.00  0.00    -0.051 Br
HETATM   27  C15 UNL     1      23.191   5.309  48.865  1.00  0.00     0.048 A 
ENDBRANCH  19  21
ENDBRANCH  12  19
TORSDOF 2
ENDMDL
