MODEL 1
REMARK VINA RESULT:      -8.1      0.000      0.000
REMARK  2 active torsions:
REMARK  status: ('A' for Active; 'I' for Inactive)
REMARK    1  A    between atoms: C6_8  and  O1_9 
REMARK    2  A    between atoms: O1_9  and  C7_10 
ROOT
HETATM    1  C1  UNL     1      21.292   0.693  49.605  1.00  0.00    -0.017 C 
HETATM    2  C2  UNL     1      21.844   1.634  48.860  1.00  0.00     0.094 C 
HETATM    3  N1  UNL     1      22.052   2.611  49.768  1.00  0.00    -0.238 NA
HETATM    4  C3  UNL     1      23.402   2.804  49.944  1.00  0.00     0.244 C 
HETATM    5  N2  UNL     1      24.666   2.756  50.367  1.00  0.00    -0.191 NA
HETATM    6  C4  UNL     1      24.832   1.888  51.399  1.00  0.00     0.043 C 
HETATM    7  C5  UNL     1      24.949   1.167  52.259  1.00  0.00    -0.014 C 
HETATM    8  C6  UNL     1      25.067   0.292  53.310  1.00  0.00     0.161 C 
HETATM    9  C11 UNL     1      23.797  -0.054  53.309  1.00  0.00     0.140 C 
HETATM   10  O3  UNL     1      24.057  -0.885  54.365  1.00  0.00    -0.343 OA
HETATM   11  C12 UNL     1      23.069  -1.428  55.246  1.00  0.00     0.202 C 
HETATM   12  C13 UNL     1      21.709  -0.843  54.853  1.00  0.00     0.202 C 
HETATM   13  O4  UNL     1      21.725  -0.713  53.427  1.00  0.00    -0.350 OA
HETATM   14  C14 UNL     1      22.533   0.129  52.689  1.00  0.00     0.088 C 
HETATM   15  C15 UNL     1      22.313   0.933  51.664  1.00  0.00     0.094 C 
HETATM   16  C16 UNL     1      21.200   1.325  50.842  1.00  0.00     0.019 C 
ENDROOT
BRANCH   8  17
HETATM   17  O1  UNL     1      26.364   0.437  53.551  1.00  0.00    -0.332 OA
BRANCH  17  18
HETATM   18  C7  UNL     1      27.424  -0.317  53.023  1.00  0.00     0.155 C 
HETATM   19  C8  UNL     1      28.594  -0.409  53.924  1.00  0.00     0.061 C 
HETATM   20  C9  UNL     1      29.280  -1.658  53.349  1.00  0.00     0.170 C 
HETATM   21  O2  UNL     1      28.206  -2.503  53.173  1.00  0.00    -0.389 OA
HETATM   22  C10 UNL     1      27.115  -1.747  52.737  1.00  0.00     0.200 C 
ENDBRANCH  17  18
ENDBRANCH   8  17
TORSDOF 2
ENDMDL
MODEL 2
REMARK VINA RESULT:      -7.9      2.644      4.041
REMARK  2 active torsions:
REMARK  status: ('A' for Active; 'I' for Inactive)
REMARK    1  A    between atoms: C6_8  and  O1_9 
REMARK    2  A    between atoms: O1_9  and  C7_10 
ROOT
HETATM    1  C1  UNL     1      20.804   1.101  53.411  1.00  0.00    -0.017 C 
HETATM    2  C2  UNL     1      20.351   0.108  54.156  1.00  0.00     0.094 C 
HETATM    3  N1  UNL     1      21.013  -0.946  53.631  1.00  0.00    -0.238 NA
HETATM    4  C3  UNL     1      21.892  -1.452  54.560  1.00  0.00     0.244 C 
HETATM    5  N2  UNL     1      22.964  -1.720  55.307  1.00  0.00    -0.191 NA
HETATM    6  C4  UNL     1      24.044  -0.980  54.944  1.00  0.00     0.043 C 
HETATM    7  C5  UNL     1      24.930  -0.360  54.625  1.00  0.00    -0.014 C 
HETATM    8  C6  UNL     1      25.999   0.397  54.214  1.00  0.00     0.161 C 
HETATM    9  C11 UNL     1      25.334   1.022  53.267  1.00  0.00     0.140 C 
HETATM   10  O3  UNL     1      26.481   1.703  52.958  1.00  0.00    -0.343 OA
HETATM   11  C12 UNL     1      26.717   2.401  51.731  1.00  0.00     0.202 C 
HETATM   12  C13 UNL     1      25.514   2.168  50.813  1.00  0.00     0.202 C 
HETATM   13  O4  UNL     1      24.362   2.127  51.662  1.00  0.00    -0.350 OA
HETATM   14  C14 UNL     1      24.080   1.171  52.618  1.00  0.00     0.088 C 
HETATM   15  C15 UNL     1      22.987   0.506  52.943  1.00  0.00     0.094 C 
HETATM   16  C16 UNL     1      21.620   0.430  52.504  1.00  0.00     0.019 C 
ENDROOT
BRANCH   8  17
HETATM   17  O1  UNL     1      26.909  -0.055  55.069  1.00  0.00    -0.332 OA
BRANCH  17  18
HETATM   18  C7  UNL     1      28.277  -0.265  54.832  1.00  0.00     0.155 C 
HETATM   19  C8  UNL     1      28.554  -1.064  53.619  1.00  0.00     0.061 C 
HETATM   20  C9  UNL     1      30.014  -0.661  53.356  1.00  0.00     0.170 C 
HETATM   21  O2  UNL     1      29.958   0.702  53.548  1.00  0.00    -0.389 OA
HETATM   22  C10 UNL     1      29.088   0.965  54.609  1.00  0.00     0.200 C 
ENDBRANCH  17  18
ENDBRANCH   8  17
TORSDOF 2
ENDMDL
MODEL 3
REMARK VINA RESULT:      -7.9      2.716      5.080
REMARK  2 active torsions:
REMARK  status: ('A' for Active; 'I' for Inactive)
REMARK    1  A    between atoms: C6_8  and  O1_9 
REMARK    2  A    between atoms: O1_9  and  C7_10 
ROOT
HETATM    1  C1  UNL     1      21.691  -1.901  54.205  1.00  0.00    -0.017 C 
HETATM    2  C2  UNL     1      20.504  -1.339  54.056  1.00  0.00     0.094 C 
HETATM    3  N1  UNL     1      20.724  -0.105  54.559  1.00  0.00    -0.238 NA
HETATM    4  C3  UNL     1      20.622   0.831  53.556  1.00  0.00     0.244 C 
HETATM    5  N2  UNL     1      20.866   1.680  52.557  1.00  0.00    -0.191 NA
HETATM    6  C4  UNL     1      22.176   1.693  52.199  1.00  0.00     0.043 C 
HETATM    7  C5  UNL     1      23.269   1.693  51.919  1.00  0.00    -0.014 C 
HETATM    8  C6  UNL     1      24.605   1.685  51.601  1.00  0.00     0.161 C 
HETATM    9  C11 UNL     1      24.926   0.775  52.495  1.00  0.00     0.140 C 
HETATM   10  O3  UNL     1      26.226   0.875  52.081  1.00  0.00    -0.343 OA
HETATM   11  C12 UNL     1      27.363   0.422  52.823  1.00  0.00     0.202 C 
HETATM   12  C13 UNL     1      26.869  -0.096  54.177  1.00  0.00     0.202 C 
HETATM   13  O4  UNL     1      25.600  -0.714  53.933  1.00  0.00    -0.350 OA
HETATM   14  C14 UNL     1      24.445  -0.081  53.521  1.00  0.00     0.088 C 
HETATM   15  C15 UNL     1      23.181  -0.162  53.894  1.00  0.00     0.094 C 
HETATM   16  C16 UNL     1      22.403  -0.897  54.856  1.00  0.00     0.019 C 
ENDROOT
BRANCH   8  17
HETATM   17  O1  UNL     1      24.589   2.593  50.632  1.00  0.00    -0.332 OA
BRANCH  17  18
HETATM   18  C7  UNL     1      25.503   3.638  50.422  1.00  0.00     0.155 C 
HETATM   19  C8  UNL     1      26.549   3.321  49.426  1.00  0.00     0.061 C 
HETATM   20  C9  UNL     1      26.998   4.740  49.043  1.00  0.00     0.170 C 
HETATM   21  O2  UNL     1      25.786   5.382  48.909  1.00  0.00    -0.389 OA
HETATM   22  C10 UNL     1      24.921   4.906  49.897  1.00  0.00     0.200 C 
ENDBRANCH  17  18
ENDBRANCH   8  17
TORSDOF 2
ENDMDL
MODEL 4
REMARK VINA RESULT:      -7.8      2.994      6.570
REMARK  2 active torsions:
REMARK  status: ('A' for Active; 'I' for Inactive)
REMARK    1  A    between atoms: C6_8  and  O1_9 
REMARK    2  A    between atoms: O1_9  and  C7_10 
ROOT
HETATM    1  C1  UNL     1      28.936   1.006  53.129  1.00  0.00    -0.017 C 
HETATM    2  C2  UNL     1      28.983   0.248  54.210  1.00  0.00     0.094 C 
HETATM    3  N1  UNL     1      28.093   0.869  55.015  1.00  0.00    -0.238 NA
HETATM    4  C3  UNL     1      27.006   0.051  55.224  1.00  0.00     0.244 C 
HETATM    5  N2  UNL     1      25.830  -0.572  55.149  1.00  0.00    -0.191 NA
HETATM    6  C4  UNL     1      25.072  -0.121  54.117  1.00  0.00     0.043 C 
HETATM    7  C5  UNL     1      24.455   0.270  53.257  1.00  0.00    -0.014 C 
HETATM    8  C6  UNL     1      23.717   0.768  52.212  1.00  0.00     0.161 C 
HETATM    9  C11 UNL     1      24.639   1.623  51.823  1.00  0.00     0.140 C 
HETATM   10  O3  UNL     1      23.794   2.028  50.825  1.00  0.00    -0.343 OA
HETATM   11  C12 UNL     1      23.914   3.253  50.094  1.00  0.00     0.202 C 
HETATM   12  C13 UNL     1      25.081   4.048  50.687  1.00  0.00     0.202 C 
HETATM   13  O4  UNL     1      26.068   3.085  51.074  1.00  0.00    -0.350 OA
HETATM   14  C14 UNL     1      25.941   2.133  52.066  1.00  0.00     0.088 C 
HETATM   15  C15 UNL     1      26.738   1.716  53.032  1.00  0.00     0.094 C 
HETATM   16  C16 UNL     1      28.057   2.012  53.524  1.00  0.00     0.019 C 
ENDROOT
BRANCH   8  17
HETATM   17  O1  UNL     1      22.626   0.026  52.361  1.00  0.00    -0.332 OA
BRANCH  17  18
HETATM   18  C7  UNL     1      21.299   0.468  52.485  1.00  0.00     0.155 C 
HETATM   19  C8  UNL     1      20.526   0.387  51.226  1.00  0.00     0.061 C 
HETATM   20  C9  UNL     1      19.095   0.399  51.786  1.00  0.00     0.170 C 
HETATM   21  O2  UNL     1      19.207  -0.485  52.838  1.00  0.00    -0.389 OA
HETATM   22  C10 UNL     1      20.453  -0.299  53.442  1.00  0.00     0.200 C 
ENDBRANCH  17  18
ENDBRANCH   8  17
TORSDOF 2
ENDMDL
MODEL 5
REMARK VINA RESULT:      -7.6      3.216      6.487
REMARK  2 active torsions:
REMARK  status: ('A' for Active; 'I' for Inactive)
REMARK    1  A    between atoms: C6_8  and  O1_9 
REMARK    2  A    between atoms: O1_9  and  C7_10 
ROOT
HETATM    1  C1  UNL     1      27.627   1.854  52.944  1.00  0.00    -0.017 C 
HETATM    2  C2  UNL     1      28.001   0.775  53.608  1.00  0.00     0.094 C 
HETATM    3  N1  UNL     1      27.216   0.848  54.706  1.00  0.00    -0.238 NA
HETATM    4  C3  UNL     1      26.322  -0.197  54.709  1.00  0.00     0.244 C 
HETATM    5  N2  UNL     1      25.254  -0.980  54.545  1.00  0.00    -0.191 NA
HETATM    6  C4  UNL     1      24.245  -0.346  53.894  1.00  0.00     0.043 C 
HETATM    7  C5  UNL     1      23.416   0.199  53.357  1.00  0.00    -0.014 C 
HETATM    8  C6  UNL     1      22.417   0.884  52.710  1.00  0.00     0.161 C 
HETATM    9  C11 UNL     1      23.110   1.995  52.582  1.00  0.00     0.140 C 
HETATM   10  O3  UNL     1      22.030   2.557  51.956  1.00  0.00    -0.343 OA
HETATM   11  C12 UNL     1      21.825   3.962  51.774  1.00  0.00     0.202 C 
HETATM   12  C13 UNL     1      22.965   4.704  52.478  1.00  0.00     0.202 C 
HETATM   13  O4  UNL     1      24.136   3.896  52.307  1.00  0.00    -0.350 OA
HETATM   14  C14 UNL     1      24.350   2.639  52.836  1.00  0.00     0.088 C 
HETATM   15  C15 UNL     1      25.379   2.069  53.435  1.00  0.00     0.094 C 
HETATM   16  C16 UNL     1      26.715   2.431  53.824  1.00  0.00     0.019 C 
ENDROOT
BRANCH   8  17
HETATM   17  O1  UNL     1      21.496  -0.071  52.690  1.00  0.00    -0.332 OA
BRANCH  17  18
HETATM   18  C7  UNL     1      20.112   0.069  52.884  1.00  0.00     0.155 C 
HETATM   19  C8  UNL     1      19.341   0.158  51.625  1.00  0.00     0.061 C 
HETATM   20  C9  UNL     1      17.946  -0.239  52.132  1.00  0.00     0.170 C 
HETATM   21  O2  UNL     1      18.245  -1.318  52.935  1.00  0.00    -0.389 OA
HETATM   22  C10 UNL     1      19.446  -1.057  53.599  1.00  0.00     0.200 C 
ENDBRANCH  17  18
ENDBRANCH   8  17
TORSDOF 2
ENDMDL
MODEL 6
REMARK VINA RESULT:      -7.3      3.613      5.397
REMARK  2 active torsions:
REMARK  status: ('A' for Active; 'I' for Inactive)
REMARK    1  A    between atoms: C6_8  and  O1_9 
REMARK    2  A    between atoms: O1_9  and  C7_10 
ROOT
HETATM    1  C1  UNL     1      21.008  -0.020  54.738  1.00  0.00    -0.017 C 
HETATM    2  C2  UNL     1      21.961  -0.926  54.871  1.00  0.00     0.094 C 
HETATM    3  N1  UNL     1      22.258  -1.197  53.581  1.00  0.00    -0.238 NA
HETATM    4  C3  UNL     1      23.536  -0.773  53.299  1.00  0.00     0.244 C 
HETATM    5  N2  UNL     1      24.608  -0.070  52.933  1.00  0.00    -0.191 NA
HETATM    6  C4  UNL     1      24.285   1.177  52.501  1.00  0.00     0.043 C 
HETATM    7  C5  UNL     1      23.997   2.206  52.140  1.00  0.00    -0.014 C 
HETATM    8  C6  UNL     1      23.623   3.451  51.697  1.00  0.00     0.161 C 
HETATM    9  C11 UNL     1      22.338   3.262  51.908  1.00  0.00     0.140 C 
HETATM   10  O3  UNL     1      22.109   4.526  51.434  1.00  0.00    -0.343 OA
HETATM   11  C12 UNL     1      20.841   5.019  50.989  1.00  0.00     0.202 C 
HETATM   12  C13 UNL     1      19.834   3.867  51.052  1.00  0.00     0.202 C 
HETATM   13  O4  UNL     1      20.188   3.086  52.200  1.00  0.00    -0.350 OA
HETATM   14  C14 UNL     1      21.347   2.357  52.371  1.00  0.00     0.088 C 
HETATM   15  C15 UNL     1      21.599   1.146  52.832  1.00  0.00     0.094 C 
HETATM   16  C16 UNL     1      20.854   0.032  53.355  1.00  0.00     0.019 C 
ENDROOT
BRANCH   8  17
HETATM   17  O1  UNL     1      24.823   3.925  51.385  1.00  0.00    -0.332 OA
BRANCH  17  18
HETATM   18  C7  UNL     1      25.347   4.155  50.103  1.00  0.00     0.155 C 
HETATM   19  C8  UNL     1      25.753   5.558  49.870  1.00  0.00     0.061 C 
HETATM   20  C9  UNL     1      26.722   5.368  48.692  1.00  0.00     0.170 C 
HETATM   21  O2  UNL     1      27.448   4.275  49.111  1.00  0.00    -0.389 OA
HETATM   22  C10 UNL     1      26.584   3.394  49.767  1.00  0.00     0.200 C 
ENDBRANCH  17  18
ENDBRANCH   8  17
TORSDOF 2
ENDMDL
MODEL 7
REMARK VINA RESULT:      -7.1      3.322      6.873
REMARK  2 active torsions:
REMARK  status: ('A' for Active; 'I' for Inactive)
REMARK    1  A    between atoms: C6_8  and  O1_9 
REMARK    2  A    between atoms: O1_9  and  C7_10 
ROOT
HETATM    1  C1  UNL     1      25.895  -0.052  52.642  1.00  0.00    -0.017 C 
HETATM    2  C2  UNL     1      26.173  -0.957  53.564  1.00  0.00     0.094 C 
HETATM    3  N1  UNL     1      25.665  -0.378  54.674  1.00  0.00    -0.238 NA
HETATM    4  C3  UNL     1      24.598  -1.114  55.136  1.00  0.00     0.244 C 
HETATM    5  N2  UNL     1      23.385  -1.609  55.380  1.00  0.00    -0.191 NA
HETATM    6  C4  UNL     1      22.411  -0.949  54.701  1.00  0.00     0.043 C 
HETATM    7  C5  UNL     1      21.616  -0.384  54.133  1.00  0.00    -0.014 C 
HETATM    8  C6  UNL     1      20.664   0.322  53.440  1.00  0.00     0.161 C 
HETATM    9  C11 UNL     1      21.525   1.135  52.867  1.00  0.00     0.140 C 
HETATM   10  O3  UNL     1      20.475   1.754  52.244  1.00  0.00    -0.343 OA
HETATM   11  C12 UNL     1      20.524   3.053  51.646  1.00  0.00     0.202 C 
HETATM   12  C13 UNL     1      21.912   3.646  51.911  1.00  0.00     0.202 C 
HETATM   13  O4  UNL     1      22.834   2.551  51.855  1.00  0.00    -0.350 OA
HETATM   14  C14 UNL     1      22.895   1.484  52.729  1.00  0.00     0.088 C 
HETATM   15  C15 UNL     1      23.889   0.862  53.336  1.00  0.00     0.094 C 
HETATM   16  C16 UNL     1      25.322   0.964  53.403  1.00  0.00     0.019 C 
ENDROOT
BRANCH   8  17
HETATM   17  O1  UNL     1      19.585  -0.330  53.855  1.00  0.00    -0.332 OA
BRANCH  17  18
HETATM   18  C7  UNL     1      18.755  -1.179  53.105  1.00  0.00     0.155 C 
HETATM   19  C8  UNL     1      18.168  -2.284  53.893  1.00  0.00     0.061 C 
HETATM   20  C9  UNL     1      16.974  -2.651  52.997  1.00  0.00     0.170 C 
HETATM   21  O2  UNL     1      16.479  -1.405  52.680  1.00  0.00    -0.389 OA
HETATM   22  C10 UNL     1      17.556  -0.534  52.498  1.00  0.00     0.200 C 
ENDBRANCH  17  18
ENDBRANCH   8  17
TORSDOF 2
ENDMDL
MODEL 8
REMARK VINA RESULT:      -7.0      2.085      2.366
REMARK  2 active torsions:
REMARK  status: ('A' for Active; 'I' for Inactive)
REMARK    1  A    between atoms: C6_8  and  O1_9 
REMARK    2  A    between atoms: O1_9  and  C7_10 
ROOT
HETATM    1  C1  UNL     1      20.316   3.849  50.189  1.00  0.00    -0.017 C 
HETATM    2  C2  UNL     1      20.919   5.012  50.016  1.00  0.00     0.094 C 
HETATM    3  N1  UNL     1      21.158   5.386  51.292  1.00  0.00    -0.238 NA
HETATM    4  C3  UNL     1      22.513   5.402  51.525  1.00  0.00     0.244 C 
HETATM    5  N2  UNL     1      23.768   5.090  51.853  1.00  0.00    -0.191 NA
HETATM    6  C4  UNL     1      23.881   3.814  52.303  1.00  0.00     0.043 C 
HETATM    7  C5  UNL     1      23.955   2.753  52.679  1.00  0.00    -0.014 C 
HETATM    8  C6  UNL     1      24.020   1.462  53.142  1.00  0.00     0.161 C 
HETATM    9  C11 UNL     1      22.737   1.222  52.980  1.00  0.00     0.140 C 
HETATM   10  O3  UNL     1      22.946  -0.040  53.469  1.00  0.00    -0.343 OA
HETATM   11  C12 UNL     1      21.923  -0.909  53.965  1.00  0.00     0.202 C 
HETATM   12  C13 UNL     1      20.595  -0.145  53.937  1.00  0.00     0.202 C 
HETATM   13  O4  UNL     1      20.636   0.688  52.772  1.00  0.00    -0.350 OA
HETATM   14  C14 UNL     1      21.490   1.750  52.552  1.00  0.00     0.088 C 
HETATM   15  C15 UNL     1      21.320   2.969  52.076  1.00  0.00     0.094 C 
HETATM   16  C16 UNL     1      20.236   3.773  51.578  1.00  0.00     0.019 C 
ENDROOT
BRANCH   8  17
HETATM   17  O1  UNL     1      25.319   1.407  53.409  1.00  0.00    -0.332 OA
BRANCH  17  18
HETATM   18  C7  UNL     1      26.108   0.260  53.596  1.00  0.00     0.155 C 
HETATM   19  C8  UNL     1      27.273   0.187  52.687  1.00  0.00     0.061 C 
HETATM   20  C9  UNL     1      28.161  -0.797  53.463  1.00  0.00     0.170 C 
HETATM   21  O2  UNL     1      28.046  -0.312  54.748  1.00  0.00    -0.389 OA
HETATM   22  C10 UNL     1      26.732   0.120  54.942  1.00  0.00     0.200 C 
ENDBRANCH  17  18
ENDBRANCH   8  17
TORSDOF 2
ENDMDL
MODEL 9
REMARK VINA RESULT:      -6.9      3.742      6.493
REMARK  2 active torsions:
REMARK  status: ('A' for Active; 'I' for Inactive)
REMARK    1  A    between atoms: C6_8  and  O1_9 
REMARK    2  A    between atoms: O1_9  and  C7_10 
ROOT
HETATM    1  C1  UNL     1      22.149  -0.790  54.419  1.00  0.00    -0.017 C 
HETATM    2  C2  UNL     1      23.456  -0.902  54.576  1.00  0.00     0.094 C 
HETATM    3  N1  UNL     1      23.900  -0.669  53.322  1.00  0.00    -0.238 NA
HETATM    4  C3  UNL     1      24.613   0.507  53.293  1.00  0.00     0.244 C 
HETATM    5  N2  UNL     1      24.993   1.781  53.186  1.00  0.00    -0.191 NA
HETATM    6  C4  UNL     1      23.958   2.604  52.874  1.00  0.00     0.043 C 
HETATM    7  C5  UNL     1      23.087   3.270  52.609  1.00  0.00    -0.014 C 
HETATM    8  C6  UNL     1      22.015   4.060  52.277  1.00  0.00     0.161 C 
HETATM    9  C11 UNL     1      21.147   3.071  52.266  1.00  0.00     0.140 C 
HETATM   10  O3  UNL     1      20.174   3.973  51.928  1.00  0.00    -0.343 OA
HETATM   11  C12 UNL     1      18.903   3.638  51.364  1.00  0.00     0.202 C 
HETATM   12  C13 UNL     1      18.873   2.125  51.126  1.00  0.00     0.202 C 
HETATM   13  O4  UNL     1      19.606   1.534  52.205  1.00  0.00    -0.350 OA
HETATM   14  C14 UNL     1      20.957   1.677  52.454  1.00  0.00     0.088 C 
HETATM   15  C15 UNL     1      21.914   0.831  52.789  1.00  0.00     0.094 C 
HETATM   16  C16 UNL     1      22.043  -0.578  53.046  1.00  0.00     0.019 C 
ENDROOT
BRANCH   8  17
HETATM   17  O1  UNL     1      22.637   5.231  52.213  1.00  0.00    -0.332 OA
BRANCH  17  18
HETATM   18  C7  UNL     1      22.853   6.027  51.076  1.00  0.00     0.155 C 
HETATM   19  C8  UNL     1      21.773   7.005  50.823  1.00  0.00     0.061 C 
HETATM   20  C9  UNL     1      22.520   8.008  49.930  1.00  0.00     0.170 C 
HETATM   21  O2  UNL     1      23.715   8.135  50.604  1.00  0.00    -0.389 OA
HETATM   22  C10 UNL     1      24.071   6.883  51.112  1.00  0.00     0.200 C 
ENDBRANCH  17  18
ENDBRANCH   8  17
TORSDOF 2
ENDMDL
