MODEL 1
REMARK VINA RESULT:      -8.1      0.000      0.000
REMARK  7 active torsions:
REMARK  status: ('A' for Active; 'I' for Inactive)
REMARK    1  A    between atoms: C8_8  and  N1_9 
REMARK    2  A    between atoms: N1_9  and  C9_10 
REMARK    3  A    between atoms: C11_13  and  O1_14 
REMARK    4  A    between atoms: C14_17  and  C15_18 
REMARK    5  A    between atoms: C15_18  and  C16_19 
REMARK    6  A    between atoms: C16_19  and  O2_20 
REMARK    7  A    between atoms: C20_25  and  O4_26 
ROOT
HETATM    1  C1  UNL     1      17.836  -0.061  51.789  1.00  0.00     0.018 C 
HETATM    2  C2  UNL     1      18.893  -0.201  52.365  1.00  0.00    -0.078 C 
HETATM    3  C3  UNL     1      20.137  -0.387  53.049  1.00  0.00     0.019 A 
HETATM    4  C4  UNL     1      20.280  -1.444  53.891  1.00  0.00     0.021 A 
HETATM    5  C5  UNL     1      21.451  -1.630  54.545  1.00  0.00     0.010 A 
HETATM    6  C6  UNL     1      22.465  -0.756  54.345  1.00  0.00    -0.035 A 
HETATM    7  C7  UNL     1      23.744  -0.997  55.079  1.00  0.00     0.050 C 
HETATM    8  C8  UNL     1      22.388   0.359  53.488  1.00  0.00     0.040 A 
HETATM    9  C22 UNL     1      21.168   0.475  52.866  1.00  0.00     0.050 A 
ENDROOT
BRANCH   8  10
HETATM   10  N1  UNL     1      23.518   1.294  53.307  1.00  0.00    -0.353 N 
HETATM   11  H7  UNL     1      24.294   1.052  54.016  1.00  0.00     0.166 HD
BRANCH  10  12
HETATM   12  C9  UNL     1      23.314   2.180  52.206  1.00  0.00     0.074 C 
HETATM   13  C10 UNL     1      22.291   3.045  52.056  1.00  0.00     0.113 C 
HETATM   14  N2  UNL     1      22.593   4.171  51.450  1.00  0.00    -0.240 NA
HETATM   15  C11 UNL     1      23.518   4.228  50.326  1.00  0.00     0.201 C 
HETATM   16  C12 UNL     1      23.603   2.780  49.901  1.00  0.00     0.052 C 
HETATM   17  C20 UNL     1      24.872   4.780  50.644  1.00  0.00     0.206 C 
HETATM   18  C13 UNL     1      24.209   2.303  51.044  1.00  0.00     0.002 C 
HETATM   19  C14 UNL     1      25.572   1.843  51.551  1.00  0.00    -0.022 C 
HETATM   20  C18 UNL     1      26.705   2.530  51.233  1.00  0.00     0.142 C 
HETATM   21  O3  UNL     1      26.943   3.502  50.187  1.00  0.00    -0.360 OA
HETATM   22  C19 UNL     1      25.967   4.459  49.670  1.00  0.00     0.211 C 
BRANCH  15  23
HETATM   23  O1  UNL     1      22.942   5.008  49.346  1.00  0.00    -0.364 OA
HETATM   24  H8  UNL     1      22.518   4.418  48.665  1.00  0.00     0.213 HD
ENDBRANCH  15  23
BRANCH  19  25
HETATM   25  C15 UNL     1      25.236   0.638  52.238  1.00  0.00     0.067 C 
BRANCH  25  26
HETATM   26  C16 UNL     1      26.610  -0.086  52.213  1.00  0.00     0.171 C 
BRANCH  26  27
HETATM   27  O2  UNL     1      26.989  -0.638  53.381  1.00  0.00    -0.396 OA
HETATM   28  C17 UNL     1      27.713   0.169  54.196  1.00  0.00     0.201 C 
ENDBRANCH  26  27
ENDBRANCH  25  26
ENDBRANCH  19  25
BRANCH  17  29
HETATM   29  O4  UNL     1      24.726   6.161  50.778  1.00  0.00    -0.383 OA
HETATM   30  C21 UNL     1      25.631   6.860  49.990  1.00  0.00     0.202 C 
ENDBRANCH  17  29
ENDBRANCH  10  12
ENDBRANCH   8  10
TORSDOF 7
ENDMDL
MODEL 2
REMARK VINA RESULT:      -8.0      2.081      4.657
REMARK  7 active torsions:
REMARK  status: ('A' for Active; 'I' for Inactive)
REMARK    1  A    between atoms: C8_8  and  N1_9 
REMARK    2  A    between atoms: N1_9  and  C9_10 
REMARK    3  A    between atoms: C11_13  and  O1_14 
REMARK    4  A    between atoms: C14_17  and  C15_18 
REMARK    5  A    between atoms: C15_18  and  C16_19 
REMARK    6  A    between atoms: C16_19  and  O2_20 
REMARK    7  A    between atoms: C20_25  and  O4_26 
ROOT
HETATM    1  C1  UNL     1      28.513  -0.487  53.438  1.00  0.00     0.018 C 
HETATM    2  C2  UNL     1      27.305  -0.434  53.526  1.00  0.00    -0.078 C 
HETATM    3  C3  UNL     1      25.880  -0.375  53.651  1.00  0.00     0.019 A 
HETATM    4  C4  UNL     1      25.286  -0.922  54.745  1.00  0.00     0.021 A 
HETATM    5  C5  UNL     1      23.939  -0.873  54.874  1.00  0.00     0.010 A 
HETATM    6  C6  UNL     1      23.204  -0.276  53.907  1.00  0.00    -0.035 A 
HETATM    7  C7  UNL     1      21.721  -0.237  54.087  1.00  0.00     0.050 C 
HETATM    8  C8  UNL     1      23.751   0.311  52.750  1.00  0.00     0.040 A 
HETATM    9  C22 UNL     1      25.121   0.218  52.697  1.00  0.00     0.050 A 
ENDROOT
BRANCH   8  10
HETATM   10  N1  UNL     1      22.909   0.945  51.714  1.00  0.00    -0.353 N 
HETATM   11  H7  UNL     1      22.376   0.179  51.175  1.00  0.00     0.166 HD
BRANCH  10  12
HETATM   12  C9  UNL     1      22.961   2.371  51.775  1.00  0.00     0.074 C 
HETATM   13  C10 UNL     1      23.561   3.108  52.732  1.00  0.00     0.113 C 
HETATM   14  N2  UNL     1      24.104   4.230  52.317  1.00  0.00    -0.240 NA
HETATM   15  C11 UNL     1      23.482   5.068  51.300  1.00  0.00     0.201 C 
HETATM   16  C12 UNL     1      22.068   4.538  51.262  1.00  0.00     0.052 C 
HETATM   17  C20 UNL     1      24.121   5.006  49.948  1.00  0.00     0.206 C 
HETATM   18  C13 UNL     1      22.370   3.281  50.781  1.00  0.00     0.002 C 
HETATM   19  C14 UNL     1      22.309   2.466  49.494  1.00  0.00    -0.022 C 
HETATM   20  C18 UNL     1      22.675   3.014  48.301  1.00  0.00     0.142 C 
HETATM   21  O3  UNL     1      22.832   4.403  47.922  1.00  0.00    -0.360 OA
HETATM   22  C19 UNL     1      23.287   5.483  48.796  1.00  0.00     0.211 C 
BRANCH  15  23
HETATM   23  O1  UNL     1      23.521   6.371  51.747  1.00  0.00    -0.364 OA
HETATM   24  H8  UNL     1      24.129   6.900  51.162  1.00  0.00     0.213 HD
ENDBRANCH  15  23
BRANCH  19  25
HETATM   25  C15 UNL     1      21.751   1.236  49.953  1.00  0.00     0.067 C 
BRANCH  25  26
HETATM   26  C16 UNL     1      20.367   1.282  49.252  1.00  0.00     0.171 C 
BRANCH  26  27
HETATM   27  O2  UNL     1      19.304   1.287  50.080  1.00  0.00    -0.396 OA
HETATM   28  C17 UNL     1      19.414   0.489  51.171  1.00  0.00     0.201 C 
ENDBRANCH  26  27
ENDBRANCH  25  26
ENDBRANCH  19  25
BRANCH  17  29
HETATM   29  O4  UNL     1      25.308   5.734  50.027  1.00  0.00    -0.383 OA
HETATM   30  C21 UNL     1      26.332   5.143  49.300  1.00  0.00     0.202 C 
ENDBRANCH  17  29
ENDBRANCH  10  12
ENDBRANCH   8  10
TORSDOF 7
ENDMDL
MODEL 3
REMARK VINA RESULT:      -7.8      2.567      4.511
REMARK  7 active torsions:
REMARK  status: ('A' for Active; 'I' for Inactive)
REMARK    1  A    between atoms: C8_8  and  N1_9 
REMARK    2  A    between atoms: N1_9  and  C9_10 
REMARK    3  A    between atoms: C11_13  and  O1_14 
REMARK    4  A    between atoms: C14_17  and  C15_18 
REMARK    5  A    between atoms: C15_18  and  C16_19 
REMARK    6  A    between atoms: C16_19  and  O2_20 
REMARK    7  A    between atoms: C20_25  and  O4_26 
ROOT
HETATM    1  C1  UNL     1      21.312  -1.152  54.216  1.00  0.00     0.018 C 
HETATM    2  C2  UNL     1      22.251  -0.569  53.719  1.00  0.00    -0.078 C 
HETATM    3  C3  UNL     1      23.375   0.104  53.142  1.00  0.00     0.019 A 
HETATM    4  C4  UNL     1      24.614  -0.109  53.658  1.00  0.00     0.021 A 
HETATM    5  C5  UNL     1      25.684   0.523  53.120  1.00  0.00     0.010 A 
HETATM    6  C6  UNL     1      25.500   1.360  52.072  1.00  0.00    -0.035 A 
HETATM    7  C7  UNL     1      26.705   2.034  51.502  1.00  0.00     0.050 C 
HETATM    8  C8  UNL     1      24.247   1.626  51.487  1.00  0.00     0.040 A 
HETATM    9  C22 UNL     1      23.217   0.946  52.091  1.00  0.00     0.050 A 
ENDROOT
BRANCH   8  10
HETATM   10  N1  UNL     1      24.091   2.555  50.348  1.00  0.00    -0.353 N 
HETATM   11  H7  UNL     1      24.505   2.101  49.462  1.00  0.00     0.166 HD
BRANCH  10  12
HETATM   12  C9  UNL     1      23.366   3.732  50.708  1.00  0.00     0.074 C 
HETATM   13  C10 UNL     1      23.552   4.476  51.816  1.00  0.00     0.113 C 
HETATM   14  N2  UNL     1      23.360   5.767  51.663  1.00  0.00    -0.240 NA
HETATM   15  C11 UNL     1      22.297   6.304  50.824  1.00  0.00     0.201 C 
HETATM   16  C12 UNL     1      21.399   5.104  50.630  1.00  0.00     0.052 C 
HETATM   17  C20 UNL     1      22.745   6.863  49.510  1.00  0.00     0.206 C 
HETATM   18  C13 UNL     1      22.291   4.339  49.907  1.00  0.00     0.002 C 
HETATM   19  C14 UNL     1      22.568   3.890  48.476  1.00  0.00    -0.022 C 
HETATM   20  C18 UNL     1      22.472   4.767  47.437  1.00  0.00     0.142 C 
HETATM   21  O3  UNL     1      21.816   6.055  47.362  1.00  0.00    -0.360 OA
HETATM   22  C19 UNL     1      21.687   7.015  48.457  1.00  0.00     0.211 C 
BRANCH  15  23
HETATM   23  O1  UNL     1      21.662   7.299  51.535  1.00  0.00    -0.364 OA
HETATM   24  H8  UNL     1      21.127   7.859  50.908  1.00  0.00     0.213 HD
ENDBRANCH  15  23
BRANCH  19  25
HETATM   25  C15 UNL     1      22.811   2.495  48.649  1.00  0.00     0.067 C 
BRANCH  25  26
HETATM   26  C16 UNL     1      21.435   1.920  48.216  1.00  0.00     0.171 C 
BRANCH  26  27
HETATM   27  O2  UNL     1      20.910   1.000  49.048  1.00  0.00    -0.396 OA
HETATM   28  C17 UNL     1      19.847   1.417  49.778  1.00  0.00     0.201 C 
ENDBRANCH  26  27
ENDBRANCH  25  26
ENDBRANCH  19  25
BRANCH  17  29
HETATM   29  O4  UNL     1      23.348   8.092  49.778  1.00  0.00    -0.383 OA
HETATM   30  C21 UNL     1      24.585   8.212  49.158  1.00  0.00     0.202 C 
ENDBRANCH  17  29
ENDBRANCH  10  12
ENDBRANCH   8  10
TORSDOF 7
ENDMDL
MODEL 4
REMARK VINA RESULT:      -7.5      9.828     11.864
REMARK  7 active torsions:
REMARK  status: ('A' for Active; 'I' for Inactive)
REMARK    1  A    between atoms: C8_8  and  N1_9 
REMARK    2  A    between atoms: N1_9  and  C9_10 
REMARK    3  A    between atoms: C11_13  and  O1_14 
REMARK    4  A    between atoms: C14_17  and  C15_18 
REMARK    5  A    between atoms: C15_18  and  C16_19 
REMARK    6  A    between atoms: C16_19  and  O2_20 
REMARK    7  A    between atoms: C20_25  and  O4_26 
ROOT
HETATM    1  C1  UNL     1      31.672   0.618  46.423  1.00  0.00     0.018 C 
HETATM    2  C2  UNL     1      32.270   1.632  46.714  1.00  0.00    -0.078 C 
HETATM    3  C3  UNL     1      32.993   2.818  47.061  1.00  0.00     0.019 A 
HETATM    4  C4  UNL     1      34.129   2.710  47.800  1.00  0.00     0.021 A 
HETATM    5  C5  UNL     1      34.821   3.825  48.136  1.00  0.00     0.010 A 
HETATM    6  C6  UNL     1      34.368   5.033  47.725  1.00  0.00    -0.035 A 
HETATM    7  C7  UNL     1      35.162   6.238  48.110  1.00  0.00     0.050 C 
HETATM    8  C8  UNL     1      33.202   5.218  46.958  1.00  0.00     0.040 A 
HETATM    9  C22 UNL     1      32.560   4.039  46.662  1.00  0.00     0.050 A 
ENDROOT
BRANCH   8  10
HETATM   10  N1  UNL     1      32.739   6.558  46.540  1.00  0.00    -0.353 N 
HETATM   11  H7  UNL     1      33.279   6.859  45.657  1.00  0.00     0.166 HD
BRANCH  10  12
HETATM   12  C9  UNL     1      31.661   7.032  47.348  1.00  0.00     0.074 C 
HETATM   13  C10 UNL     1      31.532   6.872  48.681  1.00  0.00     0.113 C 
HETATM   14  N2  UNL     1      30.958   7.871  49.313  1.00  0.00    -0.240 NA
HETATM   15  C11 UNL     1      29.838   8.611  48.747  1.00  0.00     0.201 C 
HETATM   16  C12 UNL     1      29.374   7.699  47.635  1.00  0.00     0.052 C 
HETATM   17  C20 UNL     1      30.175   9.973  48.226  1.00  0.00     0.206 C 
HETATM   18  C13 UNL     1      30.505   7.796  46.852  1.00  0.00     0.002 C 
HETATM   19  C14 UNL     1      31.003   8.473  45.579  1.00  0.00    -0.022 C 
HETATM   20  C18 UNL     1      30.707   9.778  45.319  1.00  0.00     0.142 C 
HETATM   21  O3  UNL     1      29.689  10.635  45.890  1.00  0.00    -0.360 OA
HETATM   22  C19 UNL     1      29.195  10.579  47.265  1.00  0.00     0.211 C 
BRANCH  15  23
HETATM   23  O1  UNL     1      28.879   8.738  49.728  1.00  0.00    -0.364 OA
HETATM   24  H8  UNL     1      28.617   7.833  50.049  1.00  0.00     0.213 HD
ENDBRANCH  15  23
BRANCH  19  25
HETATM   25  C15 UNL     1      31.656   7.395  44.911  1.00  0.00     0.067 C 
BRANCH  25  26
HETATM   26  C16 UNL     1      32.368   8.169  43.769  1.00  0.00     0.171 C 
BRANCH  26  27
HETATM   27  O2  UNL     1      33.713   8.094  43.775  1.00  0.00    -0.396 OA
HETATM   28  C17 UNL     1      34.232   6.946  43.275  1.00  0.00     0.201 C 
ENDBRANCH  26  27
ENDBRANCH  25  26
ENDBRANCH  19  25
BRANCH  17  29
HETATM   29  O4  UNL     1      30.346  10.801  49.336  1.00  0.00    -0.383 OA
HETATM   30  C21 UNL     1      30.822  12.056  48.982  1.00  0.00     0.202 C 
ENDBRANCH  17  29
ENDBRANCH  10  12
ENDBRANCH   8  10
TORSDOF 7
ENDMDL
MODEL 5
REMARK VINA RESULT:      -7.5      7.384     11.428
REMARK  7 active torsions:
REMARK  status: ('A' for Active; 'I' for Inactive)
REMARK    1  A    between atoms: C8_8  and  N1_9 
REMARK    2  A    between atoms: N1_9  and  C9_10 
REMARK    3  A    between atoms: C11_13  and  O1_14 
REMARK    4  A    between atoms: C14_17  and  C15_18 
REMARK    5  A    between atoms: C15_18  and  C16_19 
REMARK    6  A    between atoms: C16_19  and  O2_20 
REMARK    7  A    between atoms: C20_25  and  O4_26 
ROOT
HETATM    1  C1  UNL     1      26.780   3.672  49.294  1.00  0.00     0.018 C 
HETATM    2  C2  UNL     1      27.237   4.733  48.928  1.00  0.00    -0.078 C 
HETATM    3  C3  UNL     1      27.765   5.997  48.511  1.00  0.00     0.019 A 
HETATM    4  C4  UNL     1      27.113   7.137  48.861  1.00  0.00     0.021 A 
HETATM    5  C5  UNL     1      27.603   8.338  48.472  1.00  0.00     0.010 A 
HETATM    6  C6  UNL     1      28.740   8.382  47.738  1.00  0.00    -0.035 A 
HETATM    7  C7  UNL     1      29.252   9.725  47.333  1.00  0.00     0.050 C 
HETATM    8  C8  UNL     1      29.466   7.243  47.341  1.00  0.00     0.040 A 
HETATM    9  C22 UNL     1      28.902   6.067  47.776  1.00  0.00     0.050 A 
ENDROOT
BRANCH   8  10
HETATM   10  N1  UNL     1      30.699   7.337  46.532  1.00  0.00    -0.353 N 
HETATM   11  H7  UNL     1      30.484   7.872  45.621  1.00  0.00     0.166 HD
BRANCH  10  12
HETATM   12  C9  UNL     1      31.831   6.788  47.208  1.00  0.00     0.074 C 
HETATM   13  C10 UNL     1      31.918   6.512  48.525  1.00  0.00     0.113 C 
HETATM   14  N2  UNL     1      32.641   5.458  48.830  1.00  0.00    -0.240 NA
HETATM   15  C11 UNL     1      33.872   5.126  48.125  1.00  0.00     0.201 C 
HETATM   16  C12 UNL     1      34.193   6.416  47.406  1.00  0.00     0.052 C 
HETATM   17  C20 UNL     1      33.768   3.982  47.166  1.00  0.00     0.206 C 
HETATM   18  C13 UNL     1      33.101   6.416  46.563  1.00  0.00     0.002 C 
HETATM   19  C14 UNL     1      32.734   6.136  45.110  1.00  0.00    -0.022 C 
HETATM   20  C18 UNL     1      33.242   5.054  44.456  1.00  0.00     0.142 C 
HETATM   21  O3  UNL     1      34.380   4.219  44.779  1.00  0.00    -0.360 OA
HETATM   22  C19 UNL     1      34.844   3.886  46.125  1.00  0.00     0.211 C 
BRANCH  15  23
HETATM   23  O1  UNL     1      34.829   4.824  49.070  1.00  0.00    -0.364 OA
HETATM   24  H8  UNL     1      35.724   5.101  48.730  1.00  0.00     0.213 HD
ENDBRANCH  15  23
BRANCH  19  25
HETATM   25  C15 UNL     1      31.921   7.264  44.791  1.00  0.00     0.067 C 
BRANCH  25  26
HETATM   26  C16 UNL     1      32.810   7.953  43.721  1.00  0.00     0.171 C 
BRANCH  26  27
HETATM   27  O2  UNL     1      33.489   9.035  44.149  1.00  0.00    -0.396 OA
HETATM   28  C17 UNL     1      32.794   9.876  44.953  1.00  0.00     0.201 C 
ENDBRANCH  26  27
ENDBRANCH  25  26
ENDBRANCH  19  25
BRANCH  17  29
HETATM   29  O4  UNL     1      33.723   2.816  47.930  1.00  0.00    -0.383 OA
HETATM   30  C21 UNL     1      32.936   1.835  47.340  1.00  0.00     0.202 C 
ENDBRANCH  17  29
ENDBRANCH  10  12
ENDBRANCH   8  10
TORSDOF 7
ENDMDL
MODEL 6
REMARK VINA RESULT:      -7.3      2.603      6.956
REMARK  7 active torsions:
REMARK  status: ('A' for Active; 'I' for Inactive)
REMARK    1  A    between atoms: C8_8  and  N1_9 
REMARK    2  A    between atoms: N1_9  and  C9_10 
REMARK    3  A    between atoms: C11_13  and  O1_14 
REMARK    4  A    between atoms: C14_17  and  C15_18 
REMARK    5  A    between atoms: C15_18  and  C16_19 
REMARK    6  A    between atoms: C16_19  and  O2_20 
REMARK    7  A    between atoms: C20_25  and  O4_26 
ROOT
HETATM    1  C1  UNL     1      27.717   7.093  47.788  1.00  0.00     0.018 C 
HETATM    2  C2  UNL     1      26.879   6.732  48.586  1.00  0.00    -0.078 C 
HETATM    3  C3  UNL     1      25.880   6.327  49.528  1.00  0.00     0.019 A 
HETATM    4  C4  UNL     1      25.256   7.270  50.282  1.00  0.00     0.021 A 
HETATM    5  C5  UNL     1      24.310   6.899  51.177  1.00  0.00     0.010 A 
HETATM    6  C6  UNL     1      24.001   5.587  51.305  1.00  0.00    -0.035 A 
HETATM    7  C7  UNL     1      22.949   5.216  52.299  1.00  0.00     0.050 C 
HETATM    8  C8  UNL     1      24.606   4.558  50.558  1.00  0.00     0.040 A 
HETATM    9  C22 UNL     1      25.552   5.020  49.676  1.00  0.00     0.050 A 
ENDROOT
BRANCH   8  10
HETATM   10  N1  UNL     1      24.243   3.136  50.739  1.00  0.00    -0.353 N 
HETATM   11  H7  UNL     1      23.216   2.993  50.444  1.00  0.00     0.166 HD
BRANCH  10  12
HETATM   12  C9  UNL     1      25.357   2.344  51.154  1.00  0.00     0.074 C 
HETATM   13  C10 UNL     1      26.655   2.709  51.115  1.00  0.00     0.113 C 
HETATM   14  N2  UNL     1      27.398   2.242  52.093  1.00  0.00    -0.240 NA
HETATM   15  C11 UNL     1      27.230   0.897  52.626  1.00  0.00     0.201 C 
HETATM   16  C12 UNL     1      26.404   0.223  51.555  1.00  0.00     0.052 C 
HETATM   17  C20 UNL     1      26.555   0.820  53.959  1.00  0.00     0.206 C 
HETATM   18  C13 UNL     1      25.266   0.986  51.712  1.00  0.00     0.002 C 
HETATM   19  C14 UNL     1      23.867   0.904  52.313  1.00  0.00    -0.022 C 
HETATM   20  C18 UNL     1      23.663   0.341  53.538  1.00  0.00     0.142 C 
HETATM   21  O3  UNL     1      24.514  -0.537  54.313  1.00  0.00    -0.360 OA
HETATM   22  C19 UNL     1      25.976  -0.512  54.336  1.00  0.00     0.211 C 
BRANCH  15  23
HETATM   23  O1  UNL     1      28.480   0.327  52.731  1.00  0.00    -0.364 OA
HETATM   24  H8  UNL     1      28.593  -0.350  52.010  1.00  0.00     0.213 HD
ENDBRANCH  15  23
BRANCH  19  25
HETATM   25  C15 UNL     1      23.066   1.444  51.263  1.00  0.00     0.067 C 
BRANCH  25  26
HETATM   26  C16 UNL     1      21.748   0.654  51.488  1.00  0.00     0.171 C 
BRANCH  26  27
HETATM   27  O2  UNL     1      20.968   0.518  50.398  1.00  0.00    -0.396 OA
HETATM   28  C17 UNL     1      21.483   1.019  49.249  1.00  0.00     0.201 C 
ENDBRANCH  26  27
ENDBRANCH  25  26
ENDBRANCH  19  25
BRANCH  17  29
HETATM   29  O4  UNL     1      27.487   1.234  54.910  1.00  0.00    -0.383 OA
HETATM   30  C21 UNL     1      28.292   0.189  55.343  1.00  0.00     0.202 C 
ENDBRANCH  17  29
ENDBRANCH  10  12
ENDBRANCH   8  10
TORSDOF 7
ENDMDL
MODEL 7
REMARK VINA RESULT:      -7.3      9.236     12.361
REMARK  7 active torsions:
REMARK  status: ('A' for Active; 'I' for Inactive)
REMARK    1  A    between atoms: C8_8  and  N1_9 
REMARK    2  A    between atoms: N1_9  and  C9_10 
REMARK    3  A    between atoms: C11_13  and  O1_14 
REMARK    4  A    between atoms: C14_17  and  C15_18 
REMARK    5  A    between atoms: C15_18  and  C16_19 
REMARK    6  A    between atoms: C16_19  and  O2_20 
REMARK    7  A    between atoms: C20_25  and  O4_26 
ROOT
HETATM    1  C1  UNL     1      30.643  12.617  49.189  1.00  0.00     0.018 C 
HETATM    2  C2  UNL     1      30.284  11.480  48.975  1.00  0.00    -0.078 C 
HETATM    3  C3  UNL     1      29.839  10.141  48.729  1.00  0.00     0.019 A 
HETATM    4  C4  UNL     1      28.713   9.692  49.343  1.00  0.00     0.021 A 
HETATM    5  C5  UNL     1      28.283   8.427  49.119  1.00  0.00     0.010 A 
HETATM    6  C6  UNL     1      28.987   7.629  48.281  1.00  0.00    -0.035 A 
HETATM    7  C7  UNL     1      28.478   6.243  48.054  1.00  0.00     0.050 C 
HETATM    8  C8  UNL     1      30.159   8.028  47.612  1.00  0.00     0.040 A 
HETATM    9  C22 UNL     1      30.526   9.322  47.894  1.00  0.00     0.050 A 
ENDROOT
BRANCH   8  10
HETATM   10  N1  UNL     1      30.901   7.119  46.712  1.00  0.00    -0.353 N 
HETATM   11  H7  UNL     1      30.421   7.107  45.747  1.00  0.00     0.166 HD
BRANCH  10  12
HETATM   12  C9  UNL     1      32.077   6.593  47.328  1.00  0.00     0.074 C 
HETATM   13  C10 UNL     1      32.238   6.321  48.639  1.00  0.00     0.113 C 
HETATM   14  N2  UNL     1      32.996   5.281  48.907  1.00  0.00    -0.240 NA
HETATM   15  C11 UNL     1      34.195   4.972  48.139  1.00  0.00     0.201 C 
HETATM   16  C12 UNL     1      34.453   6.266  47.403  1.00  0.00     0.052 C 
HETATM   17  C20 UNL     1      34.063   3.825  47.188  1.00  0.00     0.206 C 
HETATM   18  C13 UNL     1      33.319   6.245  46.619  1.00  0.00     0.002 C 
HETATM   19  C14 UNL     1      32.881   5.955  45.187  1.00  0.00    -0.022 C 
HETATM   20  C18 UNL     1      33.375   4.881  44.508  1.00  0.00     0.142 C 
HETATM   21  O3  UNL     1      34.545   4.069  44.771  1.00  0.00    -0.360 OA
HETATM   22  C19 UNL     1      35.084   3.748  46.091  1.00  0.00     0.211 C 
BRANCH  15  23
HETATM   23  O1  UNL     1      35.206   4.690  49.033  1.00  0.00    -0.364 OA
HETATM   24  H8  UNL     1      34.913   4.947  49.950  1.00  0.00     0.213 HD
ENDBRANCH  15  23
BRANCH  19  25
HETATM   25  C15 UNL     1      32.031   7.067  44.910  1.00  0.00     0.067 C 
BRANCH  25  26
HETATM   26  C16 UNL     1      32.692   7.604  43.613  1.00  0.00     0.171 C 
BRANCH  26  27
HETATM   27  O2  UNL     1      33.478   8.687  43.774  1.00  0.00    -0.396 OA
HETATM   28  C17 UNL     1      33.017   9.613  44.649  1.00  0.00     0.201 C 
ENDBRANCH  26  27
ENDBRANCH  25  26
ENDBRANCH  19  25
BRANCH  17  29
HETATM   29  O4  UNL     1      34.080   2.659  47.954  1.00  0.00    -0.383 OA
HETATM   30  C21 UNL     1      32.998   1.835  47.674  1.00  0.00     0.202 C 
ENDBRANCH  17  29
ENDBRANCH  10  12
ENDBRANCH   8  10
TORSDOF 7
ENDMDL
MODEL 8
REMARK VINA RESULT:      -7.1      3.984      7.753
REMARK  7 active torsions:
REMARK  status: ('A' for Active; 'I' for Inactive)
REMARK    1  A    between atoms: C8_8  and  N1_9 
REMARK    2  A    between atoms: N1_9  and  C9_10 
REMARK    3  A    between atoms: C11_13  and  O1_14 
REMARK    4  A    between atoms: C14_17  and  C15_18 
REMARK    5  A    between atoms: C15_18  and  C16_19 
REMARK    6  A    between atoms: C16_19  and  O2_20 
REMARK    7  A    between atoms: C20_25  and  O4_26 
ROOT
HETATM    1  C1  UNL     1      24.816   9.966  45.697  1.00  0.00     0.018 C 
HETATM    2  C2  UNL     1      25.633   9.222  46.193  1.00  0.00    -0.078 C 
HETATM    3  C3  UNL     1      26.616   8.355  46.771  1.00  0.00     0.019 A 
HETATM    4  C4  UNL     1      27.896   8.407  46.318  1.00  0.00     0.021 A 
HETATM    5  C5  UNL     1      28.834   7.591  46.857  1.00  0.00     0.010 A 
HETATM    6  C6  UNL     1      28.477   6.736  47.844  1.00  0.00    -0.035 A 
HETATM    7  C7  UNL     1      29.540   5.857  48.417  1.00  0.00     0.050 C 
HETATM    8  C8  UNL     1      27.172   6.630  48.361  1.00  0.00     0.040 A 
HETATM    9  C22 UNL     1      26.284   7.490  47.760  1.00  0.00     0.050 A 
ENDROOT
BRANCH   8  10
HETATM   10  N1  UNL     1      26.825   5.674  49.434  1.00  0.00    -0.353 N 
HETATM   11  H7  UNL     1      27.625   4.960  49.543  1.00  0.00     0.166 HD
BRANCH  10  12
HETATM   12  C9  UNL     1      25.596   6.010  50.079  1.00  0.00     0.074 C 
HETATM   13  C10 UNL     1      25.140   7.254  50.330  1.00  0.00     0.113 C 
HETATM   14  N2  UNL     1      23.836   7.399  50.256  1.00  0.00    -0.240 NA
HETATM   15  C11 UNL     1      22.909   6.378  50.727  1.00  0.00     0.201 C 
HETATM   16  C12 UNL     1      23.797   5.505  51.584  1.00  0.00     0.052 C 
HETATM   17  C20 UNL     1      22.240   5.581  49.652  1.00  0.00     0.206 C 
HETATM   18  C13 UNL     1      24.606   5.038  50.569  1.00  0.00     0.002 C 
HETATM   19  C14 UNL     1      24.833   3.789  49.723  1.00  0.00    -0.022 C 
HETATM   20  C18 UNL     1      23.781   3.091  49.210  1.00  0.00     0.142 C 
HETATM   21  O3  UNL     1      22.381   3.110  49.578  1.00  0.00    -0.360 OA
HETATM   22  C19 UNL     1      21.641   4.271  50.070  1.00  0.00     0.211 C 
BRANCH  15  23
HETATM   23  O1  UNL     1      21.941   7.005  51.480  1.00  0.00    -0.364 OA
HETATM   24  H8  UNL     1      21.212   7.321  50.879  1.00  0.00     0.213 HD
ENDBRANCH  15  23
BRANCH  19  25
HETATM   25  C15 UNL     1      26.252   3.654  49.777  1.00  0.00     0.067 C 
BRANCH  25  26
HETATM   26  C16 UNL     1      26.380   2.477  50.782  1.00  0.00     0.171 C 
BRANCH  26  27
HETATM   27  O2  UNL     1      27.466   2.517  51.577  1.00  0.00    -0.396 OA
HETATM   28  C17 UNL     1      27.259   2.135  52.861  1.00  0.00     0.201 C 
ENDBRANCH  26  27
ENDBRANCH  25  26
ENDBRANCH  19  25
BRANCH  17  29
HETATM   29  O4  UNL     1      21.268   6.404  49.084  1.00  0.00    -0.383 OA
HETATM   30  C21 UNL     1      20.136   5.692  48.707  1.00  0.00     0.202 C 
ENDBRANCH  17  29
ENDBRANCH  10  12
ENDBRANCH   8  10
TORSDOF 7
ENDMDL
MODEL 9
REMARK VINA RESULT:      -7.0      7.166     10.603
REMARK  7 active torsions:
REMARK  status: ('A' for Active; 'I' for Inactive)
REMARK    1  A    between atoms: C8_8  and  N1_9 
REMARK    2  A    between atoms: N1_9  and  C9_10 
REMARK    3  A    between atoms: C11_13  and  O1_14 
REMARK    4  A    between atoms: C14_17  and  C15_18 
REMARK    5  A    between atoms: C15_18  and  C16_19 
REMARK    6  A    between atoms: C16_19  and  O2_20 
REMARK    7  A    between atoms: C20_25  and  O4_26 
ROOT
HETATM    1  C1  UNL     1      24.277   6.906  51.184  1.00  0.00     0.018 C 
HETATM    2  C2  UNL     1      24.979   7.191  50.238  1.00  0.00    -0.078 C 
HETATM    3  C3  UNL     1      25.790   7.534  49.109  1.00  0.00     0.019 A 
HETATM    4  C4  UNL     1      25.219   7.601  47.877  1.00  0.00     0.021 A 
HETATM    5  C5  UNL     1      25.976   7.924  46.802  1.00  0.00     0.010 A 
HETATM    6  C6  UNL     1      27.296   8.175  46.974  1.00  0.00    -0.035 A 
HETATM    7  C7  UNL     1      28.097   8.532  45.764  1.00  0.00     0.050 C 
HETATM    8  C8  UNL     1      27.952   8.124  48.218  1.00  0.00     0.040 A 
HETATM    9  C22 UNL     1      27.113   7.790  49.255  1.00  0.00     0.050 A 
ENDROOT
BRANCH   8  10
HETATM   10  N1  UNL     1      29.398   8.397  48.358  1.00  0.00    -0.353 N 
HETATM   11  H7  UNL     1      29.554   9.463  48.398  1.00  0.00     0.166 HD
BRANCH  10  12
HETATM   12  C9  UNL     1      30.162   7.198  48.494  1.00  0.00     0.074 C 
HETATM   13  C10 UNL     1      29.682   5.938  48.471  1.00  0.00     0.113 C 
HETATM   14  N2  UNL     1      30.476   5.045  47.925  1.00  0.00    -0.240 NA
HETATM   15  C11 UNL     1      31.921   5.070  48.111  1.00  0.00     0.201 C 
HETATM   16  C12 UNL     1      32.082   6.000  49.291  1.00  0.00     0.052 C 
HETATM   17  C20 UNL     1      32.706   5.551  46.931  1.00  0.00     0.206 C 
HETATM   18  C13 UNL     1      31.622   7.143  48.671  1.00  0.00     0.002 C 
HETATM   19  C14 UNL     1      32.139   8.440  48.059  1.00  0.00    -0.022 C 
HETATM   20  C18 UNL     1      33.241   8.445  47.258  1.00  0.00     0.142 C 
HETATM   21  O3  UNL     1      34.283   7.452  47.100  1.00  0.00    -0.360 OA
HETATM   22  C19 UNL     1      34.109   6.005  47.206  1.00  0.00     0.211 C 
BRANCH  15  23
HETATM   23  O1  UNL     1      32.327   3.790  48.419  1.00  0.00    -0.364 OA
HETATM   24  H8  UNL     1      32.936   3.820  49.207  1.00  0.00     0.213 HD
ENDBRANCH  15  23
BRANCH  19  25
HETATM   25  C15 UNL     1      31.253   9.404  48.626  1.00  0.00     0.067 C 
BRANCH  25  26
HETATM   26  C16 UNL     1      31.542  10.620  47.705  1.00  0.00     0.171 C 
BRANCH  26  27
HETATM   27  O2  UNL     1      30.631  10.836  46.737  1.00  0.00    -0.396 OA
HETATM   28  C17 UNL     1      30.188  12.113  46.631  1.00  0.00     0.201 C 
ENDBRANCH  26  27
ENDBRANCH  25  26
ENDBRANCH  19  25
BRANCH  17  29
HETATM   29  O4  UNL     1      32.701   4.520  45.992  1.00  0.00    -0.383 OA
HETATM   30  C21 UNL     1      33.373   4.869  44.829  1.00  0.00     0.202 C 
ENDBRANCH  17  29
ENDBRANCH  10  12
ENDBRANCH   8  10
TORSDOF 7
ENDMDL
