MODEL 1
REMARK VINA RESULT:      -8.3      0.000      0.000
REMARK  5 active torsions:
REMARK  status: ('A' for Active; 'I' for Inactive)
REMARK    1  A    between atoms: N1_7  and  C6_8 
REMARK    2  A    between atoms: C6_8  and  C7_9 
REMARK    3  A    between atoms: C7_9  and  O2_10 
REMARK    4  A    between atoms: O2_10  and  C8_11 
REMARK    5  A    between atoms: C20_27  and  O3_28 
ROOT
HETATM    1  C8  UNL     1      24.114   2.001  51.922  1.00  0.00     0.155 C 
HETATM    2  C9  UNL     1      23.497   0.721  51.430  1.00  0.00     0.076 C 
HETATM    3  C10 UNL     1      22.199   0.353  51.998  1.00  0.00    -0.018 A 
HETATM    4  C11 UNL     1      21.007   0.589  51.323  1.00  0.00     0.057 A 
HETATM    5  C12 UNL     1      19.760   0.257  51.816  1.00  0.00     0.034 A 
HETATM    6  C13 UNL     1      19.631  -0.352  53.057  1.00  0.00     0.045 A 
HETATM    7  C14 UNL     1      20.777  -0.608  53.768  1.00  0.00     0.122 A 
HETATM    8  F1  UNL     1      20.691  -1.208  54.996  1.00  0.00    -0.206 F 
HETATM    9  C15 UNL     1      22.000  -0.255  53.227  1.00  0.00    -0.015 A 
HETATM   10  C16 UNL     1      23.180  -0.597  54.057  1.00  0.00     0.052 C 
HETATM   11  N2  UNL     1      20.815   1.183  50.018  1.00  0.00    -0.277 N 
HETATM   12  N3  UNL     1      21.536   0.963  48.814  1.00  0.00    -0.171 NA
HETATM   13  C17 UNL     1      21.906   1.905  48.054  1.00  0.00     0.214 C 
HETATM   14  N4  UNL     1      21.557   3.203  48.473  1.00  0.00    -0.401 NA
HETATM   15  C18 UNL     1      21.928   3.778  49.562  1.00  0.00     0.307 C 
HETATM   16  C19 UNL     1      22.781   2.953  50.378  1.00  0.00     0.133 C 
HETATM   17  C20 UNL     1      23.332   3.228  51.535  1.00  0.00     0.074 C 
HETATM   18  H21 UNL     1      20.062   1.887  49.848  1.00  0.00     0.189 HD
ENDROOT
BRANCH   1  19
HETATM   19  O2  UNL     1      24.351   1.982  53.281  1.00  0.00    -0.381 OA
BRANCH  19  20
HETATM   20  C7  UNL     1      25.662   1.928  53.669  1.00  0.00     0.188 C 
BRANCH  20  21
HETATM   21  C6  UNL     1      26.630   1.332  52.709  1.00  0.00     0.149 C 
BRANCH  21  22
HETATM   22  N1  UNL     1      27.215   0.066  53.177  1.00  0.00    -0.382 N 
HETATM   23  C2  UNL     1      28.571  -0.020  53.599  1.00  0.00     0.009 C 
HETATM   24  C1  UNL     1      29.093   1.036  54.216  1.00  0.00     0.060 C 
HETATM   25  C3  UNL     1      29.269  -1.295  53.299  1.00  0.00     0.219 C 
HETATM   26  O1  UNL     1      28.408  -2.381  53.289  1.00  0.00    -0.384 OA
HETATM   27  C4  UNL     1      27.264  -2.202  52.543  1.00  0.00     0.187 C 
HETATM   28  C5  UNL     1      26.369  -1.139  53.203  1.00  0.00     0.149 C 
ENDBRANCH  21  22
ENDBRANCH  20  21
ENDBRANCH  19  20
ENDBRANCH   1  19
BRANCH  17  29
HETATM   29  O3  UNL     1      23.771   3.826  52.750  1.00  0.00    -0.387 OA
HETATM   30  C21 UNL     1      23.486   5.225  52.947  1.00  0.00     0.202 C 
ENDBRANCH  17  29
TORSDOF 5
ENDMDL
MODEL 2
REMARK VINA RESULT:      -8.2      1.142      1.702
REMARK  5 active torsions:
REMARK  status: ('A' for Active; 'I' for Inactive)
REMARK    1  A    between atoms: N1_7  and  C6_8 
REMARK    2  A    between atoms: C6_8  and  C7_9 
REMARK    3  A    between atoms: C7_9  and  O2_10 
REMARK    4  A    between atoms: O2_10  and  C8_11 
REMARK    5  A    between atoms: C20_27  and  O3_28 
ROOT
HETATM    1  C8  UNL     1      23.256   2.257  51.526  1.00  0.00     0.155 C 
HETATM    2  C9  UNL     1      22.589   1.021  50.990  1.00  0.00     0.076 C 
HETATM    3  C10 UNL     1      21.507   0.453  51.796  1.00  0.00    -0.018 A 
HETATM    4  C11 UNL     1      20.170   0.684  51.499  1.00  0.00     0.057 A 
HETATM    5  C12 UNL     1      19.115   0.168  52.227  1.00  0.00     0.034 A 
HETATM    6  C13 UNL     1      19.350  -0.639  53.332  1.00  0.00     0.045 A 
HETATM    7  C14 UNL     1      20.653  -0.901  53.670  1.00  0.00     0.122 A 
HETATM    8  F1  UNL     1      20.925  -1.694  54.755  1.00  0.00    -0.206 F 
HETATM    9  C15 UNL     1      21.671  -0.358  52.907  1.00  0.00    -0.015 A 
HETATM   10  C16 UNL     1      23.044  -0.720  53.335  1.00  0.00     0.052 C 
HETATM   11  N2  UNL     1      19.610   1.458  50.412  1.00  0.00    -0.277 N 
HETATM   12  N3  UNL     1      19.993   1.498  49.045  1.00  0.00    -0.171 NA
HETATM   13  C17 UNL     1      20.104   2.578  48.395  1.00  0.00     0.214 C 
HETATM   14  N4  UNL     1      19.822   3.757  49.111  1.00  0.00    -0.401 NA
HETATM   15  C18 UNL     1      20.443   4.183  50.154  1.00  0.00     0.307 C 
HETATM   16  C19 UNL     1      21.519   3.318  50.567  1.00  0.00     0.133 C 
HETATM   17  C20 UNL     1      22.345   3.454  51.574  1.00  0.00     0.074 C 
HETATM   18  H21 UNL     1      18.808   2.110  50.568  1.00  0.00     0.189 HD
ENDROOT
BRANCH   1  19
HETATM   19  O2  UNL     1      23.848   2.044  52.755  1.00  0.00    -0.381 OA
BRANCH  19  20
HETATM   20  C7  UNL     1      25.216   2.022  52.775  1.00  0.00     0.188 C 
BRANCH  20  21
HETATM   21  C6  UNL     1      25.866   1.139  53.781  1.00  0.00     0.149 C 
BRANCH  21  22
HETATM   22  N1  UNL     1      27.262   0.808  53.456  1.00  0.00    -0.382 N 
HETATM   23  C2  UNL     1      27.666  -0.525  53.166  1.00  0.00     0.009 C 
HETATM   24  C1  UNL     1      26.800  -1.307  52.528  1.00  0.00     0.060 C 
HETATM   25  C3  UNL     1      29.028  -0.907  53.613  1.00  0.00     0.219 C 
HETATM   26  O1  UNL     1      29.904   0.167  53.618  1.00  0.00    -0.384 OA
HETATM   27  C4  UNL     1      29.427   1.298  54.244  1.00  0.00     0.187 C 
HETATM   28  C5  UNL     1      28.260   1.890  53.435  1.00  0.00     0.149 C 
ENDBRANCH  21  22
ENDBRANCH  20  21
ENDBRANCH  19  20
ENDBRANCH   1  19
BRANCH  17  29
HETATM   29  O3  UNL     1      23.065   3.889  52.723  1.00  0.00    -0.387 OA
HETATM   30  C21 UNL     1      23.447   5.277  52.787  1.00  0.00     0.202 C 
ENDBRANCH  17  29
TORSDOF 5
ENDMDL
MODEL 3
REMARK VINA RESULT:      -7.8      3.021      4.917
REMARK  5 active torsions:
REMARK  status: ('A' for Active; 'I' for Inactive)
REMARK    1  A    between atoms: N1_7  and  C6_8 
REMARK    2  A    between atoms: C6_8  and  C7_9 
REMARK    3  A    between atoms: C7_9  and  O2_10 
REMARK    4  A    between atoms: O2_10  and  C8_11 
REMARK    5  A    between atoms: C20_27  and  O3_28 
ROOT
HETATM    1  C8  UNL     1      22.604   2.573  51.152  1.00  0.00     0.155 C 
HETATM    2  C9  UNL     1      22.366   1.088  51.091  1.00  0.00     0.076 C 
HETATM    3  C10 UNL     1      22.225   0.390  52.370  1.00  0.00    -0.018 A 
HETATM    4  C11 UNL     1      20.982   0.052  52.889  1.00  0.00     0.057 A 
HETATM    5  C12 UNL     1      20.798  -0.609  54.089  1.00  0.00     0.034 A 
HETATM    6  C13 UNL     1      21.889  -0.982  54.862  1.00  0.00     0.045 A 
HETATM    7  C14 UNL     1      23.142  -0.674  54.396  1.00  0.00     0.122 A 
HETATM    8  F1  UNL     1      24.243  -1.026  55.130  1.00  0.00    -0.206 F 
HETATM    9  C15 UNL     1      23.269  -0.010  53.189  1.00  0.00    -0.015 A 
HETATM   10  C16 UNL     1      24.662   0.255  52.756  1.00  0.00     0.052 C 
HETATM   11  N2  UNL     1      19.674   0.285  52.317  1.00  0.00    -0.277 N 
HETATM   12  N3  UNL     1      19.236   0.121  50.975  1.00  0.00    -0.171 NA
HETATM   13  C17 UNL     1      18.518   0.975  50.379  1.00  0.00     0.214 C 
HETATM   14  N4  UNL     1      18.169   2.115  51.129  1.00  0.00    -0.401 NA
HETATM   15  C18 UNL     1      18.982   2.975  51.631  1.00  0.00     0.307 C 
HETATM   16  C19 UNL     1      20.365   2.678  51.356  1.00  0.00     0.133 C 
HETATM   17  C20 UNL     1      21.438   3.341  51.712  1.00  0.00     0.074 C 
HETATM   18  H21 UNL     1      18.878   0.627  52.902  1.00  0.00     0.189 HD
ENDROOT
BRANCH   1  19
HETATM   19  O2  UNL     1      23.767   2.891  51.823  1.00  0.00    -0.381 OA
BRANCH  19  20
HETATM   20  C7  UNL     1      24.829   3.275  51.051  1.00  0.00     0.188 C 
BRANCH  20  21
HETATM   21  C6  UNL     1      24.593   3.406  49.587  1.00  0.00     0.149 C 
BRANCH  21  22
HETATM   22  N1  UNL     1      24.885   4.750  49.065  1.00  0.00    -0.382 N 
HETATM   23  C2  UNL     1      26.201   5.291  49.087  1.00  0.00     0.009 C 
HETATM   24  C1  UNL     1      27.216   4.450  48.912  1.00  0.00     0.060 C 
HETATM   25  C3  UNL     1      26.303   6.755  49.307  1.00  0.00     0.219 C 
HETATM   26  O1  UNL     1      25.209   7.443  48.807  1.00  0.00    -0.384 OA
HETATM   27  C4  UNL     1      23.986   6.925  49.173  1.00  0.00     0.187 C 
HETATM   28  C5  UNL     1      23.780   5.551  48.511  1.00  0.00     0.149 C 
ENDBRANCH  21  22
ENDBRANCH  20  21
ENDBRANCH  19  20
ENDBRANCH   1  19
BRANCH  17  29
HETATM   29  O3  UNL     1      22.375   4.270  52.245  1.00  0.00    -0.387 OA
HETATM   30  C21 UNL     1      22.174   5.667  51.949  1.00  0.00     0.202 C 
ENDBRANCH  17  29
TORSDOF 5
ENDMDL
MODEL 4
REMARK VINA RESULT:      -7.7      3.713      6.283
REMARK  5 active torsions:
REMARK  status: ('A' for Active; 'I' for Inactive)
REMARK    1  A    between atoms: N1_7  and  C6_8 
REMARK    2  A    between atoms: C6_8  and  C7_9 
REMARK    3  A    between atoms: C7_9  and  O2_10 
REMARK    4  A    between atoms: O2_10  and  C8_11 
REMARK    5  A    between atoms: C20_27  and  O3_28 
ROOT
HETATM    1  C8  UNL     1      22.951   3.395  50.921  1.00  0.00     0.155 C 
HETATM    2  C9  UNL     1      23.817   4.572  51.280  1.00  0.00     0.076 C 
HETATM    3  C10 UNL     1      24.723   5.066  50.242  1.00  0.00    -0.018 A 
HETATM    4  C11 UNL     1      24.416   6.179  49.468  1.00  0.00     0.057 A 
HETATM    5  C12 UNL     1      25.238   6.684  48.479  1.00  0.00     0.034 A 
HETATM    6  C13 UNL     1      26.458   6.082  48.201  1.00  0.00     0.045 A 
HETATM    7  C14 UNL     1      26.812   4.979  48.936  1.00  0.00     0.122 A 
HETATM    8  F1  UNL     1      28.008   4.358  48.691  1.00  0.00    -0.206 F 
HETATM    9  C15 UNL     1      25.951   4.514  49.914  1.00  0.00    -0.015 A 
HETATM   10  C16 UNL     1      26.432   3.335  50.672  1.00  0.00     0.052 C 
HETATM   11  N2  UNL     1      23.243   7.023  49.531  1.00  0.00    -0.277 N 
HETATM   12  N3  UNL     1      22.565   7.539  50.668  1.00  0.00    -0.171 NA
HETATM   13  C17 UNL     1      21.305   7.532  50.777  1.00  0.00     0.214 C 
HETATM   14  N4  UNL     1      20.598   6.977  49.692  1.00  0.00    -0.401 NA
HETATM   15  C18 UNL     1      20.686   5.768  49.264  1.00  0.00     0.307 C 
HETATM   16  C19 UNL     1      21.615   4.964  50.018  1.00  0.00     0.133 C 
HETATM   17  C20 UNL     1      21.937   3.705  49.853  1.00  0.00     0.074 C 
HETATM   18  H21 UNL     1      22.758   7.344  48.662  1.00  0.00     0.189 HD
ENDROOT
BRANCH   1  19
HETATM   19  O2  UNL     1      23.692   2.281  50.583  1.00  0.00    -0.381 OA
BRANCH  19  20
HETATM   20  C7  UNL     1      23.920   1.376  51.583  1.00  0.00     0.188 C 
BRANCH  20  21
HETATM   21  C6  UNL     1      23.042   1.452  52.781  1.00  0.00     0.149 C 
BRANCH  21  22
HETATM   22  N1  UNL     1      22.594   0.136  53.264  1.00  0.00    -0.382 N 
HETATM   23  C2  UNL     1      21.238  -0.279  53.151  1.00  0.00     0.009 C 
HETATM   24  C1  UNL     1      20.556   0.126  52.083  1.00  0.00     0.060 C 
HETATM   25  C3  UNL     1      20.721  -1.131  54.250  1.00  0.00     0.219 C 
HETATM   26  O1  UNL     1      21.709  -1.916  54.821  1.00  0.00    -0.384 OA
HETATM   27  C4  UNL     1      22.861  -1.240  55.157  1.00  0.00     0.187 C 
HETATM   28  C5  UNL     1      23.580  -0.766  53.882  1.00  0.00     0.149 C 
ENDBRANCH  21  22
ENDBRANCH  20  21
ENDBRANCH  19  20
ENDBRANCH   1  19
BRANCH  17  29
HETATM   29  O3  UNL     1      22.063   2.356  49.417  1.00  0.00    -0.387 OA
HETATM   30  C21 UNL     1      20.935   1.761  48.747  1.00  0.00     0.202 C 
ENDBRANCH  17  29
TORSDOF 5
ENDMDL
MODEL 5
REMARK VINA RESULT:      -7.5      2.793      6.402
REMARK  5 active torsions:
REMARK  status: ('A' for Active; 'I' for Inactive)
REMARK    1  A    between atoms: N1_7  and  C6_8 
REMARK    2  A    between atoms: C6_8  and  C7_9 
REMARK    3  A    between atoms: C7_9  and  O2_10 
REMARK    4  A    between atoms: O2_10  and  C8_11 
REMARK    5  A    between atoms: C20_27  and  O3_28 
ROOT
HETATM    1  C8  UNL     1      24.789   3.407  52.036  1.00  0.00     0.155 C 
HETATM    2  C9  UNL     1      23.958   2.787  53.126  1.00  0.00     0.076 C 
HETATM    3  C10 UNL     1      22.855   1.922  52.703  1.00  0.00    -0.018 A 
HETATM    4  C11 UNL     1      22.965   0.537  52.701  1.00  0.00     0.057 A 
HETATM    5  C12 UNL     1      21.952  -0.320  52.314  1.00  0.00     0.034 A 
HETATM    6  C13 UNL     1      20.728   0.181  51.894  1.00  0.00     0.045 A 
HETATM    7  C14 UNL     1      20.563   1.543  51.877  1.00  0.00     0.122 A 
HETATM    8  F1  UNL     1      19.369   2.076  51.468  1.00  0.00    -0.206 F 
HETATM    9  C15 UNL     1      21.611   2.355  52.274  1.00  0.00    -0.015 A 
HETATM   10  C16 UNL     1      21.328   3.810  52.246  1.00  0.00     0.052 C 
HETATM   11  N2  UNL     1      24.094  -0.276  53.098  1.00  0.00    -0.277 N 
HETATM   12  N3  UNL     1      24.951  -0.138  54.223  1.00  0.00    -0.171 NA
HETATM   13  C17 UNL     1      26.209  -0.251  54.145  1.00  0.00     0.214 C 
HETATM   14  N4  UNL     1      26.722  -0.524  52.863  1.00  0.00    -0.401 NA
HETATM   15  C18 UNL     1      26.605   0.219  51.820  1.00  0.00     0.307 C 
HETATM   16  C19 UNL     1      25.867   1.432  52.068  1.00  0.00     0.133 C 
HETATM   17  C20 UNL     1      25.571   2.401  51.236  1.00  0.00     0.074 C 
HETATM   18  H21 UNL     1      24.394  -1.102  52.532  1.00  0.00     0.189 HD
ENDROOT
BRANCH   1  19
HETATM   19  O2  UNL     1      24.044   4.219  51.205  1.00  0.00    -0.381 OA
BRANCH  19  20
HETATM   20  C7  UNL     1      23.960   5.538  51.558  1.00  0.00     0.188 C 
BRANCH  20  21
HETATM   21  C6  UNL     1      23.953   6.537  50.456  1.00  0.00     0.149 C 
BRANCH  21  22
HETATM   22  N1  UNL     1      22.962   6.247  49.409  1.00  0.00    -0.382 N 
HETATM   23  C2  UNL     1      21.574   6.498  49.603  1.00  0.00     0.009 C 
HETATM   24  C1  UNL     1      21.236   7.551  50.341  1.00  0.00     0.060 C 
HETATM   25  C3  UNL     1      20.640   5.545  48.954  1.00  0.00     0.219 C 
HETATM   26  O1  UNL     1      21.158   5.010  47.785  1.00  0.00    -0.384 OA
HETATM   27  C4  UNL     1      22.441   4.521  47.893  1.00  0.00     0.187 C 
HETATM   28  C5  UNL     1      23.424   5.680  48.131  1.00  0.00     0.149 C 
ENDBRANCH  21  22
ENDBRANCH  20  21
ENDBRANCH  19  20
ENDBRANCH   1  19
BRANCH  17  29
HETATM   29  O3  UNL     1      25.421   3.259  50.111  1.00  0.00    -0.387 OA
HETATM   30  C21 UNL     1      26.617   3.673  49.421  1.00  0.00     0.202 C 
ENDBRANCH  17  29
TORSDOF 5
ENDMDL
MODEL 6
REMARK VINA RESULT:      -7.5      3.973      6.145
REMARK  5 active torsions:
REMARK  status: ('A' for Active; 'I' for Inactive)
REMARK    1  A    between atoms: N1_7  and  C6_8 
REMARK    2  A    between atoms: C6_8  and  C7_9 
REMARK    3  A    between atoms: C7_9  and  O2_10 
REMARK    4  A    between atoms: O2_10  and  C8_11 
REMARK    5  A    between atoms: C20_27  and  O3_28 
ROOT
HETATM    1  C8  UNL     1      23.110   3.906  50.058  1.00  0.00     0.155 C 
HETATM    2  C9  UNL     1      23.549   2.468  50.054  1.00  0.00     0.076 C 
HETATM    3  C10 UNL     1      24.343   2.016  51.198  1.00  0.00    -0.018 A 
HETATM    4  C11 UNL     1      23.777   1.308  52.251  1.00  0.00     0.057 A 
HETATM    5  C12 UNL     1      24.484   0.859  53.351  1.00  0.00     0.034 A 
HETATM    6  C13 UNL     1      25.846   1.102  53.459  1.00  0.00     0.045 A 
HETATM    7  C14 UNL     1      26.457   1.797  52.446  1.00  0.00     0.122 A 
HETATM    8  F1  UNL     1      27.801   2.056  52.518  1.00  0.00    -0.206 F 
HETATM    9  C15 UNL     1      25.702   2.224  51.369  1.00  0.00    -0.015 A 
HETATM   10  C16 UNL     1      26.455   2.943  50.314  1.00  0.00     0.052 C 
HETATM   11  N2  UNL     1      22.402   0.888  52.418  1.00  0.00    -0.277 N 
HETATM   12  N3  UNL     1      21.513   0.322  51.466  1.00  0.00    -0.171 NA
HETATM   13  C17 UNL     1      20.308   0.692  51.348  1.00  0.00     0.214 C 
HETATM   14  N4  UNL     1      19.891   1.711  52.225  1.00  0.00    -0.401 NA
HETATM   15  C18 UNL     1      20.373   2.901  52.296  1.00  0.00     0.307 C 
HETATM   16  C19 UNL     1      21.438   3.139  51.355  1.00  0.00     0.133 C 
HETATM   17  C20 UNL     1      22.138   4.230  51.161  1.00  0.00     0.074 C 
HETATM   18  H21 UNL     1      21.914   0.982  53.337  1.00  0.00     0.189 HD
ENDROOT
BRANCH   1  19
HETATM   19  O2  UNL     1      24.177   4.781  50.076  1.00  0.00    -0.381 OA
BRANCH  19  20
HETATM   20  C7  UNL     1      24.673   5.160  48.858  1.00  0.00     0.188 C 
BRANCH  20  21
HETATM   21  C6  UNL     1      25.020   6.597  48.684  1.00  0.00     0.149 C 
BRANCH  21  22
HETATM   22  N1  UNL     1      26.446   6.886  48.905  1.00  0.00    -0.382 N 
HETATM   23  C2  UNL     1      26.881   8.128  49.446  1.00  0.00     0.009 C 
HETATM   24  C1  UNL     1      26.101   8.714  50.349  1.00  0.00     0.060 C 
HETATM   25  C3  UNL     1      28.176   8.644  48.937  1.00  0.00     0.219 C 
HETATM   26  O1  UNL     1      29.046   7.628  48.575  1.00  0.00    -0.384 OA
HETATM   27  C4  UNL     1      28.496   6.659  47.766  1.00  0.00     0.187 C 
HETATM   28  C5  UNL     1      27.441   5.860  48.551  1.00  0.00     0.149 C 
ENDBRANCH  21  22
ENDBRANCH  20  21
ENDBRANCH  19  20
ENDBRANCH   1  19
BRANCH  17  29
HETATM   29  O3  UNL     1      22.700   5.537  51.200  1.00  0.00    -0.387 OA
HETATM   30  C21 UNL     1      21.805   6.655  51.033  1.00  0.00     0.202 C 
ENDBRANCH  17  29
TORSDOF 5
ENDMDL
MODEL 7
REMARK VINA RESULT:      -7.5      3.065      6.332
REMARK  5 active torsions:
REMARK  status: ('A' for Active; 'I' for Inactive)
REMARK    1  A    between atoms: N1_7  and  C6_8 
REMARK    2  A    between atoms: C6_8  and  C7_9 
REMARK    3  A    between atoms: C7_9  and  O2_10 
REMARK    4  A    between atoms: O2_10  and  C8_11 
REMARK    5  A    between atoms: C20_27  and  O3_28 
ROOT
HETATM    1  C8  UNL     1      24.712   3.394  52.083  1.00  0.00     0.155 C 
HETATM    2  C9  UNL     1      23.875   2.752  53.156  1.00  0.00     0.076 C 
HETATM    3  C10 UNL     1      22.787   1.880  52.710  1.00  0.00    -0.018 A 
HETATM    4  C11 UNL     1      22.912   0.497  52.695  1.00  0.00     0.057 A 
HETATM    5  C12 UNL     1      21.914  -0.367  52.287  1.00  0.00     0.034 A 
HETATM    6  C13 UNL     1      20.689   0.125  51.856  1.00  0.00     0.045 A 
HETATM    7  C14 UNL     1      20.510   1.485  51.851  1.00  0.00     0.122 A 
HETATM    8  F1  UNL     1      19.315   2.008  51.434  1.00  0.00    -0.206 F 
HETATM    9  C15 UNL     1      21.543   2.304  52.270  1.00  0.00    -0.015 A 
HETATM   10  C16 UNL     1      21.245   3.756  52.255  1.00  0.00     0.052 C 
HETATM   11  N2  UNL     1      24.046  -0.308  53.098  1.00  0.00    -0.277 N 
HETATM   12  N3  UNL     1      24.887  -0.173  54.234  1.00  0.00    -0.171 NA
HETATM   13  C17 UNL     1      26.147  -0.271  54.171  1.00  0.00     0.214 C 
HETATM   14  N4  UNL     1      26.678  -0.525  52.892  1.00  0.00    -0.401 NA
HETATM   15  C18 UNL     1      26.566   0.228  51.856  1.00  0.00     0.307 C 
HETATM   16  C19 UNL     1      25.812   1.431  52.108  1.00  0.00     0.133 C 
HETATM   17  C20 UNL     1      25.516   2.405  51.283  1.00  0.00     0.074 C 
HETATM   18  H21 UNL     1      24.361  -1.124  52.526  1.00  0.00     0.189 HD
ENDROOT
BRANCH   1  19
HETATM   19  O2  UNL     1      23.968   4.206  51.252  1.00  0.00    -0.381 OA
BRANCH  19  20
HETATM   20  C7  UNL     1      23.876   5.523  51.611  1.00  0.00     0.188 C 
BRANCH  20  21
HETATM   21  C6  UNL     1      23.210   6.444  50.651  1.00  0.00     0.149 C 
BRANCH  21  22
HETATM   22  N1  UNL     1      24.153   7.184  49.798  1.00  0.00    -0.382 N 
HETATM   23  C2  UNL     1      24.496   6.729  48.494  1.00  0.00     0.009 C 
HETATM   24  C1  UNL     1      23.553   6.113  47.788  1.00  0.00     0.060 C 
HETATM   25  C3  UNL     1      25.889   6.992  48.056  1.00  0.00     0.219 C 
HETATM   26  O1  UNL     1      26.413   8.145  48.619  1.00  0.00    -0.384 OA
HETATM   27  C4  UNL     1      26.247   8.248  49.982  1.00  0.00     0.187 C 
HETATM   28  C5  UNL     1      24.755   8.424  50.316  1.00  0.00     0.149 C 
ENDBRANCH  21  22
ENDBRANCH  20  21
ENDBRANCH  19  20
ENDBRANCH   1  19
BRANCH  17  29
HETATM   29  O3  UNL     1      25.370   3.273  50.164  1.00  0.00    -0.387 OA
HETATM   30  C21 UNL     1      26.556   3.604  49.415  1.00  0.00     0.202 C 
ENDBRANCH  17  29
TORSDOF 5
ENDMDL
MODEL 8
REMARK VINA RESULT:      -7.2      4.293      6.737
REMARK  5 active torsions:
REMARK  status: ('A' for Active; 'I' for Inactive)
REMARK    1  A    between atoms: N1_7  and  C6_8 
REMARK    2  A    between atoms: C6_8  and  C7_9 
REMARK    3  A    between atoms: C7_9  and  O2_10 
REMARK    4  A    between atoms: O2_10  and  C8_11 
REMARK    5  A    between atoms: C20_27  and  O3_28 
ROOT
HETATM    1  C8  UNL     1      22.962   4.437  49.374  1.00  0.00     0.155 C 
HETATM    2  C9  UNL     1      23.900   5.393  50.057  1.00  0.00     0.076 C 
HETATM    3  C10 UNL     1      25.109   5.769  49.323  1.00  0.00    -0.018 A 
HETATM    4  C11 UNL     1      25.205   6.970  48.630  1.00  0.00     0.057 A 
HETATM    5  C12 UNL     1      26.324   7.370  47.926  1.00  0.00     0.034 A 
HETATM    6  C13 UNL     1      27.451   6.561  47.875  1.00  0.00     0.045 A 
HETATM    7  C14 UNL     1      27.412   5.362  48.542  1.00  0.00     0.122 A 
HETATM    8  F1  UNL     1      28.504   4.536  48.515  1.00  0.00    -0.206 F 
HETATM    9  C15 UNL     1      26.265   5.011  49.231  1.00  0.00    -0.015 A 
HETATM   10  C16 UNL     1      26.328   3.711  49.942  1.00  0.00     0.052 C 
HETATM   11  N2  UNL     1      24.218   8.022  48.512  1.00  0.00    -0.277 N 
HETATM   12  N3  UNL     1      23.377   8.583  49.510  1.00  0.00    -0.171 NA
HETATM   13  C17 UNL     1      22.148   8.816  49.319  1.00  0.00     0.214 C 
HETATM   14  N4  UNL     1      21.652   8.485  48.043  1.00  0.00    -0.401 NA
HETATM   15  C18 UNL     1      21.633   7.314  47.513  1.00  0.00     0.307 C 
HETATM   16  C19 UNL     1      22.188   6.295  48.367  1.00  0.00     0.133 C 
HETATM   17  C20 UNL     1      22.318   5.010  48.140  1.00  0.00     0.074 C 
HETATM   18  H21 UNL     1      24.031   8.490  47.596  1.00  0.00     0.189 HD
ENDROOT
BRANCH   1  19
HETATM   19  O2  UNL     1      23.559   3.224  49.094  1.00  0.00    -0.381 OA
BRANCH  19  20
HETATM   20  C7  UNL     1      23.158   2.159  49.854  1.00  0.00     0.188 C 
BRANCH  20  21
HETATM   21  C6  UNL     1      22.328   2.455  51.054  1.00  0.00     0.149 C 
BRANCH  21  22
HETATM   22  N1  UNL     1      22.635   1.591  52.204  1.00  0.00    -0.382 N 
HETATM   23  C2  UNL     1      23.856   1.711  52.924  1.00  0.00     0.009 C 
HETATM   24  C1  UNL     1      24.380   2.926  53.051  1.00  0.00     0.060 C 
HETATM   25  C3  UNL     1      24.424   0.450  53.463  1.00  0.00     0.219 C 
HETATM   26  O1  UNL     1      23.445  -0.479  53.779  1.00  0.00    -0.384 OA
HETATM   27  C4  UNL     1      22.507  -0.687  52.793  1.00  0.00     0.187 C 
HETATM   28  C5  UNL     1      21.648   0.577  52.613  1.00  0.00     0.149 C 
ENDBRANCH  21  22
ENDBRANCH  20  21
ENDBRANCH  19  20
ENDBRANCH   1  19
BRANCH  17  29
HETATM   29  O3  UNL     1      22.314   3.696  47.596  1.00  0.00    -0.387 OA
HETATM   30  C21 UNL     1      21.951   3.547  46.209  1.00  0.00     0.202 C 
ENDBRANCH  17  29
TORSDOF 5
ENDMDL
MODEL 9
REMARK VINA RESULT:      -7.2      2.789      6.512
REMARK  5 active torsions:
REMARK  status: ('A' for Active; 'I' for Inactive)
REMARK    1  A    between atoms: N1_7  and  C6_8 
REMARK    2  A    between atoms: C6_8  and  C7_9 
REMARK    3  A    between atoms: C7_9  and  O2_10 
REMARK    4  A    between atoms: O2_10  and  C8_11 
REMARK    5  A    between atoms: C20_27  and  O3_28 
ROOT
HETATM    1  C8  UNL     1      23.632   4.004  51.758  1.00  0.00     0.155 C 
HETATM    2  C9  UNL     1      23.511   3.267  53.063  1.00  0.00     0.076 C 
HETATM    3  C10 UNL     1      23.079   1.870  52.994  1.00  0.00    -0.018 A 
HETATM    4  C11 UNL     1      23.982   0.816  53.068  1.00  0.00     0.057 A 
HETATM    5  C12 UNL     1      23.622  -0.517  53.011  1.00  0.00     0.034 A 
HETATM    6  C13 UNL     1      22.290  -0.882  52.872  1.00  0.00     0.045 A 
HETATM    7  C14 UNL     1      21.355   0.119  52.794  1.00  0.00     0.122 A 
HETATM    8  F1  UNL     1      20.030  -0.202  52.656  1.00  0.00    -0.206 F 
HETATM    9  C15 UNL     1      21.770   1.437  52.856  1.00  0.00    -0.015 A 
HETATM   10  C16 UNL     1      20.685   2.445  52.790  1.00  0.00     0.052 C 
HETATM   11  N2  UNL     1      25.418   0.872  53.232  1.00  0.00    -0.277 N 
HETATM   12  N3  UNL     1      26.194   1.691  54.095  1.00  0.00    -0.171 NA
HETATM   13  C17 UNL     1      27.245   2.285  53.716  1.00  0.00     0.214 C 
HETATM   14  N4  UNL     1      27.610   2.087  52.370  1.00  0.00    -0.401 NA
HETATM   15  C18 UNL     1      26.914   2.406  51.337  1.00  0.00     0.307 C 
HETATM   16  C19 UNL     1      25.655   3.022  51.668  1.00  0.00     0.133 C 
HETATM   17  C20 UNL     1      24.718   3.466  50.866  1.00  0.00     0.074 C 
HETATM   18  H21 UNL     1      26.052   0.258  52.673  1.00  0.00     0.189 HD
ENDROOT
BRANCH   1  19
HETATM   19  O2  UNL     1      22.432   4.072  51.079  1.00  0.00    -0.381 OA
BRANCH  19  20
HETATM   20  C7  UNL     1      21.621   5.131  51.382  1.00  0.00     0.188 C 
BRANCH  20  21
HETATM   21  C6  UNL     1      20.833   5.724  50.268  1.00  0.00     0.149 C 
BRANCH  21  22
HETATM   22  N1  UNL     1      20.297   4.724  49.332  1.00  0.00    -0.382 N 
HETATM   23  C2  UNL     1      19.226   3.859  49.696  1.00  0.00     0.009 C 
HETATM   24  C1  UNL     1      18.292   4.343  50.508  1.00  0.00     0.060 C 
HETATM   25  C3  UNL     1      19.268   2.491  49.123  1.00  0.00     0.219 C 
HETATM   26  O1  UNL     1      19.884   2.455  47.882  1.00  0.00    -0.384 OA
HETATM   27  C4  UNL     1      21.098   3.103  47.821  1.00  0.00     0.187 C 
HETATM   28  C5  UNL     1      20.890   4.619  47.989  1.00  0.00     0.149 C 
ENDBRANCH  21  22
ENDBRANCH  20  21
ENDBRANCH  19  20
ENDBRANCH   1  19
BRANCH  17  29
HETATM   29  O3  UNL     1      23.916   3.841  49.752  1.00  0.00    -0.387 OA
HETATM   30  C21 UNL     1      24.434   4.852  48.865  1.00  0.00     0.202 C 
ENDBRANCH  17  29
TORSDOF 5
ENDMDL
