MODEL 1
REMARK VINA RESULT:      -8.9      0.000      0.000
REMARK  6 active torsions:
REMARK  status: ('A' for Active; 'I' for Inactive)
REMARK    1  A    between atoms: C2_2  and  C3_3 
REMARK    2  A    between atoms: C3_3  and  C4_4 
REMARK    3  A    between atoms: C4_4  and  N1_5 
REMARK    4  A    between atoms: N2_9  and  O1_10 
REMARK    5  A    between atoms: C12_15  and  N3_16 
REMARK    6  A    between atoms: N3_16  and  C13_17 
ROOT
HETATM    1  N1  UNL     1      20.558   0.125  52.647  1.00  0.00     0.099 NA
HETATM    2  C5  UNL     1      21.669  -0.479  53.398  1.00  0.00     0.367 C 
HETATM    3  C6  UNL     1      22.896   0.172  53.359  1.00  0.00    -0.051 C 
HETATM    4  C7  UNL     1      23.883   0.718  53.329  1.00  0.00     0.037 C 
HETATM    5  N2  UNL     1      25.045   1.387  53.287  1.00  0.00    -0.205 N 
HETATM    6  C9  UNL     1      24.812   2.561  52.424  1.00  0.00     0.172 C 
HETATM    7  C10 UNL     1      25.438   2.458  51.120  1.00  0.00     0.007 C 
HETATM    8  C11 UNL     1      25.538   3.400  50.199  1.00  0.00     0.049 C 
HETATM    9  C12 UNL     1      25.130   4.809  50.053  1.00  0.00     0.129 C 
HETATM   10  N4  UNL     1      24.443   5.636  50.765  1.00  0.00    -0.225 NA
HETATM   11  C19 UNL     1      23.786   5.506  52.020  1.00  0.00     0.229 C 
HETATM   12  N5  UNL     1      23.379   4.494  52.706  1.00  0.00    -0.275 NA
HETATM   13  C20 UNL     1      23.407   3.016  52.507  1.00  0.00     0.143 C 
HETATM   14  C21 UNL     1      22.436   2.617  51.471  1.00  0.00     0.010 C 
HETATM   15  C22 UNL     1      22.857   1.666  50.397  1.00  0.00     0.012 C 
HETATM   16  C23 UNL     1      21.035   2.442  51.838  1.00  0.00     0.036 C 
HETATM   17  C24 UNL     1      20.423   1.526  52.774  1.00  0.00     0.274 C 
ENDROOT
BRANCH   9  18
HETATM   18  N3  UNL     1      25.579   5.459  48.866  1.00  0.00    -0.341 N 
HETATM   19  H18 UNL     1      24.901   5.491  48.083  1.00  0.00     0.167 HD
BRANCH  18  20
HETATM   20  C13 UNL     1      26.856   6.057  48.680  1.00  0.00     0.035 A 
HETATM   21  C14 UNL     1      26.917   7.441  48.845  1.00  0.00     0.032 A 
HETATM   22  C15 UNL     1      28.124   8.083  48.686  1.00  0.00     0.046 A 
HETATM   23  C16 UNL     1      29.220   7.352  48.372  1.00  0.00     0.138 A 
HETATM   24  F1  UNL     1      30.428   7.966  48.211  1.00  0.00    -0.204 F 
HETATM   25  C17 UNL     1      29.208   5.981  48.197  1.00  0.00     0.074 A 
HETATM   26 CL1  UNL     1      30.629   5.036  47.793  1.00  0.00    -0.081 Cl
HETATM   27  C18 UNL     1      27.992   5.338  48.358  1.00  0.00     0.056 A 
ENDBRANCH  18  20
ENDBRANCH   9  18
BRANCH   5  28
HETATM   28  O1  UNL     1      26.116   0.932  53.978  1.00  0.00    -0.274 OA
HETATM   29  C8  UNL     1      26.450  -0.298  53.364  1.00  0.00     0.239 C 
ENDBRANCH   5  28
BRANCH   1  30
HETATM   30  C4  UNL     1      19.387  -0.571  53.239  1.00  0.00     0.273 C 
BRANCH  30  31
HETATM   31  C3  UNL     1      18.180  -0.553  52.380  1.00  0.00     0.030 C 
BRANCH  31  32
HETATM   32  C2  UNL     1      17.177  -1.627  52.776  1.00  0.00    -0.003 C 
HETATM   33  C1  UNL     1      17.794  -2.660  53.677  1.00  0.00     0.005 C 
ENDBRANCH  31  32
ENDBRANCH  30  31
ENDBRANCH   1  30
TORSDOF 6
ENDMDL
MODEL 2
REMARK VINA RESULT:      -8.5      1.658      2.006
REMARK  6 active torsions:
REMARK  status: ('A' for Active; 'I' for Inactive)
REMARK    1  A    between atoms: C2_2  and  C3_3 
REMARK    2  A    between atoms: C3_3  and  C4_4 
REMARK    3  A    between atoms: C4_4  and  N1_5 
REMARK    4  A    between atoms: N2_9  and  O1_10 
REMARK    5  A    between atoms: C12_15  and  N3_16 
REMARK    6  A    between atoms: N3_16  and  C13_17 
ROOT
HETATM    1  N1  UNL     1      20.569   1.308  50.630  1.00  0.00     0.099 NA
HETATM    2  C5  UNL     1      21.466   0.504  51.474  1.00  0.00     0.367 C 
HETATM    3  C6  UNL     1      22.742   1.003  51.706  1.00  0.00    -0.051 C 
HETATM    4  C7  UNL     1      23.771   1.426  51.898  1.00  0.00     0.037 C 
HETATM    5  N2  UNL     1      24.985   1.950  52.120  1.00  0.00    -0.205 N 
HETATM    6  C9  UNL     1      25.025   3.223  51.373  1.00  0.00     0.172 C 
HETATM    7  C10 UNL     1      25.852   3.172  50.182  1.00  0.00     0.007 C 
HETATM    8  C11 UNL     1      26.205   4.181  49.406  1.00  0.00     0.049 C 
HETATM    9  C12 UNL     1      25.975   5.636  49.360  1.00  0.00     0.129 C 
HETATM   10  N4  UNL     1      25.265   6.466  50.045  1.00  0.00    -0.225 NA
HETATM   11  C19 UNL     1      24.393   6.295  51.155  1.00  0.00     0.229 C 
HETATM   12  N5  UNL     1      23.772   5.277  51.645  1.00  0.00    -0.275 NA
HETATM   13  C20 UNL     1      23.682   3.834  51.283  1.00  0.00     0.143 C 
HETATM   14  C21 UNL     1      22.867   3.658  50.066  1.00  0.00     0.010 C 
HETATM   15  C22 UNL     1      23.366   2.771  48.970  1.00  0.00     0.012 C 
HETATM   16  C23 UNL     1      21.413   3.618  50.182  1.00  0.00     0.036 C 
HETATM   17  C24 UNL     1      20.559   2.696  50.895  1.00  0.00     0.274 C 
ENDROOT
BRANCH   9  18
HETATM   18  N3  UNL     1      26.686   6.339  48.344  1.00  0.00    -0.341 N 
HETATM   19  H18 UNL     1      26.151   6.553  47.482  1.00  0.00     0.167 HD
BRANCH  18  20
HETATM   20  C13 UNL     1      28.040   6.764  48.421  1.00  0.00     0.035 A 
HETATM   21  C14 UNL     1      29.007   5.801  48.128  1.00  0.00     0.032 A 
HETATM   22  C15 UNL     1      30.337   6.148  48.178  1.00  0.00     0.046 A 
HETATM   23  C16 UNL     1      30.672   7.418  48.510  1.00  0.00     0.138 A 
HETATM   24  F1  UNL     1      31.985   7.787  48.563  1.00  0.00    -0.204 F 
HETATM   25  C17 UNL     1      29.752   8.406  48.808  1.00  0.00     0.074 A 
HETATM   26 CL1  UNL     1      30.188  10.049  49.236  1.00  0.00    -0.081 Cl
HETATM   27  C18 UNL     1      28.414   8.052  48.758  1.00  0.00     0.056 A 
ENDBRANCH  18  20
ENDBRANCH   9  18
BRANCH   5  28
HETATM   28  O1  UNL     1      25.869   1.305  52.915  1.00  0.00    -0.274 OA
HETATM   29  C8  UNL     1      26.315   0.204  52.146  1.00  0.00     0.239 C 
ENDBRANCH   5  28
BRANCH   1  30
HETATM   30  C4  UNL     1      19.248   0.704  50.943  1.00  0.00     0.273 C 
BRANCH  30  31
HETATM   31  C3  UNL     1      19.236  -0.102  52.186  1.00  0.00     0.030 C 
BRANCH  31  32
HETATM   32  C2  UNL     1      17.911  -0.821  52.391  1.00  0.00    -0.003 C 
HETATM   33  C1  UNL     1      18.002  -1.858  53.475  1.00  0.00     0.005 C 
ENDBRANCH  31  32
ENDBRANCH  30  31
ENDBRANCH   1  30
TORSDOF 6
ENDMDL
MODEL 3
REMARK VINA RESULT:      -8.5      3.092      5.566
REMARK  6 active torsions:
REMARK  status: ('A' for Active; 'I' for Inactive)
REMARK    1  A    between atoms: C2_2  and  C3_3 
REMARK    2  A    between atoms: C3_3  and  C4_4 
REMARK    3  A    between atoms: C4_4  and  N1_5 
REMARK    4  A    between atoms: N2_9  and  O1_10 
REMARK    5  A    between atoms: C12_15  and  N3_16 
REMARK    6  A    between atoms: N3_16  and  C13_17 
ROOT
HETATM    1  N1  UNL     1      26.566  -0.130  53.065  1.00  0.00     0.099 NA
HETATM    2  C5  UNL     1      25.350  -0.823  53.520  1.00  0.00     0.367 C 
HETATM    3  C6  UNL     1      24.129  -0.224  53.234  1.00  0.00    -0.051 C 
HETATM    4  C7  UNL     1      23.143   0.266  52.984  1.00  0.00     0.037 C 
HETATM    5  N2  UNL     1      21.983   0.860  52.671  1.00  0.00    -0.205 N 
HETATM    6  C9  UNL     1      22.339   2.102  51.955  1.00  0.00     0.172 C 
HETATM    7  C10 UNL     1      22.128   3.305  52.738  1.00  0.00     0.007 C 
HETATM    8  C11 UNL     1      22.206   4.557  52.324  1.00  0.00     0.049 C 
HETATM    9  C12 UNL     1      22.498   5.256  51.060  1.00  0.00     0.129 C 
HETATM   10  N4  UNL     1      22.865   4.887  49.880  1.00  0.00    -0.225 NA
HETATM   11  C19 UNL     1      23.141   3.610  49.316  1.00  0.00     0.229 C 
HETATM   12  N5  UNL     1      23.431   2.462  49.823  1.00  0.00    -0.275 NA
HETATM   13  C20 UNL     1      23.607   1.947  51.212  1.00  0.00     0.143 C 
HETATM   14  C21 UNL     1      24.871   2.443  51.789  1.00  0.00     0.010 C 
HETATM   15  C22 UNL     1      24.873   3.007  53.174  1.00  0.00     0.012 C 
HETATM   16  C23 UNL     1      26.116   1.750  51.479  1.00  0.00     0.036 C 
HETATM   17  C24 UNL     1      26.519   0.389  51.751  1.00  0.00     0.274 C 
ENDROOT
BRANCH   9  18
HETATM   18  N3  UNL     1      22.348   6.673  51.093  1.00  0.00    -0.341 N 
HETATM   19  H18 UNL     1      21.603   7.036  51.717  1.00  0.00     0.167 HD
BRANCH  18  20
HETATM   20  C13 UNL     1      23.128   7.608  50.358  1.00  0.00     0.035 A 
HETATM   21  C14 UNL     1      22.462   8.314  49.356  1.00  0.00     0.032 A 
HETATM   22  C15 UNL     1      23.157   9.239  48.611  1.00  0.00     0.046 A 
HETATM   23  C16 UNL     1      24.471   9.439  48.873  1.00  0.00     0.138 A 
HETATM   24  F1  UNL     1      25.180  10.353  48.149  1.00  0.00    -0.204 F 
HETATM   25  C17 UNL     1      25.173   8.764  49.854  1.00  0.00     0.074 A 
HETATM   26 CL1  UNL     1      26.874   9.026  50.192  1.00  0.00    -0.081 Cl
HETATM   27  C18 UNL     1      24.471   7.834  50.601  1.00  0.00     0.056 A 
ENDBRANCH  18  20
ENDBRANCH   9  18
BRANCH   5  28
HETATM   28  O1  UNL     1      20.809   0.281  53.012  1.00  0.00    -0.274 OA
HETATM   29  C8  UNL     1      20.801   0.277  54.426  1.00  0.00     0.239 C 
ENDBRANCH   5  28
BRANCH   1  30
HETATM   30  C4  UNL     1      27.579  -1.212  53.167  1.00  0.00     0.273 C 
BRANCH  30  31
HETATM   31  C3  UNL     1      28.874  -0.770  53.734  1.00  0.00     0.030 C 
BRANCH  31  32
HETATM   32  C2  UNL     1      28.700   0.324  54.777  1.00  0.00    -0.003 C 
HETATM   33  C1  UNL     1      29.250   1.640  54.301  1.00  0.00     0.005 C 
ENDBRANCH  31  32
ENDBRANCH  30  31
ENDBRANCH   1  30
TORSDOF 6
ENDMDL
MODEL 4
REMARK VINA RESULT:      -8.2      4.290      6.654
REMARK  6 active torsions:
REMARK  status: ('A' for Active; 'I' for Inactive)
REMARK    1  A    between atoms: C2_2  and  C3_3 
REMARK    2  A    between atoms: C3_3  and  C4_4 
REMARK    3  A    between atoms: C4_4  and  N1_5 
REMARK    4  A    between atoms: N2_9  and  O1_10 
REMARK    5  A    between atoms: C12_15  and  N3_16 
REMARK    6  A    between atoms: N3_16  and  C13_17 
ROOT
HETATM    1  N1  UNL     1      27.068   1.578  53.305  1.00  0.00     0.099 NA
HETATM    2  C5  UNL     1      26.366   0.424  53.887  1.00  0.00     0.367 C 
HETATM    3  C6  UNL     1      25.023   0.263  53.565  1.00  0.00    -0.051 C 
HETATM    4  C7  UNL     1      23.937   0.137  53.285  1.00  0.00     0.037 C 
HETATM    5  N2  UNL     1      22.650   0.002  52.933  1.00  0.00    -0.205 N 
HETATM    6  C9  UNL     1      22.344   1.144  52.049  1.00  0.00     0.172 C 
HETATM    7  C10 UNL     1      21.512   2.155  52.673  1.00  0.00     0.007 C 
HETATM    8  C11 UNL     1      20.950   3.202  52.095  1.00  0.00     0.049 C 
HETATM    9  C12 UNL     1      20.891   3.780  50.740  1.00  0.00     0.129 C 
HETATM   10  N4  UNL     1      21.443   3.504  49.608  1.00  0.00    -0.225 NA
HETATM   11  C19 UNL     1      22.360   2.492  49.209  1.00  0.00     0.229 C 
HETATM   12  N5  UNL     1      23.180   1.735  49.854  1.00  0.00    -0.275 NA
HETATM   13  C20 UNL     1      23.540   1.570  51.292  1.00  0.00     0.143 C 
HETATM   14  C21 UNL     1      24.342   2.717  51.757  1.00  0.00     0.010 C 
HETATM   15  C22 UNL     1      23.998   3.376  53.054  1.00  0.00     0.012 C 
HETATM   16  C23 UNL     1      25.778   2.732  51.501  1.00  0.00     0.036 C 
HETATM   17  C24 UNL     1      26.813   1.823  51.937  1.00  0.00     0.274 C 
ENDROOT
BRANCH   9  18
HETATM   18  N3  UNL     1      20.031   4.908  50.591  1.00  0.00    -0.341 N 
HETATM   19  H18 UNL     1      19.035   4.752  50.831  1.00  0.00     0.167 HD
BRANCH  18  20
HETATM   20  C13 UNL     1      20.427   6.202  50.154  1.00  0.00     0.035 A 
HETATM   21  C14 UNL     1      21.572   6.730  50.752  1.00  0.00     0.032 A 
HETATM   22  C15 UNL     1      22.015   7.976  50.370  1.00  0.00     0.046 A 
HETATM   23  C16 UNL     1      21.324   8.656  49.423  1.00  0.00     0.138 A 
HETATM   24  F1  UNL     1      21.745   9.892  49.027  1.00  0.00    -0.204 F 
HETATM   25  C17 UNL     1      20.186   8.174  48.804  1.00  0.00     0.074 A 
HETATM   26 CL1  UNL     1      19.295   9.055  47.577  1.00  0.00    -0.081 Cl
HETATM   27  C18 UNL     1      19.744   6.921  49.191  1.00  0.00     0.056 A 
ENDBRANCH  18  20
ENDBRANCH   9  18
BRANCH   5  28
HETATM   28  O1  UNL     1      21.930  -1.050  53.386  1.00  0.00    -0.274 OA
HETATM   29  C8  UNL     1      21.780  -0.820  54.774  1.00  0.00     0.239 C 
ENDBRANCH   5  28
BRANCH   1  30
HETATM   30  C4  UNL     1      28.488   1.198  53.516  1.00  0.00     0.273 C 
BRANCH  30  31
HETATM   31  C3  UNL     1      28.666  -0.109  54.192  1.00  0.00     0.030 C 
BRANCH  31  32
HETATM   32  C2  UNL     1      29.729  -0.963  53.518  1.00  0.00    -0.003 C 
HETATM   33  C1  UNL     1      29.243  -2.363  53.268  1.00  0.00     0.005 C 
ENDBRANCH  31  32
ENDBRANCH  30  31
ENDBRANCH   1  30
TORSDOF 6
ENDMDL
MODEL 5
REMARK VINA RESULT:      -8.2      5.426      8.539
REMARK  6 active torsions:
REMARK  status: ('A' for Active; 'I' for Inactive)
REMARK    1  A    between atoms: C2_2  and  C3_3 
REMARK    2  A    between atoms: C3_3  and  C4_4 
REMARK    3  A    between atoms: C4_4  and  N1_5 
REMARK    4  A    between atoms: N2_9  and  O1_10 
REMARK    5  A    between atoms: C12_15  and  N3_16 
REMARK    6  A    between atoms: N3_16  and  C13_17 
ROOT
HETATM    1  N1  UNL     1      26.759   1.944  52.925  1.00  0.00     0.099 NA
HETATM    2  C5  UNL     1      26.196   0.754  53.581  1.00  0.00     0.367 C 
HETATM    3  C6  UNL     1      24.854   0.471  53.350  1.00  0.00    -0.051 C 
HETATM    4  C7  UNL     1      23.768   0.246  53.144  1.00  0.00     0.037 C 
HETATM    5  N2  UNL     1      22.478  -0.008  52.880  1.00  0.00    -0.205 N 
HETATM    6  C9  UNL     1      22.020   1.076  51.988  1.00  0.00     0.172 C 
HETATM    7  C10 UNL     1      21.146   2.033  52.638  1.00  0.00     0.007 C 
HETATM    8  C11 UNL     1      20.461   3.010  52.070  1.00  0.00     0.049 C 
HETATM    9  C12 UNL     1      20.269   3.539  50.708  1.00  0.00     0.129 C 
HETATM   10  N4  UNL     1      20.771   3.275  49.550  1.00  0.00    -0.225 NA
HETATM   11  C19 UNL     1      21.745   2.332  49.119  1.00  0.00     0.229 C 
HETATM   12  N5  UNL     1      22.665   1.666  49.729  1.00  0.00    -0.275 NA
HETATM   13  C20 UNL     1      23.126   1.577  51.145  1.00  0.00     0.143 C 
HETATM   14  C21 UNL     1      23.855   2.802  51.527  1.00  0.00     0.010 C 
HETATM   15  C22 UNL     1      23.536   3.469  52.826  1.00  0.00     0.012 C 
HETATM   16  C23 UNL     1      25.265   2.929  51.179  1.00  0.00     0.036 C 
HETATM   17  C24 UNL     1      26.400   2.124  51.570  1.00  0.00     0.274 C 
ENDROOT
BRANCH   9  18
HETATM   18  N3  UNL     1      19.308   4.585  50.585  1.00  0.00    -0.341 N 
HETATM   19  H18 UNL     1      19.690   5.547  50.528  1.00  0.00     0.167 HD
BRANCH  18  20
HETATM   20  C13 UNL     1      17.898   4.414  50.531  1.00  0.00     0.035 A 
HETATM   21  C14 UNL     1      17.316   4.490  49.264  1.00  0.00     0.032 A 
HETATM   22  C15 UNL     1      15.956   4.327  49.139  1.00  0.00     0.046 A 
HETATM   23  C16 UNL     1      15.217   4.097  50.252  1.00  0.00     0.138 A 
HETATM   24  F1  UNL     1      13.867   3.929  50.152  1.00  0.00    -0.204 F 
HETATM   25  C17 UNL     1      15.747   4.014  51.525  1.00  0.00     0.074 A 
HETATM   26 CL1  UNL     1      14.790   3.715  52.964  1.00  0.00    -0.081 Cl
HETATM   27  C18 UNL     1      17.117   4.179  51.647  1.00  0.00     0.056 A 
ENDBRANCH  18  20
ENDBRANCH   9  18
BRANCH   5  28
HETATM   28  O1  UNL     1      21.880  -1.102  53.405  1.00  0.00    -0.274 OA
HETATM   29  C8  UNL     1      21.801  -0.844  54.794  1.00  0.00     0.239 C 
ENDBRANCH   5  28
BRANCH   1  30
HETATM   30  C4  UNL     1      28.217   1.692  53.054  1.00  0.00     0.273 C 
BRANCH  30  31
HETATM   31  C3  UNL     1      28.567   0.723  54.120  1.00  0.00     0.030 C 
BRANCH  31  32
HETATM   32  C2  UNL     1      29.719  -0.184  53.715  1.00  0.00    -0.003 C 
HETATM   33  C1  UNL     1      29.236  -1.542  53.291  1.00  0.00     0.005 C 
ENDBRANCH  31  32
ENDBRANCH  30  31
ENDBRANCH   1  30
TORSDOF 6
ENDMDL
MODEL 6
REMARK VINA RESULT:      -8.2      3.862      6.360
REMARK  6 active torsions:
REMARK  status: ('A' for Active; 'I' for Inactive)
REMARK    1  A    between atoms: C2_2  and  C3_3 
REMARK    2  A    between atoms: C3_3  and  C4_4 
REMARK    3  A    between atoms: C4_4  and  N1_5 
REMARK    4  A    between atoms: N2_9  and  O1_10 
REMARK    5  A    between atoms: C12_15  and  N3_16 
REMARK    6  A    between atoms: N3_16  and  C13_17 
ROOT
HETATM    1  N1  UNL     1      26.056   0.450  53.489  1.00  0.00     0.099 NA
HETATM    2  C5  UNL     1      25.111  -0.437  54.183  1.00  0.00     0.367 C 
HETATM    3  C6  UNL     1      23.762  -0.298  53.879  1.00  0.00    -0.051 C 
HETATM    4  C7  UNL     1      22.671  -0.183  53.613  1.00  0.00     0.037 C 
HETATM    5  N2  UNL     1      21.381  -0.036  53.277  1.00  0.00    -0.205 N 
HETATM    6  C9  UNL     1      21.338   1.055  52.283  1.00  0.00     0.172 C 
HETATM    7  C10 UNL     1      20.791   2.294  52.803  1.00  0.00     0.007 C 
HETATM    8  C11 UNL     1      20.484   3.384  52.123  1.00  0.00     0.049 C 
HETATM    9  C12 UNL     1      20.533   3.826  50.718  1.00  0.00     0.129 C 
HETATM   10  N4  UNL     1      20.975   3.316  49.619  1.00  0.00    -0.225 NA
HETATM   11  C19 UNL     1      21.611   2.078  49.323  1.00  0.00     0.229 C 
HETATM   12  N5  UNL     1      22.239   1.211  50.040  1.00  0.00    -0.275 NA
HETATM   13  C20 UNL     1      22.583   1.104  51.487  1.00  0.00     0.143 C 
HETATM   14  C21 UNL     1      23.650   2.061  51.835  1.00  0.00     0.010 C 
HETATM   15  C22 UNL     1      23.506   2.906  53.060  1.00  0.00     0.012 C 
HETATM   16  C23 UNL     1      25.040   1.703  51.579  1.00  0.00     0.036 C 
HETATM   17  C24 UNL     1      25.835   0.616  52.103  1.00  0.00     0.274 C 
ENDROOT
BRANCH   9  18
HETATM   18  N3  UNL     1      19.968   5.109  50.457  1.00  0.00    -0.341 N 
HETATM   19  H18 UNL     1      18.937   5.176  50.549  1.00  0.00     0.167 HD
BRANCH  18  20
HETATM   20  C13 UNL     1      20.692   6.277  50.094  1.00  0.00     0.035 A 
HETATM   21  C14 UNL     1      20.056   7.145  49.206  1.00  0.00     0.032 A 
HETATM   22  C15 UNL     1      20.699   8.299  48.819  1.00  0.00     0.046 A 
HETATM   23  C16 UNL     1      21.933   8.560  49.313  1.00  0.00     0.138 A 
HETATM   24  F1  UNL     1      22.589   9.698  48.945  1.00  0.00    -0.204 F 
HETATM   25  C17 UNL     1      22.602   7.731  50.193  1.00  0.00     0.074 A 
HETATM   26 CL1  UNL     1      24.199   8.071  50.833  1.00  0.00    -0.081 Cl
HETATM   27  C18 UNL     1      21.953   6.571  50.580  1.00  0.00     0.056 A 
ENDBRANCH  18  20
ENDBRANCH   9  18
BRANCH   5  28
HETATM   28  O1  UNL     1      20.439  -0.833  53.832  1.00  0.00    -0.274 OA
HETATM   29  C8  UNL     1      19.292  -0.661  53.021  1.00  0.00     0.239 C 
ENDBRANCH   5  28
BRANCH   1  30
HETATM   30  C4  UNL     1      27.347  -0.241  53.737  1.00  0.00     0.273 C 
BRANCH  30  31
HETATM   31  C3  UNL     1      28.539   0.595  53.457  1.00  0.00     0.030 C 
BRANCH  31  32
HETATM   32  C2  UNL     1      29.838  -0.165  53.682  1.00  0.00    -0.003 C 
HETATM   33  C1  UNL     1      29.666  -1.641  53.458  1.00  0.00     0.005 C 
ENDBRANCH  31  32
ENDBRANCH  30  31
ENDBRANCH   1  30
TORSDOF 6
ENDMDL
MODEL 7
REMARK VINA RESULT:      -8.2      4.060      8.473
REMARK  6 active torsions:
REMARK  status: ('A' for Active; 'I' for Inactive)
REMARK    1  A    between atoms: C2_2  and  C3_3 
REMARK    2  A    between atoms: C3_3  and  C4_4 
REMARK    3  A    between atoms: C4_4  and  N1_5 
REMARK    4  A    between atoms: N2_9  and  O1_10 
REMARK    5  A    between atoms: C12_15  and  N3_16 
REMARK    6  A    between atoms: N3_16  and  C13_17 
ROOT
HETATM    1  N1  UNL     1      25.975   8.004  48.104  1.00  0.00     0.099 NA
HETATM    2  C5  UNL     1      24.893   7.731  47.145  1.00  0.00     0.367 C 
HETATM    3  C6  UNL     1      23.978   6.739  47.479  1.00  0.00    -0.051 C 
HETATM    4  C7  UNL     1      23.235   5.940  47.768  1.00  0.00     0.037 C 
HETATM    5  N2  UNL     1      22.359   4.994  48.134  1.00  0.00    -0.205 N 
HETATM    6  C9  UNL     1      22.819   4.492  49.444  1.00  0.00     0.172 C 
HETATM    7  C10 UNL     1      23.410   3.169  49.384  1.00  0.00     0.007 C 
HETATM    8  C11 UNL     1      23.767   2.402  50.399  1.00  0.00     0.049 C 
HETATM    9  C12 UNL     1      23.749   2.487  51.870  1.00  0.00     0.129 C 
HETATM   10  N4  UNL     1      23.434   3.399  52.725  1.00  0.00    -0.225 NA
HETATM   11  C19 UNL     1      22.961   4.732  52.575  1.00  0.00     0.229 C 
HETATM   12  N5  UNL     1      22.987   5.578  51.602  1.00  0.00    -0.275 NA
HETATM   13  C20 UNL     1      23.514   5.550  50.207  1.00  0.00     0.143 C 
HETATM   14  C21 UNL     1      24.988   5.616  50.212  1.00  0.00     0.010 C 
HETATM   15  C22 UNL     1      25.767   4.670  49.355  1.00  0.00     0.012 C 
HETATM   16  C23 UNL     1      25.643   6.914  50.329  1.00  0.00     0.036 C 
HETATM   17  C24 UNL     1      25.587   8.068  49.462  1.00  0.00     0.274 C 
ENDROOT
BRANCH   9  18
HETATM   18  N3  UNL     1      24.161   1.308  52.558  1.00  0.00    -0.341 N 
HETATM   19  H18 UNL     1      23.400   0.699  52.910  1.00  0.00     0.167 HD
BRANCH  18  20
HETATM   20  C13 UNL     1      25.506   0.909  52.789  1.00  0.00     0.035 A 
HETATM   21  C14 UNL     1      25.786  -0.447  52.613  1.00  0.00     0.032 A 
HETATM   22  C15 UNL     1      27.070  -0.899  52.814  1.00  0.00     0.046 A 
HETATM   23  C16 UNL     1      28.029  -0.013  53.177  1.00  0.00     0.138 A 
HETATM   24  F1  UNL     1      29.309  -0.437  53.380  1.00  0.00    -0.204 F 
HETATM   25  C17 UNL     1      27.800   1.337  53.364  1.00  0.00     0.074 A 
HETATM   26 CL1  UNL     1      29.042   2.482  53.832  1.00  0.00    -0.081 Cl
HETATM   27  C18 UNL     1      26.506   1.789  53.161  1.00  0.00     0.056 A 
ENDBRANCH  18  20
ENDBRANCH   9  18
BRANCH   5  28
HETATM   28  O1  UNL     1      21.306   4.698  47.337  1.00  0.00    -0.274 OA
HETATM   29  C8  UNL     1      21.868   4.031  46.223  1.00  0.00     0.239 C 
ENDBRANCH   5  28
BRANCH   1  30
HETATM   30  C4  UNL     1      26.461   9.326  47.633  1.00  0.00     0.273 C 
BRANCH  30  31
HETATM   31  C3  UNL     1      27.931   9.398  47.462  1.00  0.00     0.030 C 
BRANCH  31  32
HETATM   32  C2  UNL     1      28.471   8.238  46.639  1.00  0.00    -0.003 C 
HETATM   33  C1  UNL     1      29.077   7.173  47.509  1.00  0.00     0.005 C 
ENDBRANCH  31  32
ENDBRANCH  30  31
ENDBRANCH   1  30
TORSDOF 6
ENDMDL
MODEL 8
REMARK VINA RESULT:      -7.9      4.675      7.540
REMARK  6 active torsions:
REMARK  status: ('A' for Active; 'I' for Inactive)
REMARK    1  A    between atoms: C2_2  and  C3_3 
REMARK    2  A    between atoms: C3_3  and  C4_4 
REMARK    3  A    between atoms: C4_4  and  N1_5 
REMARK    4  A    between atoms: N2_9  and  O1_10 
REMARK    5  A    between atoms: C12_15  and  N3_16 
REMARK    6  A    between atoms: N3_16  and  C13_17 
ROOT
HETATM    1  N1  UNL     1      20.535   7.940  48.791  1.00  0.00     0.099 NA
HETATM    2  C5  UNL     1      19.938   6.848  48.007  1.00  0.00     0.367 C 
HETATM    3  C6  UNL     1      20.436   5.567  48.213  1.00  0.00    -0.051 C 
HETATM    4  C7  UNL     1      20.841   4.530  48.400  1.00  0.00     0.037 C 
HETATM    5  N2  UNL     1      21.330   3.306  48.642  1.00  0.00    -0.205 N 
HETATM    6  C9  UNL     1      22.389   3.480  49.657  1.00  0.00     0.172 C 
HETATM    7  C10 UNL     1      23.731   3.329  49.128  1.00  0.00     0.007 C 
HETATM    8  C11 UNL     1      24.861   3.275  49.810  1.00  0.00     0.049 C 
HETATM    9  C12 UNL     1      25.269   3.332  51.225  1.00  0.00     0.129 C 
HETATM   10  N4  UNL     1      24.654   3.531  52.341  1.00  0.00    -0.225 NA
HETATM   11  C19 UNL     1      23.290   3.785  52.653  1.00  0.00     0.229 C 
HETATM   12  N5  UNL     1      22.287   4.211  51.964  1.00  0.00    -0.275 NA
HETATM   13  C20 UNL     1      22.096   4.625  50.544  1.00  0.00     0.143 C 
HETATM   14  C21 UNL     1      22.730   5.935  50.300  1.00  0.00     0.010 C 
HETATM   15  C22 UNL     1      23.587   6.120  49.089  1.00  0.00     0.012 C 
HETATM   16  C23 UNL     1      22.008   7.152  50.650  1.00  0.00     0.036 C 
HETATM   17  C24 UNL     1      20.749   7.664  50.161  1.00  0.00     0.274 C 
ENDROOT
BRANCH   9  18
HETATM   18  N3  UNL     1      26.655   3.113  51.474  1.00  0.00    -0.341 N 
HETATM   19  H18 UNL     1      27.301   3.836  51.105  1.00  0.00     0.167 HD
BRANCH  18  20
HETATM   20  C13 UNL     1      27.208   2.010  52.180  1.00  0.00     0.035 A 
HETATM   21  C14 UNL     1      28.240   2.304  53.073  1.00  0.00     0.032 A 
HETATM   22  C15 UNL     1      28.815   1.283  53.794  1.00  0.00     0.046 A 
HETATM   23  C16 UNL     1      28.363   0.018  53.616  1.00  0.00     0.138 A 
HETATM   24  F1  UNL     1      28.917  -1.010  54.321  1.00  0.00    -0.204 F 
HETATM   25  C17 UNL     1      27.346  -0.321  52.744  1.00  0.00     0.074 A 
HETATM   26 CL1  UNL     1      26.762  -1.959  52.516  1.00  0.00    -0.081 Cl
HETATM   27  C18 UNL     1      26.770   0.709  52.020  1.00  0.00     0.056 A 
ENDBRANCH  18  20
ENDBRANCH   9  18
BRANCH   5  28
HETATM   28  O1  UNL     1      20.820   2.230  47.999  1.00  0.00    -0.274 OA
HETATM   29  C8  UNL     1      21.405   1.111  48.638  1.00  0.00     0.239 C 
ENDBRANCH   5  28
BRANCH   1  30
HETATM   30  C4  UNL     1      19.521   9.013  48.624  1.00  0.00     0.273 C 
BRANCH  30  31
HETATM   31  C3  UNL     1      19.766  10.208  49.464  1.00  0.00     0.030 C 
BRANCH  31  32
HETATM   32  C2  UNL     1      20.381  11.351  48.671  1.00  0.00    -0.003 C 
HETATM   33  C1  UNL     1      20.435  12.621  49.474  1.00  0.00     0.005 C 
ENDBRANCH  31  32
ENDBRANCH  30  31
ENDBRANCH   1  30
TORSDOF 6
ENDMDL
MODEL 9
REMARK VINA RESULT:      -7.6      4.528      9.911
REMARK  6 active torsions:
REMARK  status: ('A' for Active; 'I' for Inactive)
REMARK    1  A    between atoms: C2_2  and  C3_3 
REMARK    2  A    between atoms: C3_3  and  C4_4 
REMARK    3  A    between atoms: C4_4  and  N1_5 
REMARK    4  A    between atoms: N2_9  and  O1_10 
REMARK    5  A    between atoms: C12_15  and  N3_16 
REMARK    6  A    between atoms: N3_16  and  C13_17 
ROOT
HETATM    1  N1  UNL     1      26.567   8.506  47.841  1.00  0.00     0.099 NA
HETATM    2  C5  UNL     1      25.450   8.380  46.893  1.00  0.00     0.367 C 
HETATM    3  C6  UNL     1      24.455   7.457  47.196  1.00  0.00    -0.051 C 
HETATM    4  C7  UNL     1      23.648   6.714  47.460  1.00  0.00     0.037 C 
HETATM    5  N2  UNL     1      22.697   5.831  47.797  1.00  0.00    -0.205 N 
HETATM    6  C9  UNL     1      23.132   5.224  49.071  1.00  0.00     0.172 C 
HETATM    7  C10 UNL     1      23.601   3.859  48.934  1.00  0.00     0.007 C 
HETATM    8  C11 UNL     1      23.904   3.012  49.902  1.00  0.00     0.049 C 
HETATM    9  C12 UNL     1      23.917   3.023  51.376  1.00  0.00     0.129 C 
HETATM   10  N4  UNL     1      23.699   3.915  52.281  1.00  0.00    -0.225 NA
HETATM   11  C19 UNL     1      23.345   5.291  52.206  1.00  0.00     0.229 C 
HETATM   12  N5  UNL     1      23.431   6.179  51.276  1.00  0.00    -0.275 NA
HETATM   13  C20 UNL     1      23.931   6.176  49.871  1.00  0.00     0.143 C 
HETATM   14  C21 UNL     1      25.404   6.111  49.849  1.00  0.00     0.010 C 
HETATM   15  C22 UNL     1      26.082   5.145  48.930  1.00  0.00     0.012 C 
HETATM   16  C23 UNL     1      26.175   7.338  50.016  1.00  0.00     0.036 C 
HETATM   17  C24 UNL     1      26.209   8.535  49.208  1.00  0.00     0.274 C 
ENDROOT
BRANCH   9  18
HETATM   18  N3  UNL     1      24.234   1.779  51.996  1.00  0.00    -0.341 N 
HETATM   19  H18 UNL     1      25.240   1.533  52.029  1.00  0.00     0.167 HD
BRANCH  18  20
HETATM   20  C13 UNL     1      23.297   0.874  52.565  1.00  0.00     0.035 A 
HETATM   21  C14 UNL     1      23.789   0.015  53.549  1.00  0.00     0.032 A 
HETATM   22  C15 UNL     1      22.934  -0.883  54.146  1.00  0.00     0.046 A 
HETATM   23  C16 UNL     1      21.635  -0.907  53.761  1.00  0.00     0.138 A 
HETATM   24  F1  UNL     1      20.768  -1.786  54.341  1.00  0.00    -0.204 F 
HETATM   25  C17 UNL     1      21.102  -0.077  52.793  1.00  0.00     0.074 A 
HETATM   26 CL1  UNL     1      19.420  -0.109  52.298  1.00  0.00    -0.081 Cl
HETATM   27  C18 UNL     1      21.966   0.824  52.194  1.00  0.00     0.056 A 
ENDBRANCH  18  20
ENDBRANCH   9  18
BRANCH   5  28
HETATM   28  O1  UNL     1      21.609   5.671  47.008  1.00  0.00    -0.274 OA
HETATM   29  C8  UNL     1      20.641   6.556  47.538  1.00  0.00     0.239 C 
ENDBRANCH   5  28
BRANCH   1  30
HETATM   30  C4  UNL     1      27.163   9.802  47.426  1.00  0.00     0.273 C 
BRANCH  30  31
HETATM   31  C3  UNL     1      27.564  10.669  48.559  1.00  0.00     0.030 C 
BRANCH  31  32
HETATM   32  C2  UNL     1      27.968  12.062  48.100  1.00  0.00    -0.003 C 
HETATM   33  C1  UNL     1      28.728  12.801  49.166  1.00  0.00     0.005 C 
ENDBRANCH  31  32
ENDBRANCH  30  31
ENDBRANCH   1  30
TORSDOF 6
ENDMDL
