MODEL 1
REMARK VINA RESULT:      -8.2      0.000      0.000
REMARK  0 active torsions:
REMARK  status: ('A' for Active; 'I' for Inactive)
ROOT
HETATM    1  F1  UNL     1      20.506  -0.159  52.293  1.00  0.00    -0.187 F 
HETATM    2  C1  UNL     1      21.807  -0.093  52.629  1.00  0.00     0.184 C 
HETATM    3  C2  UNL     1      22.614  -0.569  53.528  1.00  0.00     0.061 C 
HETATM    4  C3  UNL     1      23.979  -0.550  53.951  1.00  0.00     0.005 C 
HETATM    5  C4  UNL     1      25.135  -0.095  53.719  1.00  0.00     0.015 C 
HETATM    6  C5  UNL     1      26.475   0.391  53.507  1.00  0.00     0.012 A 
HETATM    7  C6  UNL     1      27.115  -0.274  54.515  1.00  0.00     0.131 A 
HETATM    8  N1  UNL     1      28.473  -0.117  54.678  1.00  0.00    -0.253 NA
HETATM    9  C7  UNL     1      29.117   0.695  53.828  1.00  0.00     0.233 A 
HETATM   10  N2  UNL     1      28.450   1.327  52.856  1.00  0.00    -0.240 NA
HETATM   11  C8  UNL     1      27.155   1.209  52.660  1.00  0.00     0.086 A 
HETATM   12  C9  UNL     1      26.638   1.985  51.572  1.00  0.00     0.145 C 
HETATM   13  N3  UNL     1      26.467   3.197  51.101  1.00  0.00    -0.270 NA
HETATM   14  C10 UNL     1      25.795   3.333  49.798  1.00  0.00     0.418 C 
HETATM   15  N4  UNL     1      24.854   4.438  49.934  1.00  0.00     0.113 N 
HETATM   16  C11 UNL     1      23.796   4.275  48.891  1.00  0.00     0.365 C 
HETATM   17  C12 UNL     1      23.086   3.095  49.311  1.00  0.00    -0.075 C 
HETATM   18  C13 UNL     1      22.535   2.157  49.659  1.00  0.00    -0.085 C 
HETATM   19  C14 UNL     1      21.872   0.995  50.106  1.00  0.00     0.216 C 
HETATM   20  N5  UNL     1      22.079   0.774  51.549  1.00  0.00    -0.356 N 
HETATM   21  H9  UNL     1      24.394   4.476  50.855  1.00  0.00     0.319 HD
HETATM   22  H14 UNL     1      22.638   1.517  52.042  1.00  0.00     0.162 HD
ENDROOT
TORSDOF 0
ENDMDL
MODEL 2
REMARK VINA RESULT:      -8.0      2.435      6.065
REMARK  0 active torsions:
REMARK  status: ('A' for Active; 'I' for Inactive)
ROOT
HETATM    1  F1  UNL     1      25.109   5.052  50.601  1.00  0.00    -0.187 F 
HETATM    2  C1  UNL     1      24.332   4.089  51.129  1.00  0.00     0.184 C 
HETATM    3  C2  UNL     1      23.072   3.800  51.250  1.00  0.00     0.061 C 
HETATM    4  C3  UNL     1      22.179   2.819  51.784  1.00  0.00     0.005 C 
HETATM    5  C4  UNL     1      22.087   1.725  52.410  1.00  0.00     0.015 C 
HETATM    6  C5  UNL     1      21.916   0.482  53.119  1.00  0.00     0.012 A 
HETATM    7  C6  UNL     1      20.555   0.382  53.068  1.00  0.00     0.131 A 
HETATM    8  N1  UNL     1      19.932  -0.711  53.627  1.00  0.00    -0.253 NA
HETATM    9  C7  UNL     1      20.702  -1.642  54.208  1.00  0.00     0.233 A 
HETATM   10  N2  UNL     1      22.032  -1.503  54.235  1.00  0.00    -0.240 NA
HETATM   11  C8  UNL     1      22.672  -0.478  53.716  1.00  0.00     0.086 A 
HETATM   12  C9  UNL     1      24.096  -0.518  53.869  1.00  0.00     0.145 C 
HETATM   13  N3  UNL     1      25.085  -0.531  54.730  1.00  0.00    -0.270 NA
HETATM   14  C10 UNL     1      26.456  -0.577  54.192  1.00  0.00     0.418 C 
HETATM   15  N4  UNL     1      27.237   0.371  54.978  1.00  0.00     0.113 N 
HETATM   16  C11 UNL     1      28.427   0.771  54.168  1.00  0.00     0.365 C 
HETATM   17  C12 UNL     1      27.859   1.529  53.083  1.00  0.00    -0.075 C 
HETATM   18  C13 UNL     1      27.391   2.126  52.230  1.00  0.00    -0.085 C 
HETATM   19  C14 UNL     1      26.789   2.857  51.185  1.00  0.00     0.216 C 
HETATM   20  N5  UNL     1      25.463   3.371  51.574  1.00  0.00    -0.356 N 
HETATM   21  H9  UNL     1      26.717   1.223  55.230  1.00  0.00     0.319 HD
HETATM   22  H14 UNL     1      25.176   3.167  52.567  1.00  0.00     0.162 HD
ENDROOT
TORSDOF 0
ENDMDL
MODEL 3
REMARK VINA RESULT:      -7.9      2.013      4.352
REMARK  0 active torsions:
REMARK  status: ('A' for Active; 'I' for Inactive)
ROOT
HETATM    1  F1  UNL     1      23.271   3.774  49.085  1.00  0.00    -0.187 F 
HETATM    2  C1  UNL     1      24.194   3.254  49.914  1.00  0.00     0.184 C 
HETATM    3  C2  UNL     1      25.481   3.272  50.085  1.00  0.00     0.061 C 
HETATM    4  C3  UNL     1      26.521   2.760  50.921  1.00  0.00     0.005 C 
HETATM    5  C4  UNL     1      26.793   2.038  51.922  1.00  0.00     0.015 C 
HETATM    6  C5  UNL     1      27.166   1.229  53.055  1.00  0.00     0.012 A 
HETATM    7  C6  UNL     1      28.514   1.450  53.052  1.00  0.00     0.131 A 
HETATM    8  N1  UNL     1      29.302   0.865  54.018  1.00  0.00    -0.253 NA
HETATM    9  C7  UNL     1      28.700   0.091  54.932  1.00  0.00     0.233 A 
HETATM   10  N2  UNL     1      27.377  -0.099  54.897  1.00  0.00    -0.240 NA
HETATM   11  C8  UNL     1      26.584   0.438  53.995  1.00  0.00     0.086 A 
HETATM   12  C9  UNL     1      25.199   0.093  54.130  1.00  0.00     0.145 C 
HETATM   13  N3  UNL     1      24.330  -0.889  54.120  1.00  0.00    -0.270 NA
HETATM   14  C10 UNL     1      22.914  -0.546  54.338  1.00  0.00     0.418 C 
HETATM   15  N4  UNL     1      22.150  -1.324  53.369  1.00  0.00     0.113 N 
HETATM   16  C11 UNL     1      20.836  -0.641  53.163  1.00  0.00     0.365 C 
HETATM   17  C12 UNL     1      21.193   0.585  52.497  1.00  0.00    -0.075 C 
HETATM   18  C13 UNL     1      21.494   1.551  51.969  1.00  0.00    -0.085 C 
HETATM   19  C14 UNL     1      21.890   2.740  51.322  1.00  0.00     0.216 C 
HETATM   20  N5  UNL     1      23.199   2.588  50.661  1.00  0.00    -0.356 N 
HETATM   21  H9  UNL     1      22.614  -1.411  52.454  1.00  0.00     0.319 HD
HETATM   22  H14 UNL     1      23.625   1.627  50.723  1.00  0.00     0.162 HD
ENDROOT
TORSDOF 0
ENDMDL
MODEL 4
REMARK VINA RESULT:      -7.9      1.878      2.353
REMARK  0 active torsions:
REMARK  status: ('A' for Active; 'I' for Inactive)
ROOT
HETATM    1  F1  UNL     1      20.124   3.754  51.454  1.00  0.00    -0.187 F 
HETATM    2  C1  UNL     1      21.169   2.996  51.832  1.00  0.00     0.184 C 
HETATM    3  C2  UNL     1      21.437   2.040  52.669  1.00  0.00     0.061 C 
HETATM    4  C3  UNL     1      22.496   1.196  53.126  1.00  0.00     0.005 C 
HETATM    5  C4  UNL     1      23.717   0.894  52.998  1.00  0.00     0.015 C 
HETATM    6  C5  UNL     1      25.101   0.504  52.899  1.00  0.00     0.012 A 
HETATM    7  C6  UNL     1      25.111  -0.514  53.810  1.00  0.00     0.131 A 
HETATM    8  N1  UNL     1      26.274  -1.216  54.032  1.00  0.00    -0.253 NA
HETATM    9  C7  UNL     1      27.363  -0.863  53.333  1.00  0.00     0.233 A 
HETATM   10  N2  UNL     1      27.307   0.141  52.451  1.00  0.00    -0.240 NA
HETATM   11  C8  UNL     1      26.221   0.840  52.205  1.00  0.00     0.086 A 
HETATM   12  C9  UNL     1      26.383   1.882  51.235  1.00  0.00     0.145 C 
HETATM   13  N3  UNL     1      27.009   2.999  50.950  1.00  0.00    -0.270 NA
HETATM   14  C10 UNL     1      26.696   3.646  49.665  1.00  0.00     0.418 C 
HETATM   15  N4  UNL     1      26.572   5.073  49.943  1.00  0.00     0.113 N 
HETATM   16  C11 UNL     1      25.745   5.685  48.859  1.00  0.00     0.365 C 
HETATM   17  C12 UNL     1      24.436   5.124  49.075  1.00  0.00    -0.075 C 
HETATM   18  C13 UNL     1      23.406   4.669  49.260  1.00  0.00    -0.085 C 
HETATM   19  C14 UNL     1      22.143   4.091  49.507  1.00  0.00     0.216 C 
HETATM   20  N5  UNL     1      22.017   3.638  50.904  1.00  0.00    -0.356 N 
HETATM   21  H9  UNL     1      26.122   5.279  50.846  1.00  0.00     0.319 HD
HETATM   22  H14 UNL     1      22.846   3.844  51.520  1.00  0.00     0.162 HD
ENDROOT
TORSDOF 0
ENDMDL
MODEL 5
REMARK VINA RESULT:      -7.8      2.331      3.751
REMARK  0 active torsions:
REMARK  status: ('A' for Active; 'I' for Inactive)
ROOT
HETATM    1  F1  UNL     1      19.431   2.152  48.823  1.00  0.00    -0.187 F 
HETATM    2  C1  UNL     1      20.001   1.558  49.887  1.00  0.00     0.184 C 
HETATM    3  C2  UNL     1      19.666   0.789  50.878  1.00  0.00     0.061 C 
HETATM    4  C3  UNL     1      20.195   0.126  52.028  1.00  0.00     0.005 C 
HETATM    5  C4  UNL     1      21.230  -0.095  52.719  1.00  0.00     0.015 C 
HETATM    6  C5  UNL     1      22.374  -0.385  53.547  1.00  0.00     0.012 A 
HETATM    7  C6  UNL     1      21.787  -1.222  54.452  1.00  0.00     0.131 A 
HETATM    8  N1  UNL     1      22.547  -1.780  55.456  1.00  0.00    -0.253 NA
HETATM    9  C7  UNL     1      23.850  -1.469  55.501  1.00  0.00     0.233 A 
HETATM   10  N2  UNL     1      24.383  -0.643  54.594  1.00  0.00    -0.240 NA
HETATM   11  C8  UNL     1      23.699  -0.087  53.618  1.00  0.00     0.086 A 
HETATM   12  C9  UNL     1      24.460   0.777  52.765  1.00  0.00     0.145 C 
HETATM   13  N3  UNL     1      25.178   1.873  52.711  1.00  0.00    -0.270 NA
HETATM   14  C10 UNL     1      25.735   2.257  51.402  1.00  0.00     0.418 C 
HETATM   15  N4  UNL     1      25.531   3.696  51.276  1.00  0.00     0.113 N 
HETATM   16  C11 UNL     1      25.555   4.040  49.822  1.00  0.00     0.365 C 
HETATM   17  C12 UNL     1      24.359   3.423  49.308  1.00  0.00    -0.075 C 
HETATM   18  C13 UNL     1      23.408   2.927  48.919  1.00  0.00    -0.085 C 
HETATM   19  C14 UNL     1      22.229   2.303  48.460  1.00  0.00     0.216 C 
HETATM   20  N5  UNL     1      21.264   2.093  49.554  1.00  0.00    -0.356 N 
HETATM   21  H9  UNL     1      24.636   4.021  51.668  1.00  0.00     0.319 HD
HETATM   22  H14 UNL     1      21.560   2.470  50.492  1.00  0.00     0.162 HD
ENDROOT
TORSDOF 0
ENDMDL
MODEL 6
REMARK VINA RESULT:      -7.8      2.231      2.460
REMARK  0 active torsions:
REMARK  status: ('A' for Active; 'I' for Inactive)
ROOT
HETATM    1  F1  UNL     1      18.709  -0.596  53.295  1.00  0.00    -0.187 F 
HETATM    2  C1  UNL     1      20.039  -0.509  53.476  1.00  0.00     0.184 C 
HETATM    3  C2  UNL     1      21.001  -1.183  54.031  1.00  0.00     0.061 C 
HETATM    4  C3  UNL     1      22.410  -1.164  54.266  1.00  0.00     0.005 C 
HETATM    5  C4  UNL     1      23.488  -0.528  54.087  1.00  0.00     0.015 C 
HETATM    6  C5  UNL     1      24.748   0.150  53.917  1.00  0.00     0.012 A 
HETATM    7  C6  UNL     1      25.572  -0.757  54.520  1.00  0.00     0.131 A 
HETATM    8  N1  UNL     1      26.927  -0.518  54.569  1.00  0.00    -0.253 NA
HETATM    9  C7  UNL     1      27.384   0.615  54.015  1.00  0.00     0.233 A 
HETATM   10  N2  UNL     1      26.540   1.475  53.435  1.00  0.00    -0.240 NA
HETATM   11  C8  UNL     1      25.240   1.290  53.363  1.00  0.00     0.086 A 
HETATM   12  C9  UNL     1      24.518   2.343  52.712  1.00  0.00     0.145 C 
HETATM   13  N3  UNL     1      24.203   3.616  52.753  1.00  0.00    -0.270 NA
HETATM   14  C10 UNL     1      23.335   4.137  51.683  1.00  0.00     0.418 C 
HETATM   15  N4  UNL     1      22.358   5.004  52.332  1.00  0.00     0.113 N 
HETATM   16  C11 UNL     1      21.167   5.110  51.436  1.00  0.00     0.365 C 
HETATM   17  C12 UNL     1      20.603   3.785  51.465  1.00  0.00    -0.075 C 
HETATM   18  C13 UNL     1      20.170   2.730  51.499  1.00  0.00    -0.085 C 
HETATM   19  C14 UNL     1      19.656   1.418  51.554  1.00  0.00     0.216 C 
HETATM   20  N5  UNL     1      20.091   0.714  52.774  1.00  0.00    -0.356 N 
HETATM   21  H9  UNL     1      22.042   4.654  53.248  1.00  0.00     0.319 HD
HETATM   22  H14 UNL     1      20.671   1.287  53.440  1.00  0.00     0.162 HD
ENDROOT
TORSDOF 0
ENDMDL
MODEL 7
REMARK VINA RESULT:      -7.7      2.846      5.098
REMARK  0 active torsions:
REMARK  status: ('A' for Active; 'I' for Inactive)
ROOT
HETATM    1  F1  UNL     1      27.082   3.364  50.201  1.00  0.00    -0.187 F 
HETATM    2  C1  UNL     1      26.270   2.577  50.930  1.00  0.00     0.184 C 
HETATM    3  C2  UNL     1      26.338   1.770  51.946  1.00  0.00     0.061 C 
HETATM    4  C3  UNL     1      25.543   0.912  52.767  1.00  0.00     0.005 C 
HETATM    5  C4  UNL     1      24.383   0.459  52.985  1.00  0.00     0.015 C 
HETATM    6  C5  UNL     1      23.085  -0.092  53.283  1.00  0.00     0.012 A 
HETATM    7  C6  UNL     1      23.407  -0.838  54.381  1.00  0.00     0.131 A 
HETATM    8  N1  UNL     1      22.424  -1.547  55.034  1.00  0.00    -0.253 NA
HETATM    9  C7  UNL     1      21.175  -1.474  54.553  1.00  0.00     0.233 A 
HETATM   10  N2  UNL     1      20.905  -0.732  53.473  1.00  0.00    -0.240 NA
HETATM   11  C8  UNL     1      21.809  -0.038  52.817  1.00  0.00     0.086 A 
HETATM   12  C9  UNL     1      21.310   0.676  51.679  1.00  0.00     0.145 C 
HETATM   13  N3  UNL     1      20.735   0.562  50.506  1.00  0.00    -0.270 NA
HETATM   14  C10 UNL     1      20.467   1.801  49.757  1.00  0.00     0.418 C 
HETATM   15  N4  UNL     1      20.843   1.535  48.373  1.00  0.00     0.113 N 
HETATM   16  C11 UNL     1      21.117   2.844  47.708  1.00  0.00     0.365 C 
HETATM   17  C12 UNL     1      22.312   3.313  48.362  1.00  0.00    -0.075 C 
HETATM   18  C13 UNL     1      23.259   3.668  48.891  1.00  0.00    -0.085 C 
HETATM   19  C14 UNL     1      24.426   4.088  49.561  1.00  0.00     0.216 C 
HETATM   20  N5  UNL     1      25.152   2.949  50.154  1.00  0.00    -0.356 N 
HETATM   21  H9  UNL     1      21.683   0.946  48.282  1.00  0.00     0.319 HD
HETATM   22  H14 UNL     1      24.735   2.002  49.961  1.00  0.00     0.162 HD
ENDROOT
TORSDOF 0
ENDMDL
MODEL 8
REMARK VINA RESULT:      -7.5      2.421      5.591
REMARK  0 active torsions:
REMARK  status: ('A' for Active; 'I' for Inactive)
ROOT
HETATM    1  F1  UNL     1      21.904  -2.292  55.108  1.00  0.00    -0.187 F 
HETATM    2  C1  UNL     1      21.758  -1.127  54.451  1.00  0.00     0.184 C 
HETATM    3  C2  UNL     1      20.806  -0.354  54.021  1.00  0.00     0.061 C 
HETATM    4  C3  UNL     1      20.567   0.873  53.329  1.00  0.00     0.005 C 
HETATM    5  C4  UNL     1      21.099   1.871  52.763  1.00  0.00     0.015 C 
HETATM    6  C5  UNL     1      21.644   3.031  52.105  1.00  0.00     0.012 A 
HETATM    7  C6  UNL     1      20.482   3.683  51.804  1.00  0.00     0.131 A 
HETATM    8  N1  UNL     1      20.531   4.901  51.164  1.00  0.00    -0.253 NA
HETATM    9  C7  UNL     1      21.738   5.400  50.859  1.00  0.00     0.233 A 
HETATM   10  N2  UNL     1      22.850   4.726  51.172  1.00  0.00    -0.240 NA
HETATM   11  C8  UNL     1      22.854   3.562  51.782  1.00  0.00     0.086 A 
HETATM   12  C9  UNL     1      24.155   3.005  52.009  1.00  0.00     0.145 C 
HETATM   13  N3  UNL     1      25.249   2.563  51.439  1.00  0.00    -0.270 NA
HETATM   14  C10 UNL     1      26.326   2.074  52.318  1.00  0.00     0.418 C 
HETATM   15  N4  UNL     1      26.826   0.846  51.711  1.00  0.00     0.113 N 
HETATM   16  C11 UNL     1      27.490   0.040  52.780  1.00  0.00     0.365 C 
HETATM   17  C12 UNL     1      26.399  -0.354  53.634  1.00  0.00    -0.075 C 
HETATM   18  C13 UNL     1      25.523  -0.657  54.300  1.00  0.00    -0.085 C 
HETATM   19  C14 UNL     1      24.424  -1.015  55.109  1.00  0.00     0.216 C 
HETATM   20  N5  UNL     1      23.157  -0.963  54.358  1.00  0.00    -0.356 N 
HETATM   21  H9  UNL     1      26.087   0.268  51.284  1.00  0.00     0.319 HD
HETATM   22  H14 UNL     1      23.248  -0.717  53.338  1.00  0.00     0.162 HD
ENDROOT
TORSDOF 0
ENDMDL
MODEL 9
REMARK VINA RESULT:      -7.3      2.333      3.936
REMARK  0 active torsions:
REMARK  status: ('A' for Active; 'I' for Inactive)
ROOT
HETATM    1  F1  UNL     1      20.775  -1.703  54.738  1.00  0.00    -0.187 F 
HETATM    2  C1  UNL     1      21.732  -0.974  54.136  1.00  0.00     0.184 C 
HETATM    3  C2  UNL     1      23.027  -0.876  54.120  1.00  0.00     0.061 C 
HETATM    4  C3  UNL     1      24.102  -0.147  53.524  1.00  0.00     0.005 C 
HETATM    5  C4  UNL     1      24.415   0.772  52.714  1.00  0.00     0.015 C 
HETATM    6  C5  UNL     1      24.835   1.808  51.805  1.00  0.00     0.012 A 
HETATM    7  C6  UNL     1      26.189   1.677  51.928  1.00  0.00     0.131 A 
HETATM    8  N1  UNL     1      27.021   2.488  51.189  1.00  0.00    -0.253 NA
HETATM    9  C7  UNL     1      26.455   3.385  50.369  1.00  0.00     0.233 A 
HETATM   10  N2  UNL     1      25.124   3.480  50.281  1.00  0.00    -0.240 NA
HETATM   11  C8  UNL     1      24.289   2.729  50.965  1.00  0.00     0.086 A 
HETATM   12  C9  UNL     1      22.902   3.005  50.733  1.00  0.00     0.145 C 
HETATM   13  N3  UNL     1      21.956   3.908  50.821  1.00  0.00    -0.270 NA
HETATM   14  C10 UNL     1      20.606   3.526  50.375  1.00  0.00     0.418 C 
HETATM   15  N4  UNL     1      19.680   4.050  51.374  1.00  0.00     0.113 N 
HETATM   16  C11 UNL     1      18.415   3.258  51.290  1.00  0.00     0.365 C 
HETATM   17  C12 UNL     1      18.803   1.951  51.755  1.00  0.00    -0.075 C 
HETATM   18  C13 UNL     1      19.128   0.921  52.125  1.00  0.00    -0.085 C 
HETATM   19  C14 UNL     1      19.554  -0.343  52.583  1.00  0.00     0.216 C 
HETATM   20  N5  UNL     1      20.768  -0.240  53.412  1.00  0.00    -0.356 N 
HETATM   21  H9  UNL     1      20.036   3.987  52.338  1.00  0.00     0.319 HD
HETATM   22  H14 UNL     1      21.114   0.740  53.582  1.00  0.00     0.162 HD
ENDROOT
TORSDOF 0
ENDMDL
