MODEL 1
REMARK VINA RESULT:      -6.8      0.000      0.000
REMARK  3 active torsions:
REMARK  status: ('A' for Active; 'I' for Inactive)
REMARK    1  A    between atoms: C9_11  and  N2_12 
REMARK    2  A    between atoms: N2_12  and  C10_13 
REMARK    3  A    between atoms: C10_13  and  C11_14 
ROOT
HETATM    1 BR1  UNL     1      22.382  -0.990  53.659  1.00  0.00    -0.051 Br
HETATM    2  C1  UNL     1      23.904   0.005  53.244  1.00  0.00     0.013 C 
HETATM    3  C2  UNL     1      25.135  -0.559  53.089  1.00  0.00     0.021 C 
HETATM    4  C3  UNL     1      26.329   0.170  52.525  1.00  0.00     0.034 C 
HETATM    5  C4  UNL     1      26.441   1.487  52.561  1.00  0.00     0.061 C 
HETATM    6  C5  UNL     1      25.844   2.384  53.693  1.00  0.00     0.122 C 
HETATM    7  C6  UNL     1      24.463   2.359  52.958  1.00  0.00     0.017 C 
HETATM    8  C7  UNL     1      23.476   1.445  53.081  1.00  0.00     0.044 C 
HETATM    9  N1  UNL     1      24.119   3.267  51.884  1.00  0.00    -0.353 N 
HETATM   10  C8  UNL     1      25.111   3.710  50.887  1.00  0.00     0.132 A 
HETATM   11  C9  UNL     1      24.458   4.667  50.178  1.00  0.00     0.156 A 
HETATM   12  N3  UNL     1      25.249   5.123  49.201  1.00  0.00    -0.222 NA
HETATM   13  C12 UNL     1      26.496   4.663  48.996  1.00  0.00     0.238 A 
HETATM   14  N4  UNL     1      27.117   3.695  49.736  1.00  0.00    -0.215 NA
HETATM   15  C13 UNL     1      26.429   3.165  50.739  1.00  0.00     0.202 A 
HETATM   16  O1  UNL     1      27.127   2.131  51.505  1.00  0.00    -0.294 OA
HETATM   17  H6  UNL     1      23.129   3.434  52.005  1.00  0.00     0.166 HD
ENDROOT
BRANCH  11  18
HETATM   18  N2  UNL     1      23.154   5.063  50.458  1.00  0.00    -0.372 N 
HETATM   19  H7  UNL     1      22.631   5.444  51.241  1.00  0.00     0.161 HD
BRANCH  18  20
HETATM   20  C10 UNL     1      22.274   4.905  49.337  1.00  0.00     0.131 C 
BRANCH  20  21
HETATM   21  C11 UNL     1      21.283   3.786  49.540  1.00  0.00     0.099 C 
HETATM   22  I1  UNL     1      21.943   2.064  48.472  1.00  0.00    -0.088 I 
ENDBRANCH  20  21
ENDBRANCH  18  20
ENDBRANCH  11  18
TORSDOF 3
ENDMDL
MODEL 2
REMARK VINA RESULT:      -6.6      3.304      4.760
REMARK  3 active torsions:
REMARK  status: ('A' for Active; 'I' for Inactive)
REMARK    1  A    between atoms: C9_11  and  N2_12 
REMARK    2  A    between atoms: N2_12  and  C10_13 
REMARK    3  A    between atoms: C10_13  and  C11_14 
ROOT
HETATM    1 BR1  UNL     1      27.648   1.081  53.054  1.00  0.00    -0.051 Br
HETATM    2  C1  UNL     1      26.178   2.036  52.420  1.00  0.00     0.013 C 
HETATM    3  C2  UNL     1      24.956   1.996  53.021  1.00  0.00     0.021 C 
HETATM    4  C3  UNL     1      23.820   2.929  52.682  1.00  0.00     0.034 C 
HETATM    5  C4  UNL     1      23.723   3.537  51.512  1.00  0.00     0.061 C 
HETATM    6  C5  UNL     1      24.241   2.932  50.168  1.00  0.00     0.122 C 
HETATM    7  C6  UNL     1      25.676   3.458  50.505  1.00  0.00     0.017 C 
HETATM    8  C7  UNL     1      26.637   2.837  51.222  1.00  0.00     0.044 C 
HETATM    9  N1  UNL     1      26.116   4.806  50.213  1.00  0.00    -0.353 N 
HETATM   10  C8  UNL     1      25.212   5.964  50.328  1.00  0.00     0.132 A 
HETATM   11  C9  UNL     1      25.932   6.994  49.810  1.00  0.00     0.156 A 
HETATM   12  N3  UNL     1      25.228   8.126  49.899  1.00  0.00    -0.222 NA
HETATM   13  C12 UNL     1      23.995   8.181  50.433  1.00  0.00     0.238 A 
HETATM   14  N4  UNL     1      23.304   7.117  50.945  1.00  0.00    -0.215 NA
HETATM   15  C13 UNL     1      23.902   5.933  50.912  1.00  0.00     0.202 A 
HETATM   16  O1  UNL     1      23.132   4.821  51.470  1.00  0.00    -0.294 OA
HETATM   17  H6  UNL     1      27.095   4.705  49.983  1.00  0.00     0.166 HD
ENDROOT
BRANCH  11  18
HETATM   18  N2  UNL     1      27.215   6.840  49.295  1.00  0.00    -0.372 N 
HETATM   19  H7  UNL     1      27.899   6.097  49.179  1.00  0.00     0.161 HD
BRANCH  18  20
HETATM   20  C10 UNL     1      27.750   8.059  48.763  1.00  0.00     0.131 C 
BRANCH  20  21
HETATM   21  C11 UNL     1      29.245   7.998  48.581  1.00  0.00     0.099 C 
HETATM   22  I1  UNL     1      29.813   5.997  48.115  1.00  0.00    -0.088 I 
ENDBRANCH  20  21
ENDBRANCH  18  20
ENDBRANCH  11  18
TORSDOF 3
ENDMDL
MODEL 3
REMARK VINA RESULT:      -6.6      3.671      6.039
REMARK  3 active torsions:
REMARK  status: ('A' for Active; 'I' for Inactive)
REMARK    1  A    between atoms: C9_11  and  N2_12 
REMARK    2  A    between atoms: N2_12  and  C10_13 
REMARK    3  A    between atoms: C10_13  and  C11_14 
ROOT
HETATM    1 BR1  UNL     1      24.723   6.248  48.463  1.00  0.00    -0.051 Br
HETATM    2  C1  UNL     1      23.817   5.031  49.546  1.00  0.00     0.013 C 
HETATM    3  C2  UNL     1      22.728   4.331  49.120  1.00  0.00     0.021 C 
HETATM    4  C3  UNL     1      22.121   3.177  49.877  1.00  0.00     0.034 C 
HETATM    5  C4  UNL     1      22.266   3.026  51.182  1.00  0.00     0.061 C 
HETATM    6  C5  UNL     1      22.409   4.214  52.187  1.00  0.00     0.122 C 
HETATM    7  C6  UNL     1      23.938   4.280  51.862  1.00  0.00     0.017 C 
HETATM    8  C7  UNL     1      24.544   4.970  50.871  1.00  0.00     0.044 C 
HETATM    9  N1  UNL     1      24.925   3.445  52.513  1.00  0.00    -0.353 N 
HETATM   10  C8  UNL     1      24.642   2.048  52.887  1.00  0.00     0.132 A 
HETATM   11  C9  UNL     1      25.728   1.677  53.614  1.00  0.00     0.156 A 
HETATM   12  N3  UNL     1      25.610   0.397  53.980  1.00  0.00    -0.222 NA
HETATM   13  C12 UNL     1      24.553  -0.364  53.648  1.00  0.00     0.238 A 
HETATM   14  N4  UNL     1      23.476   0.051  52.912  1.00  0.00    -0.215 NA
HETATM   15  C13 UNL     1      23.479   1.308  52.491  1.00  0.00     0.202 A 
HETATM   16  O1  UNL     1      22.312   1.713  51.705  1.00  0.00    -0.294 OA
HETATM   17  H6  UNL     1      25.747   4.031  52.575  1.00  0.00     0.166 HD
ENDROOT
BRANCH  11  18
HETATM   18  N2  UNL     1      26.787   2.536  53.890  1.00  0.00    -0.372 N 
HETATM   19  H7  UNL     1      26.960   3.369  54.446  1.00  0.00     0.161 HD
BRANCH  18  20
HETATM   20  C10 UNL     1      27.996   2.162  53.215  1.00  0.00     0.131 C 
BRANCH  20  21
HETATM   21  C11 UNL     1      29.036   1.619  54.162  1.00  0.00     0.099 C 
HETATM   22  I1  UNL     1      29.377  -0.438  53.723  1.00  0.00    -0.088 I 
ENDBRANCH  20  21
ENDBRANCH  18  20
ENDBRANCH  11  18
TORSDOF 3
ENDMDL
MODEL 4
REMARK VINA RESULT:      -6.5      2.952      4.419
REMARK  3 active torsions:
REMARK  status: ('A' for Active; 'I' for Inactive)
REMARK    1  A    between atoms: C9_11  and  N2_12 
REMARK    2  A    between atoms: N2_12  and  C10_13 
REMARK    3  A    between atoms: C10_13  and  C11_14 
ROOT
HETATM    1 BR1  UNL     1      29.198   2.250  53.912  1.00  0.00    -0.051 Br
HETATM    2  C1  UNL     1      27.692   1.151  53.884  1.00  0.00     0.013 C 
HETATM    3  C2  UNL     1      27.323   0.377  54.943  1.00  0.00     0.021 C 
HETATM    4  C3  UNL     1      25.998  -0.334  55.044  1.00  0.00     0.034 C 
HETATM    5  C4  UNL     1      25.281  -0.659  53.981  1.00  0.00     0.061 C 
HETATM    6  C5  UNL     1      25.897  -1.024  52.592  1.00  0.00     0.122 C 
HETATM    7  C6  UNL     1      25.998   0.501  52.257  1.00  0.00     0.017 C 
HETATM    8  C7  UNL     1      27.010   1.346  52.549  1.00  0.00     0.044 C 
HETATM    9  N1  UNL     1      24.899   1.268  51.710  1.00  0.00    -0.353 N 
HETATM   10  C8  UNL     1      23.501   1.023  52.108  1.00  0.00     0.132 A 
HETATM   11  C9  UNL     1      22.778   1.803  51.262  1.00  0.00     0.156 A 
HETATM   12  N3  UNL     1      21.478   1.701  51.555  1.00  0.00    -0.222 NA
HETATM   13  C12 UNL     1      21.011   0.928  52.551  1.00  0.00     0.238 A 
HETATM   14  N4  UNL     1      21.776   0.156  53.382  1.00  0.00    -0.215 NA
HETATM   15  C13 UNL     1      23.088   0.174  53.187  1.00  0.00     0.202 A 
HETATM   16  O1  UNL     1      23.872  -0.663  54.097  1.00  0.00    -0.294 OA
HETATM   17  H6  UNL     1      25.343   1.940  51.099  1.00  0.00     0.166 HD
ENDROOT
BRANCH  11  18
HETATM   18  N2  UNL     1      23.358   2.586  50.269  1.00  0.00    -0.372 N 
HETATM   19  H7  UNL     1      24.019   2.473  49.506  1.00  0.00     0.161 HD
BRANCH  18  20
HETATM   20  C10 UNL     1      22.910   3.948  50.304  1.00  0.00     0.131 C 
BRANCH  20  21
HETATM   21  C11 UNL     1      24.016   4.907  50.664  1.00  0.00     0.099 C 
HETATM   22  I1  UNL     1      25.801   4.329  49.652  1.00  0.00    -0.088 I 
ENDBRANCH  20  21
ENDBRANCH  18  20
ENDBRANCH  11  18
TORSDOF 3
ENDMDL
MODEL 5
REMARK VINA RESULT:      -6.2      3.490      5.001
REMARK  3 active torsions:
REMARK  status: ('A' for Active; 'I' for Inactive)
REMARK    1  A    between atoms: C9_11  and  N2_12 
REMARK    2  A    between atoms: N2_12  and  C10_13 
REMARK    3  A    between atoms: C10_13  and  C11_14 
ROOT
HETATM    1 BR1  UNL     1      17.523  -0.237  51.444  1.00  0.00    -0.051 Br
HETATM    2  C1  UNL     1      18.987  -0.403  52.587  1.00  0.00     0.013 C 
HETATM    3  C2  UNL     1      19.154  -1.466  53.422  1.00  0.00     0.021 C 
HETATM    4  C3  UNL     1      20.428  -1.749  54.179  1.00  0.00     0.034 C 
HETATM    5  C4  UNL     1      21.306  -0.806  54.475  1.00  0.00     0.061 C 
HETATM    6  C5  UNL     1      20.925   0.684  54.752  1.00  0.00     0.122 C 
HETATM    7  C6  UNL     1      20.916   0.950  53.210  1.00  0.00     0.017 C 
HETATM    8  C7  UNL     1      19.889   0.787  52.349  1.00  0.00     0.044 C 
HETATM    9  N1  UNL     1      22.108   1.264  52.453  1.00  0.00    -0.353 N 
HETATM   10  C8  UNL     1      23.414   0.652  52.760  1.00  0.00     0.132 A 
HETATM   11  C9  UNL     1      24.286   1.322  51.963  1.00  0.00     0.156 A 
HETATM   12  N3  UNL     1      25.516   0.822  52.119  1.00  0.00    -0.222 NA
HETATM   13  C12 UNL     1      25.790  -0.195  52.954  1.00  0.00     0.238 A 
HETATM   14  N4  UNL     1      24.879  -0.844  53.741  1.00  0.00    -0.215 NA
HETATM   15  C13 UNL     1      23.619  -0.435  53.673  1.00  0.00     0.202 A 
HETATM   16  O1  UNL     1      22.674  -1.155  54.528  1.00  0.00    -0.294 OA
HETATM   17  H6  UNL     1      21.789   1.904  51.738  1.00  0.00     0.166 HD
ENDROOT
BRANCH  11  18
HETATM   18  N2  UNL     1      23.900   2.355  51.114  1.00  0.00    -0.372 N 
HETATM   19  H7  UNL     1      23.070   2.644  50.604  1.00  0.00     0.161 HD
BRANCH  18  20
HETATM   20  C10 UNL     1      24.951   3.301  50.877  1.00  0.00     0.131 C 
BRANCH  20  21
HETATM   21  C11 UNL     1      24.427   4.699  50.667  1.00  0.00     0.099 C 
HETATM   22  I1  UNL     1      25.668   5.708  49.258  1.00  0.00    -0.088 I 
ENDBRANCH  20  21
ENDBRANCH  18  20
ENDBRANCH  11  18
TORSDOF 3
ENDMDL
MODEL 6
REMARK VINA RESULT:      -6.1      2.882      5.155
REMARK  3 active torsions:
REMARK  status: ('A' for Active; 'I' for Inactive)
REMARK    1  A    between atoms: C9_11  and  N2_12 
REMARK    2  A    between atoms: N2_12  and  C10_13 
REMARK    3  A    between atoms: C10_13  and  C11_14 
ROOT
HETATM    1 BR1  UNL     1      21.677   6.653  50.769  1.00  0.00    -0.051 Br
HETATM    2  C1  UNL     1      23.192   5.616  50.447  1.00  0.00     0.013 C 
HETATM    3  C2  UNL     1      24.359   6.140  49.976  1.00  0.00     0.021 C 
HETATM    4  C3  UNL     1      25.663   5.384  49.930  1.00  0.00     0.034 C 
HETATM    5  C4  UNL     1      25.719   4.063  49.895  1.00  0.00     0.061 C 
HETATM    6  C5  UNL     1      24.637   3.161  49.219  1.00  0.00     0.122 C 
HETATM    7  C6  UNL     1      23.775   3.251  50.521  1.00  0.00     0.017 C 
HETATM    8  C7  UNL     1      22.866   4.195  50.848  1.00  0.00     0.044 C 
HETATM    9  N1  UNL     1      23.968   2.381  51.662  1.00  0.00    -0.353 N 
HETATM   10  C8  UNL     1      25.307   1.929  52.082  1.00  0.00     0.132 A 
HETATM   11  C9  UNL     1      25.053   1.012  53.052  1.00  0.00     0.156 A 
HETATM   12  N3  UNL     1      26.205   0.552  53.551  1.00  0.00    -0.222 NA
HETATM   13  C12 UNL     1      27.407   0.973  53.120  1.00  0.00     0.238 A 
HETATM   14  N4  UNL     1      27.618   1.901  52.138  1.00  0.00    -0.215 NA
HETATM   15  C13 UNL     1      26.546   2.431  51.564  1.00  0.00     0.202 A 
HETATM   16  O1  UNL     1      26.813   3.421  50.520  1.00  0.00    -0.294 OA
HETATM   17  H6  UNL     1      23.037   2.247  52.034  1.00  0.00     0.166 HD
ENDROOT
BRANCH  11  18
HETATM   18  N2  UNL     1      23.766   0.655  53.443  1.00  0.00    -0.372 N 
HETATM   19  H7  UNL     1      22.841   1.075  53.472  1.00  0.00     0.161 HD
BRANCH  18  20
HETATM   20  C10 UNL     1      23.690  -0.685  53.947  1.00  0.00     0.131 C 
BRANCH  20  21
HETATM   21  C11 UNL     1      22.386  -0.959  54.652  1.00  0.00     0.099 C 
HETATM   22  I1  UNL     1      20.846   0.211  53.758  1.00  0.00    -0.088 I 
ENDBRANCH  20  21
ENDBRANCH  18  20
ENDBRANCH  11  18
TORSDOF 3
ENDMDL
MODEL 7
REMARK VINA RESULT:      -6.1      5.422      7.864
REMARK  3 active torsions:
REMARK  status: ('A' for Active; 'I' for Inactive)
REMARK    1  A    between atoms: C9_11  and  N2_12 
REMARK    2  A    between atoms: N2_12  and  C10_13 
REMARK    3  A    between atoms: C10_13  and  C11_14 
ROOT
HETATM    1 BR1  UNL     1      25.582   3.299  50.105  1.00  0.00    -0.051 Br
HETATM    2  C1  UNL     1      26.018   5.063  49.686  1.00  0.00     0.013 C 
HETATM    3  C2  UNL     1      25.342   6.131  50.194  1.00  0.00     0.021 C 
HETATM    4  C3  UNL     1      25.808   7.559  50.069  1.00  0.00     0.034 C 
HETATM    5  C4  UNL     1      26.622   7.961  49.106  1.00  0.00     0.061 C 
HETATM    6  C5  UNL     1      26.654   7.337  47.674  1.00  0.00     0.122 C 
HETATM    7  C6  UNL     1      27.588   6.202  48.211  1.00  0.00     0.017 C 
HETATM    8  C7  UNL     1      27.225   5.030  48.776  1.00  0.00     0.044 C 
HETATM    9  N1  UNL     1      29.025   6.341  48.320  1.00  0.00    -0.353 N 
HETATM   10  C8  UNL     1      29.659   7.616  48.703  1.00  0.00     0.132 A 
HETATM   11  C9  UNL     1      30.987   7.388  48.522  1.00  0.00     0.156 A 
HETATM   12  N3  UNL     1      31.683   8.471  48.883  1.00  0.00    -0.222 NA
HETATM   13  C12 UNL     1      31.103   9.590  49.351  1.00  0.00     0.238 A 
HETATM   14  N4  UNL     1      29.758   9.777  49.519  1.00  0.00    -0.215 NA
HETATM   15  C13 UNL     1      28.961   8.769  49.193  1.00  0.00     0.202 A 
HETATM   16  O1  UNL     1      27.530   9.007  49.389  1.00  0.00    -0.294 OA
HETATM   17  H6  UNL     1      29.382   5.417  48.119  1.00  0.00     0.166 HD
ENDROOT
BRANCH  11  18
HETATM   18  N2  UNL     1      31.493   6.183  48.046  1.00  0.00    -0.372 N 
HETATM   19  H7  UNL     1      31.307   5.531  47.289  1.00  0.00     0.161 HD
BRANCH  18  20
HETATM   20  C10 UNL     1      32.596   5.699  48.823  1.00  0.00     0.131 C 
BRANCH  20  21
HETATM   21  C11 UNL     1      33.592   4.933  47.990  1.00  0.00     0.099 C 
HETATM   22  I1  UNL     1      32.556   3.491  46.810  1.00  0.00    -0.088 I 
ENDBRANCH  20  21
ENDBRANCH  18  20
ENDBRANCH  11  18
TORSDOF 3
ENDMDL
MODEL 8
REMARK VINA RESULT:      -6.0      5.951      8.168
REMARK  3 active torsions:
REMARK  status: ('A' for Active; 'I' for Inactive)
REMARK    1  A    between atoms: C9_11  and  N2_12 
REMARK    2  A    between atoms: N2_12  and  C10_13 
REMARK    3  A    between atoms: C10_13  and  C11_14 
ROOT
HETATM    1 BR1  UNL     1      32.150   3.301  46.477  1.00  0.00    -0.051 Br
HETATM    2  C1  UNL     1      32.035   5.072  47.048  1.00  0.00     0.013 C 
HETATM    3  C2  UNL     1      32.799   6.069  46.521  1.00  0.00     0.021 C 
HETATM    4  C3  UNL     1      32.570   7.535  46.786  1.00  0.00     0.034 C 
HETATM    5  C4  UNL     1      31.945   7.975  47.866  1.00  0.00     0.061 C 
HETATM    6  C5  UNL     1      31.988   7.255  49.252  1.00  0.00     0.122 C 
HETATM    7  C6  UNL     1      30.838   6.307  48.775  1.00  0.00     0.017 C 
HETATM    8  C7  UNL     1      30.953   5.142  48.102  1.00  0.00     0.044 C 
HETATM    9  N1  UNL     1      29.436   6.656  48.858  1.00  0.00    -0.353 N 
HETATM   10  C8  UNL     1      28.959   8.033  48.632  1.00  0.00     0.132 A 
HETATM   11  C9  UNL     1      27.643   7.983  48.969  1.00  0.00     0.156 A 
HETATM   12  N3  UNL     1      27.079   9.177  48.762  1.00  0.00    -0.222 NA
HETATM   13  C12 UNL     1      27.760  10.234  48.289  1.00  0.00     0.238 A 
HETATM   14  N4  UNL     1      29.089  10.242  47.962  1.00  0.00    -0.215 NA
HETATM   15  C13 UNL     1      29.759   9.109  48.125  1.00  0.00     0.202 A 
HETATM   16  O1  UNL     1      31.176   9.156  47.762  1.00  0.00    -0.294 OA
HETATM   17  H6  UNL     1      28.971   5.779  49.050  1.00  0.00     0.166 HD
ENDROOT
BRANCH  11  18
HETATM   18  N2  UNL     1      27.022   6.828  49.435  1.00  0.00    -0.372 N 
HETATM   19  H7  UNL     1      27.239   5.840  49.534  1.00  0.00     0.161 HD
BRANCH  18  20
HETATM   20  C10 UNL     1      25.697   7.071  49.928  1.00  0.00     0.131 C 
BRANCH  20  21
HETATM   21  C11 UNL     1      25.004   5.803  50.357  1.00  0.00     0.099 C 
HETATM   22  I1  UNL     1      26.078   4.126  49.598  1.00  0.00    -0.088 I 
ENDBRANCH  20  21
ENDBRANCH  18  20
ENDBRANCH  11  18
TORSDOF 3
ENDMDL
MODEL 9
REMARK VINA RESULT:      -5.4      9.997     11.874
REMARK  3 active torsions:
REMARK  status: ('A' for Active; 'I' for Inactive)
REMARK    1  A    between atoms: C9_11  and  N2_12 
REMARK    2  A    between atoms: N2_12  and  C10_13 
REMARK    3  A    between atoms: C10_13  and  C11_14 
ROOT
HETATM    1 BR1  UNL     1      32.898  11.350  45.284  1.00  0.00    -0.051 Br
HETATM    2  C1  UNL     1      32.900   9.976  46.545  1.00  0.00     0.013 C 
HETATM    3  C2  UNL     1      32.037   9.940  47.598  1.00  0.00     0.021 C 
HETATM    4  C3  UNL     1      31.850   8.740  48.492  1.00  0.00     0.034 C 
HETATM    5  C4  UNL     1      32.782   7.814  48.646  1.00  0.00     0.061 C 
HETATM    6  C5  UNL     1      34.316   8.100  48.569  1.00  0.00     0.122 C 
HETATM    7  C6  UNL     1      34.239   7.994  47.009  1.00  0.00     0.017 C 
HETATM    8  C7  UNL     1      33.953   8.975  46.127  1.00  0.00     0.044 C 
HETATM    9  N1  UNL     1      34.309   6.737  46.295  1.00  0.00    -0.353 N 
HETATM   10  C8  UNL     1      33.702   5.502  46.825  1.00  0.00     0.132 A 
HETATM   11  C9  UNL     1      34.130   4.534  45.972  1.00  0.00     0.156 A 
HETATM   12  N3  UNL     1      33.604   3.358  46.325  1.00  0.00    -0.222 NA
HETATM   13  C12 UNL     1      32.779   3.212  47.376  1.00  0.00     0.238 A 
HETATM   14  N4  UNL     1      32.372   4.215  48.213  1.00  0.00    -0.215 NA
HETATM   15  C13 UNL     1      32.831   5.435  47.962  1.00  0.00     0.202 A 
HETATM   16  O1  UNL     1      32.372   6.481  48.877  1.00  0.00    -0.294 OA
HETATM   17  H6  UNL     1      34.795   6.963  45.438  1.00  0.00     0.166 HD
ENDROOT
BRANCH  11  18
HETATM   18  N2  UNL     1      34.973   4.790  44.896  1.00  0.00    -0.372 N 
HETATM   19  H7  UNL     1      35.889   5.198  44.733  1.00  0.00     0.161 HD
BRANCH  18  20
HETATM   20  C10 UNL     1      34.421   4.360  43.644  1.00  0.00     0.131 C 
BRANCH  20  21
HETATM   21  C11 UNL     1      33.629   5.447  42.963  1.00  0.00     0.099 C 
HETATM   22  I1  UNL     1      33.020   4.768  41.036  1.00  0.00    -0.088 I 
ENDBRANCH  20  21
ENDBRANCH  18  20
ENDBRANCH  11  18
TORSDOF 3
ENDMDL
