MODEL 1
REMARK VINA RESULT:      -8.3      0.000      0.000
REMARK  3 active torsions:
REMARK  status: ('A' for Active; 'I' for Inactive)
REMARK    1  A    between atoms: N3_9  and  C6_10 
REMARK    2  A    between atoms: C9_14  and  N4_15 
REMARK    3  A    between atoms: N4_15  and  C10_16 
ROOT
HETATM    1  N1  UNL     1      21.552  -1.609  54.915  1.00  0.00    -0.184 NA
HETATM    2  C1  UNL     1      21.767  -0.948  53.990  1.00  0.00     0.134 C 
HETATM    3  S1  UNL     1      22.121   0.077  52.588  1.00  0.00    -0.022 SA
HETATM    4  C2  UNL     1      21.113   0.204  51.308  1.00  0.00     0.172 A 
HETATM    5  N2  UNL     1      21.581   1.064  50.311  1.00  0.00    -0.258 NA
HETATM    6  C3  UNL     1      22.654   1.724  50.300  1.00  0.00     0.047 A 
HETATM    7  C4  UNL     1      22.899   2.573  49.090  1.00  0.00     0.080 C 
HETATM    8  C5  UNL     1      23.415   3.903  49.641  1.00  0.00     0.131 C 
HETATM    9  N3  UNL     1      24.763   3.625  50.118  1.00  0.00    -0.355 N 
HETATM   10  C7  UNL     1      24.930   2.617  51.155  1.00  0.00     0.168 C 
HETATM   11  C8  UNL     1      23.704   1.785  51.303  1.00  0.00     0.018 A 
HETATM   12  C9  UNL     1      23.618   1.084  52.425  1.00  0.00     0.089 A 
ENDROOT
BRANCH  12  13
HETATM   13  N4  UNL     1      24.571   1.048  53.492  1.00  0.00    -0.350 N 
HETATM   14  H9  UNL     1      24.216   1.561  54.330  1.00  0.00     0.166 HD
BRANCH  13  15
HETATM   15  C10 UNL     1      25.830   0.396  53.412  1.00  0.00     0.034 A 
HETATM   16  C11 UNL     1      25.848  -0.870  52.867  1.00  0.00     0.032 A 
HETATM   17  C12 UNL     1      27.103  -1.477  52.804  1.00  0.00     0.046 A 
HETATM   18  C13 UNL     1      28.229  -0.814  53.273  1.00  0.00     0.138 A 
HETATM   19  F1  UNL     1      29.453  -1.424  53.204  1.00  0.00    -0.204 F 
HETATM   20  C14 UNL     1      28.150   0.469  53.815  1.00  0.00     0.074 A 
HETATM   21 CL1  UNL     1      29.559   1.324  54.412  1.00  0.00    -0.081 Cl
HETATM   22  C15 UNL     1      26.909   1.104  53.891  1.00  0.00     0.056 A 
ENDBRANCH  13  15
ENDBRANCH  12  13
BRANCH   9  23
HETATM   23  C6  UNL     1      25.923   4.285  49.625  1.00  0.00     0.351 C 
HETATM   24  O1  UNL     1      27.071   3.767  49.417  1.00  0.00    -0.284 OA
ENDBRANCH   9  23
TORSDOF 3
ENDMDL
MODEL 2
REMARK VINA RESULT:      -8.2      2.733      4.735
REMARK  3 active torsions:
REMARK  status: ('A' for Active; 'I' for Inactive)
REMARK    1  A    between atoms: N3_9  and  C6_10 
REMARK    2  A    between atoms: C9_14  and  N4_15 
REMARK    3  A    between atoms: N4_15  and  C10_16 
ROOT
HETATM    1  N1  UNL     1      26.923   3.632  49.379  1.00  0.00    -0.184 NA
HETATM    2  C1  UNL     1      25.958   3.332  49.943  1.00  0.00     0.134 C 
HETATM    3  S1  UNL     1      24.494   2.845  50.814  1.00  0.00    -0.022 SA
HETATM    4  C2  UNL     1      23.109   3.711  50.769  1.00  0.00     0.172 A 
HETATM    5  N2  UNL     1      22.075   3.152  51.526  1.00  0.00    -0.258 NA
HETATM    6  C3  UNL     1      22.101   2.093  52.208  1.00  0.00     0.047 A 
HETATM    7  C4  UNL     1      20.834   1.732  52.922  1.00  0.00     0.080 C 
HETATM    8  C5  UNL     1      20.665   0.231  52.687  1.00  0.00     0.131 C 
HETATM    9  N3  UNL     1      21.689  -0.403  53.507  1.00  0.00    -0.355 N 
HETATM   10  C7  UNL     1      23.081  -0.065  53.250  1.00  0.00     0.168 C 
HETATM   11  C8  UNL     1      23.195   1.157  52.408  1.00  0.00     0.018 A 
HETATM   12  C9  UNL     1      24.374   1.353  51.835  1.00  0.00     0.089 A 
ENDROOT
BRANCH  12  13
HETATM   13  N4  UNL     1      25.532   0.519  51.944  1.00  0.00    -0.350 N 
HETATM   14  H9  UNL     1      25.410  -0.365  51.401  1.00  0.00     0.166 HD
BRANCH  13  15
HETATM   15  C10 UNL     1      26.689   0.861  52.693  1.00  0.00     0.034 A 
HETATM   16  C11 UNL     1      26.748   2.136  53.212  1.00  0.00     0.032 A 
HETATM   17  C12 UNL     1      27.900   2.434  53.941  1.00  0.00     0.046 A 
HETATM   18  C13 UNL     1      28.894   1.478  54.106  1.00  0.00     0.138 A 
HETATM   19  F1  UNL     1      30.018   1.786  54.825  1.00  0.00    -0.204 F 
HETATM   20  C14 UNL     1      28.779   0.201  53.556  1.00  0.00     0.074 A 
HETATM   21 CL1  UNL     1      30.022  -1.019  53.752  1.00  0.00    -0.081 Cl
HETATM   22  C15 UNL     1      27.639  -0.128  52.821  1.00  0.00     0.056 A 
ENDBRANCH  13  15
ENDBRANCH  12  13
BRANCH   9  23
HETATM   23  C6  UNL     1      21.400  -1.335  54.543  1.00  0.00     0.351 C 
HETATM   24  O1  UNL     1      22.240  -1.911  55.313  1.00  0.00    -0.284 OA
ENDBRANCH   9  23
TORSDOF 3
ENDMDL
MODEL 3
REMARK VINA RESULT:      -7.9      3.773      5.829
REMARK  3 active torsions:
REMARK  status: ('A' for Active; 'I' for Inactive)
REMARK    1  A    between atoms: N3_9  and  C6_10 
REMARK    2  A    between atoms: C9_14  and  N4_15 
REMARK    3  A    between atoms: N4_15  and  C10_16 
ROOT
HETATM    1  N1  UNL     1      19.859   3.142  52.250  1.00  0.00    -0.184 NA
HETATM    2  C1  UNL     1      20.814   2.529  52.473  1.00  0.00     0.134 C 
HETATM    3  S1  UNL     1      22.295   1.615  52.810  1.00  0.00    -0.022 SA
HETATM    4  C2  UNL     1      22.305  -0.005  53.027  1.00  0.00     0.172 A 
HETATM    5  N2  UNL     1      23.576  -0.527  53.281  1.00  0.00    -0.258 NA
HETATM    6  C3  UNL     1      24.668   0.097  53.355  1.00  0.00     0.047 A 
HETATM    7  C4  UNL     1      25.886  -0.728  53.641  1.00  0.00     0.080 C 
HETATM    8  C5  UNL     1      26.953  -0.198  52.684  1.00  0.00     0.131 C 
HETATM    9  N3  UNL     1      27.321   1.112  53.205  1.00  0.00    -0.355 N 
HETATM   10  C7  UNL     1      26.280   2.123  53.318  1.00  0.00     0.168 C 
HETATM   11  C8  UNL     1      24.924   1.519  53.202  1.00  0.00     0.018 A 
HETATM   12  C9  UNL     1      23.938   2.367  52.946  1.00  0.00     0.089 A 
ENDROOT
BRANCH  12  13
HETATM   13  N4  UNL     1      24.044   3.784  52.773  1.00  0.00    -0.350 N 
HETATM   14  H9  UNL     1      24.133   4.268  53.694  1.00  0.00     0.166 HD
BRANCH  13  15
HETATM   15  C10 UNL     1      24.031   4.433  51.510  1.00  0.00     0.034 A 
HETATM   16  C11 UNL     1      24.382   3.678  50.412  1.00  0.00     0.032 A 
HETATM   17  C12 UNL     1      24.357   4.351  49.189  1.00  0.00     0.046 A 
HETATM   18  C13 UNL     1      23.998   5.690  49.132  1.00  0.00     0.138 A 
HETATM   19  F1  UNL     1      23.977   6.337  47.925  1.00  0.00    -0.204 F 
HETATM   20  C14 UNL     1      23.650   6.405  50.280  1.00  0.00     0.074 A 
HETATM   21 CL1  UNL     1      23.193   8.096  50.228  1.00  0.00    -0.081 Cl
HETATM   22  C15 UNL     1      23.665   5.760  51.517  1.00  0.00     0.056 A 
ENDBRANCH  13  15
ENDBRANCH  12  13
BRANCH   9  23
HETATM   23  C6  UNL     1      28.642   1.454  53.609  1.00  0.00     0.351 C 
HETATM   24  O1  UNL     1      29.001   2.493  54.260  1.00  0.00    -0.284 OA
ENDBRANCH   9  23
TORSDOF 3
ENDMDL
MODEL 4
REMARK VINA RESULT:      -7.7      4.000      6.424
REMARK  3 active torsions:
REMARK  status: ('A' for Active; 'I' for Inactive)
REMARK    1  A    between atoms: N3_9  and  C6_10 
REMARK    2  A    between atoms: C9_14  and  N4_15 
REMARK    3  A    between atoms: N4_15  and  C10_16 
ROOT
HETATM    1  N1  UNL     1      27.916   2.074  52.333  1.00  0.00    -0.184 NA
HETATM    2  C1  UNL     1      26.966   1.517  52.688  1.00  0.00     0.134 C 
HETATM    3  S1  UNL     1      25.494   0.681  53.212  1.00  0.00    -0.022 SA
HETATM    4  C2  UNL     1      25.460  -0.331  54.495  1.00  0.00     0.172 A 
HETATM    5  N2  UNL     1      24.200  -0.885  54.737  1.00  0.00    -0.258 NA
HETATM    6  C3  UNL     1      23.134  -0.691  54.095  1.00  0.00     0.047 A 
HETATM    7  C4  UNL     1      21.922  -1.424  54.584  1.00  0.00     0.080 C 
HETATM    8  C5  UNL     1      20.796  -0.390  54.547  1.00  0.00     0.131 C 
HETATM    9  N3  UNL     1      20.504  -0.192  53.133  1.00  0.00    -0.355 N 
HETATM   10  C7  UNL     1      21.576   0.284  52.271  1.00  0.00     0.168 C 
HETATM   11  C8  UNL     1      22.902   0.150  52.933  1.00  0.00     0.018 A 
HETATM   12  C9  UNL     1      23.887   0.856  52.394  1.00  0.00     0.089 A 
ENDROOT
BRANCH  12  13
HETATM   13  N4  UNL     1      23.803   1.721  51.257  1.00  0.00    -0.350 N 
HETATM   14  H9  UNL     1      23.665   1.173  50.379  1.00  0.00     0.166 HD
BRANCH  13  15
HETATM   15  C10 UNL     1      23.895   3.136  51.326  1.00  0.00     0.034 A 
HETATM   16  C11 UNL     1      23.193   3.763  52.332  1.00  0.00     0.032 A 
HETATM   17  C12 UNL     1      23.309   5.153  52.368  1.00  0.00     0.046 A 
HETATM   18  C13 UNL     1      24.088   5.817  51.430  1.00  0.00     0.138 A 
HETATM   19  F1  UNL     1      24.192   7.182  51.478  1.00  0.00    -0.204 F 
HETATM   20  C14 UNL     1      24.778   5.128  50.432  1.00  0.00     0.074 A 
HETATM   21 CL1  UNL     1      25.768   5.948  49.239  1.00  0.00    -0.081 Cl
HETATM   22  C15 UNL     1      24.683   3.737  50.370  1.00  0.00     0.056 A 
ENDBRANCH  13  15
ENDBRANCH  12  13
BRANCH   9  23
HETATM   23  C6  UNL     1      19.228  -0.437  52.553  1.00  0.00     0.351 C 
HETATM   24  O1  UNL     1      18.345  -1.265  52.960  1.00  0.00    -0.284 OA
ENDBRANCH   9  23
TORSDOF 3
ENDMDL
MODEL 5
REMARK VINA RESULT:      -7.6      4.065      6.264
REMARK  3 active torsions:
REMARK  status: ('A' for Active; 'I' for Inactive)
REMARK    1  A    between atoms: N3_9  and  C6_10 
REMARK    2  A    between atoms: C9_14  and  N4_15 
REMARK    3  A    between atoms: N4_15  and  C10_16 
ROOT
HETATM    1  N1  UNL     1      28.525   2.639  53.857  1.00  0.00    -0.184 NA
HETATM    2  C1  UNL     1      27.495   2.133  53.708  1.00  0.00     0.134 C 
HETATM    3  S1  UNL     1      25.905   1.385  53.476  1.00  0.00    -0.022 SA
HETATM    4  C2  UNL     1      25.646  -0.218  53.661  1.00  0.00     0.172 A 
HETATM    5  N2  UNL     1      24.322  -0.600  53.432  1.00  0.00    -0.258 NA
HETATM    6  C3  UNL     1      23.349   0.134  53.113  1.00  0.00     0.047 A 
HETATM    7  C4  UNL     1      22.030  -0.553  52.932  1.00  0.00     0.080 C 
HETATM    8  C5  UNL     1      21.016   0.350  53.634  1.00  0.00     0.131 C 
HETATM    9  N3  UNL     1      20.889   1.523  52.779  1.00  0.00    -0.355 N 
HETATM   10  C7  UNL     1      22.083   2.312  52.514  1.00  0.00     0.168 C 
HETATM   11  C8  UNL     1      23.317   1.570  52.891  1.00  0.00     0.018 A 
HETATM   12  C9  UNL     1      24.413   2.305  53.018  1.00  0.00     0.089 A 
ENDROOT
BRANCH  12  13
HETATM   13  N4  UNL     1      24.527   3.719  52.830  1.00  0.00    -0.350 N 
HETATM   14  H9  UNL     1      24.638   4.210  53.745  1.00  0.00     0.166 HD
BRANCH  13  15
HETATM   15  C10 UNL     1      24.494   4.358  51.562  1.00  0.00     0.034 A 
HETATM   16  C11 UNL     1      25.210   3.768  50.543  1.00  0.00     0.032 A 
HETATM   17  C12 UNL     1      25.153   4.424  49.313  1.00  0.00     0.046 A 
HETATM   18  C13 UNL     1      24.413   5.591  49.173  1.00  0.00     0.138 A 
HETATM   19  F1  UNL     1      24.367   6.223  47.959  1.00  0.00    -0.204 F 
HETATM   20  C14 UNL     1      23.707   6.143  50.242  1.00  0.00     0.074 A 
HETATM   21 CL1  UNL     1      22.768   7.614  50.086  1.00  0.00    -0.081 Cl
HETATM   22  C15 UNL     1      23.744   5.509  51.486  1.00  0.00     0.056 A 
ENDBRANCH  13  15
ENDBRANCH  12  13
BRANCH   9  23
HETATM   23  C6  UNL     1      19.661   1.936  52.190  1.00  0.00     0.351 C 
HETATM   24  O1  UNL     1      19.172   3.116  52.184  1.00  0.00    -0.284 OA
ENDBRANCH   9  23
TORSDOF 3
ENDMDL
MODEL 6
REMARK VINA RESULT:      -7.5      3.648      5.790
REMARK  3 active torsions:
REMARK  status: ('A' for Active; 'I' for Inactive)
REMARK    1  A    between atoms: N3_9  and  C6_10 
REMARK    2  A    between atoms: C9_14  and  N4_15 
REMARK    3  A    between atoms: N4_15  and  C10_16 
ROOT
HETATM    1  N1  UNL     1      19.555   1.459  52.236  1.00  0.00    -0.184 NA
HETATM    2  C1  UNL     1      20.641   1.160  52.499  1.00  0.00     0.134 C 
HETATM    3  S1  UNL     1      22.315   0.731  52.893  1.00  0.00    -0.022 SA
HETATM    4  C2  UNL     1      22.768  -0.787  53.293  1.00  0.00     0.172 A 
HETATM    5  N2  UNL     1      24.133  -0.909  53.567  1.00  0.00    -0.258 NA
HETATM    6  C3  UNL     1      25.012  -0.007  53.535  1.00  0.00     0.047 A 
HETATM    7  C4  UNL     1      26.409  -0.429  53.877  1.00  0.00     0.080 C 
HETATM    8  C5  UNL     1      27.292   0.254  52.833  1.00  0.00     0.131 C 
HETATM    9  N3  UNL     1      27.285   1.666  53.189  1.00  0.00    -0.355 N 
HETATM   10  C7  UNL     1      26.007   2.362  53.217  1.00  0.00     0.168 C 
HETATM   11  C8  UNL     1      24.868   1.403  53.213  1.00  0.00     0.018 A 
HETATM   12  C9  UNL     1      23.688   1.913  52.892  1.00  0.00     0.089 A 
ENDROOT
BRANCH  12  13
HETATM   13  N4  UNL     1      23.403   3.274  52.554  1.00  0.00    -0.350 N 
HETATM   14  H9  UNL     1      23.246   3.848  53.412  1.00  0.00     0.166 HD
BRANCH  13  15
HETATM   15  C10 UNL     1      23.345   3.767  51.224  1.00  0.00     0.034 A 
HETATM   16  C11 UNL     1      23.586   5.112  51.041  1.00  0.00     0.032 A 
HETATM   17  C12 UNL     1      23.520   5.559  49.721  1.00  0.00     0.046 A 
HETATM   18  C13 UNL     1      23.227   4.672  48.693  1.00  0.00     0.138 A 
HETATM   19  F1  UNL     1      23.166   5.126  47.402  1.00  0.00    -0.204 F 
HETATM   20  C14 UNL     1      22.991   3.319  48.938  1.00  0.00     0.074 A 
HETATM   21 CL1  UNL     1      22.619   2.184  47.655  1.00  0.00    -0.081 Cl
HETATM   22  C15 UNL     1      23.050   2.841  50.249  1.00  0.00     0.056 A 
ENDBRANCH  13  15
ENDBRANCH  12  13
BRANCH   9  23
HETATM   23  C6  UNL     1      28.461   2.401  53.511  1.00  0.00     0.351 C 
HETATM   24  O1  UNL     1      29.140   2.330  54.590  1.00  0.00    -0.284 OA
ENDBRANCH   9  23
TORSDOF 3
ENDMDL
MODEL 7
REMARK VINA RESULT:      -7.5      3.891      6.145
REMARK  3 active torsions:
REMARK  status: ('A' for Active; 'I' for Inactive)
REMARK    1  A    between atoms: N3_9  and  C6_10 
REMARK    2  A    between atoms: C9_14  and  N4_15 
REMARK    3  A    between atoms: N4_15  and  C10_16 
ROOT
HETATM    1  N1  UNL     1      20.495   0.455  50.856  1.00  0.00    -0.184 NA
HETATM    2  C1  UNL     1      21.443   0.369  51.513  1.00  0.00     0.134 C 
HETATM    3  S1  UNL     1      22.911   0.258  52.500  1.00  0.00    -0.022 SA
HETATM    4  C2  UNL     1      23.061  -0.787  53.748  1.00  0.00     0.172 A 
HETATM    5  N2  UNL     1      24.298  -0.713  54.394  1.00  0.00    -0.258 NA
HETATM    6  C3  UNL     1      25.268   0.044  54.122  1.00  0.00     0.047 A 
HETATM    7  C4  UNL     1      26.482  -0.096  54.990  1.00  0.00     0.080 C 
HETATM    8  C5  UNL     1      27.663  -0.075  54.019  1.00  0.00     0.131 C 
HETATM    9  N3  UNL     1      27.755   1.303  53.556  1.00  0.00    -0.355 N 
HETATM   10  C7  UNL     1      26.605   1.875  52.872  1.00  0.00     0.168 C 
HETATM   11  C8  UNL     1      25.385   1.046  53.076  1.00  0.00     0.018 A 
HETATM   12  C9  UNL     1      24.387   1.275  52.235  1.00  0.00     0.089 A 
ENDROOT
BRANCH  12  13
HETATM   13  N4  UNL     1      24.364   2.226  51.166  1.00  0.00    -0.350 N 
HETATM   14  H9  UNL     1      24.992   1.929  50.386  1.00  0.00     0.166 HD
BRANCH  13  15
HETATM   15  C10 UNL     1      23.584   3.412  51.174  1.00  0.00     0.034 A 
HETATM   16  C11 UNL     1      23.250   3.936  52.404  1.00  0.00     0.032 A 
HETATM   17  C12 UNL     1      22.483   5.102  52.371  1.00  0.00     0.046 A 
HETATM   18  C13 UNL     1      22.105   5.660  51.158  1.00  0.00     0.138 A 
HETATM   19  F1  UNL     1      21.354   6.805  51.142  1.00  0.00    -0.204 F 
HETATM   20  C14 UNL     1      22.474   5.085  49.941  1.00  0.00     0.074 A 
HETATM   21 CL1  UNL     1      22.007   5.774  48.398  1.00  0.00    -0.081 Cl
HETATM   22  C15 UNL     1      23.241   3.919  49.940  1.00  0.00     0.056 A 
ENDBRANCH  13  15
ENDBRANCH  12  13
BRANCH   9  23
HETATM   23  C6  UNL     1      28.908   2.117  53.735  1.00  0.00     0.351 C 
HETATM   24  O1  UNL     1      29.483   2.401  54.840  1.00  0.00    -0.284 OA
ENDBRANCH   9  23
TORSDOF 3
ENDMDL
MODEL 8
REMARK VINA RESULT:      -7.3      3.820      6.348
REMARK  3 active torsions:
REMARK  status: ('A' for Active; 'I' for Inactive)
REMARK    1  A    between atoms: N3_9  and  C6_10 
REMARK    2  A    between atoms: C9_14  and  N4_15 
REMARK    3  A    between atoms: N4_15  and  C10_16 
ROOT
HETATM    1  N1  UNL     1      22.231   3.671  47.853  1.00  0.00    -0.184 NA
HETATM    2  C1  UNL     1      22.738   3.334  48.837  1.00  0.00     0.134 C 
HETATM    3  S1  UNL     1      23.542   2.821  50.331  1.00  0.00    -0.022 SA
HETATM    4  C2  UNL     1      22.722   2.279  51.636  1.00  0.00     0.172 A 
HETATM    5  N2  UNL     1      23.546   1.926  52.707  1.00  0.00    -0.258 NA
HETATM    6  C3  UNL     1      24.804   1.980  52.766  1.00  0.00     0.047 A 
HETATM    7  C4  UNL     1      25.428   1.532  54.053  1.00  0.00     0.080 C 
HETATM    8  C5  UNL     1      26.618   0.669  53.634  1.00  0.00     0.131 C 
HETATM    9  N3  UNL     1      27.603   1.603  53.106  1.00  0.00    -0.355 N 
HETATM   10  C7  UNL     1      27.225   2.427  51.967  1.00  0.00     0.168 C 
HETATM   11  C8  UNL     1      25.752   2.417  51.756  1.00  0.00     0.018 A 
HETATM   12  C9  UNL     1      25.338   2.839  50.569  1.00  0.00     0.089 A 
ENDROOT
BRANCH  12  13
HETATM   13  N4  UNL     1      26.155   3.297  49.486  1.00  0.00    -0.350 N 
HETATM   14  H9  UNL     1      26.452   2.501  48.879  1.00  0.00     0.166 HD
BRANCH  13  15
HETATM   15  C10 UNL     1      26.506   4.656  49.275  1.00  0.00     0.034 A 
HETATM   16  C11 UNL     1      25.656   5.612  49.789  1.00  0.00     0.032 A 
HETATM   17  C12 UNL     1      26.035   6.935  49.562  1.00  0.00     0.046 A 
HETATM   18  C13 UNL     1      27.197   7.222  48.859  1.00  0.00     0.138 A 
HETATM   19  F1  UNL     1      27.556   8.527  48.645  1.00  0.00    -0.204 F 
HETATM   20  C14 UNL     1      28.021   6.212  48.361  1.00  0.00     0.074 A 
HETATM   21 CL1  UNL     1      29.492   6.553  47.472  1.00  0.00    -0.081 Cl
HETATM   22  C15 UNL     1      27.669   4.877  48.573  1.00  0.00     0.056 A 
ENDBRANCH  13  15
ENDBRANCH  12  13
BRANCH   9  23
HETATM   23  C6  UNL     1      28.912   1.751  53.642  1.00  0.00     0.351 C 
HETATM   24  O1  UNL     1      29.229   2.293  54.755  1.00  0.00    -0.284 OA
ENDBRANCH   9  23
TORSDOF 3
ENDMDL
MODEL 9
REMARK VINA RESULT:      -7.1      3.568      5.880
REMARK  3 active torsions:
REMARK  status: ('A' for Active; 'I' for Inactive)
REMARK    1  A    between atoms: N3_9  and  C6_10 
REMARK    2  A    between atoms: C9_14  and  N4_15 
REMARK    3  A    between atoms: N4_15  and  C10_16 
ROOT
HETATM    1  N1  UNL     1      19.856   3.735  48.312  1.00  0.00    -0.184 NA
HETATM    2  C1  UNL     1      20.123   3.149  49.273  1.00  0.00     0.134 C 
HETATM    3  S1  UNL     1      20.560   2.247  50.734  1.00  0.00    -0.022 SA
HETATM    4  C2  UNL     1      19.460   1.779  51.847  1.00  0.00     0.172 A 
HETATM    5  N2  UNL     1      20.014   1.080  52.923  1.00  0.00    -0.258 NA
HETATM    6  C3  UNL     1      21.225   0.785  53.112  1.00  0.00     0.047 A 
HETATM    7  C4  UNL     1      21.534   0.022  54.364  1.00  0.00     0.080 C 
HETATM    8  C5  UNL     1      22.516  -1.066  53.928  1.00  0.00     0.131 C 
HETATM    9  N3  UNL     1      23.766  -0.370  53.657  1.00  0.00    -0.355 N 
HETATM   10  C7  UNL     1      23.767   0.668  52.636  1.00  0.00     0.168 C 
HETATM   11  C8  UNL     1      22.381   1.082  52.283  1.00  0.00     0.018 A 
HETATM   12  C9  UNL     1      22.253   1.751  51.147  1.00  0.00     0.089 A 
ENDROOT
BRANCH  12  13
HETATM   13  N4  UNL     1      23.299   2.110  50.238  1.00  0.00    -0.350 N 
HETATM   14  H9  UNL     1      23.499   1.333  49.570  1.00  0.00     0.166 HD
BRANCH  13  15
HETATM   15  C10 UNL     1      23.967   3.363  50.251  1.00  0.00     0.034 A 
HETATM   16  C11 UNL     1      23.370   4.387  50.955  1.00  0.00     0.032 A 
HETATM   17  C12 UNL     1      24.056   5.602  50.944  1.00  0.00     0.046 A 
HETATM   18  C13 UNL     1      25.256   5.725  50.256  1.00  0.00     0.138 A 
HETATM   19  F1  UNL     1      25.918   6.924  50.256  1.00  0.00    -0.204 F 
HETATM   20  C14 UNL     1      25.814   4.652  49.559  1.00  0.00     0.074 A 
HETATM   21 CL1  UNL     1      27.327   4.787  48.685  1.00  0.00    -0.081 Cl
HETATM   22  C15 UNL     1      25.151   3.423  49.551  1.00  0.00     0.056 A 
ENDBRANCH  13  15
ENDBRANCH  12  13
BRANCH   9  23
HETATM   23  C6  UNL     1      24.985  -0.650  54.336  1.00  0.00     0.351 C 
HETATM   24  O1  UNL     1      25.116  -1.197  55.483  1.00  0.00    -0.284 OA
ENDBRANCH   9  23
TORSDOF 3
ENDMDL
