MODEL 1
REMARK VINA RESULT:      -7.3      0.000      0.000
REMARK  6 active torsions:
REMARK  status: ('A' for Active; 'I' for Inactive)
REMARK    1  A    between atoms: C3_3  and  C4_4 
REMARK    2  A    between atoms: C4_4  and  N1_5 
REMARK    3  A    between atoms: C5_6  and  N2_7 
REMARK    4  A    between atoms: C5_6  and  C6_8 
REMARK    5  A    between atoms: N3_12  and  C10_13 
REMARK    6  A    between atoms: C10_13  and  C11_14 
ROOT
HETATM    1  C6  UNL     1      26.025  -0.422  53.924  1.00  0.00     0.156 C 
HETATM    2  C7  UNL     1      27.318   0.031  54.624  1.00  0.00     0.053 A 
HETATM    3  C8  UNL     1      28.503   0.164  53.904  1.00  0.00     0.033 A 
HETATM    4  C9  UNL     1      27.397   0.804  53.313  1.00  0.00     0.066 A 
HETATM    5  N3  UNL     1      25.980   1.019  53.553  1.00  0.00    -0.385 N 
ENDROOT
BRANCH   1   6
HETATM    6  C5  UNL     1      24.958  -0.847  54.835  1.00  0.00     0.115 C 
HETATM    7  N1  UNL     1      23.756  -0.885  54.366  1.00  0.00    -0.271 NA
BRANCH   7   8
HETATM    8  C4  UNL     1      22.625  -1.295  55.192  1.00  0.00     0.177 C 
BRANCH   8   9
HETATM    9  C3  UNL     1      21.524  -1.705  54.313  1.00  0.00    -0.010 C 
HETATM   10  C2  UNL     1      20.568  -0.937  53.801  1.00  0.00    -0.033 C 
HETATM   11  C1  UNL     1      20.570   0.501  54.124  1.00  0.00     0.036 C 
ENDBRANCH   8   9
ENDBRANCH   7   8
BRANCH   6  12
HETATM   12  N2  UNL     1      25.357  -1.182  56.164  1.00  0.00    -0.386 N 
HETATM   13  H8  UNL     1      26.151  -1.817  55.927  1.00  0.00     0.157 HD
HETATM   14  H9  UNL     1      25.091  -0.980  57.139  1.00  0.00     0.157 HD
ENDBRANCH   6  12
ENDBRANCH   1   6
BRANCH   5  15
HETATM   15  C10 UNL     1      25.251   2.271  53.374  1.00  0.00     0.157 C 
BRANCH  15  16
HETATM   16  C11 UNL     1      24.564   2.352  52.080  1.00  0.00    -0.039 A 
HETATM   17  C12 UNL     1      24.920   3.163  51.020  1.00  0.00     0.010 A 
HETATM   18  C13 UNL     1      24.217   3.181  49.826  1.00  0.00     0.026 A 
HETATM   19  C14 UNL     1      23.111   2.368  49.654  1.00  0.00     0.055 A 
HETATM   20 CL1  UNL     1      22.217   2.382  48.152  1.00  0.00    -0.083 Cl
HETATM   21  C15 UNL     1      22.705   1.536  50.673  1.00  0.00     0.056 A 
HETATM   22 CL2  UNL     1      21.321   0.497  50.500  1.00  0.00    -0.083 Cl
HETATM   23  C16 UNL     1      23.443   1.555  51.851  1.00  0.00     0.034 A 
ENDBRANCH  15  16
ENDBRANCH   5  15
TORSDOF 6
ENDMDL
MODEL 2
REMARK VINA RESULT:      -7.0      3.688      7.105
REMARK  6 active torsions:
REMARK  status: ('A' for Active; 'I' for Inactive)
REMARK    1  A    between atoms: C3_3  and  C4_4 
REMARK    2  A    between atoms: C4_4  and  N1_5 
REMARK    3  A    between atoms: C5_6  and  N2_7 
REMARK    4  A    between atoms: C5_6  and  C6_8 
REMARK    5  A    between atoms: N3_12  and  C10_13 
REMARK    6  A    between atoms: C10_13  and  C11_14 
ROOT
HETATM    1  C6  UNL     1      23.596   2.141  50.503  1.00  0.00     0.156 C 
HETATM    2  C7  UNL     1      22.092   2.381  50.722  1.00  0.00     0.053 A 
HETATM    3  C8  UNL     1      21.169   1.372  50.457  1.00  0.00     0.033 A 
HETATM    4  C9  UNL     1      22.253   0.962  51.257  1.00  0.00     0.066 A 
HETATM    5  N3  UNL     1      23.467   1.505  51.842  1.00  0.00    -0.385 N 
ENDROOT
BRANCH   1   6
HETATM    6  C5  UNL     1      24.408   3.360  50.486  1.00  0.00     0.115 C 
HETATM    7  N1  UNL     1      24.957   3.694  49.366  1.00  0.00    -0.271 NA
BRANCH   7   8
HETATM    8  C4  UNL     1      25.784   4.890  49.245  1.00  0.00     0.177 C 
BRANCH   8   9
HETATM    9  C3  UNL     1      27.167   4.481  48.974  1.00  0.00    -0.010 C 
HETATM   10  C2  UNL     1      28.151   5.229  48.484  1.00  0.00    -0.033 C 
HETATM   11  C1  UNL     1      27.871   6.639  48.159  1.00  0.00     0.036 C 
ENDBRANCH   8   9
ENDBRANCH   7   8
BRANCH   6  12
HETATM   12  N2  UNL     1      24.514   4.068  51.721  1.00  0.00    -0.386 N 
HETATM   13  H8  UNL     1      23.738   3.593  52.233  1.00  0.00     0.157 HD
HETATM   14  H9  UNL     1      25.081   4.811  52.155  1.00  0.00     0.157 HD
ENDBRANCH   6  12
ENDBRANCH   1   6
BRANCH   5  15
HETATM   15  C10 UNL     1      23.959   1.263  53.196  1.00  0.00     0.157 C 
BRANCH  15  16
HETATM   16  C11 UNL     1      25.330   0.741  53.220  1.00  0.00    -0.039 A 
HETATM   17  C12 UNL     1      25.706  -0.565  52.976  1.00  0.00     0.010 A 
HETATM   18  C13 UNL     1      27.027  -0.981  53.019  1.00  0.00     0.026 A 
HETATM   19  C14 UNL     1      28.035  -0.079  53.313  1.00  0.00     0.055 A 
HETATM   20 CL1  UNL     1      29.705  -0.592  53.368  1.00  0.00    -0.083 Cl
HETATM   21  C15 UNL     1      27.725   1.239  53.565  1.00  0.00     0.056 A 
HETATM   22 CL2  UNL     1      28.958   2.406  53.939  1.00  0.00    -0.083 Cl
HETATM   23  C16 UNL     1      26.384   1.605  53.511  1.00  0.00     0.034 A 
ENDBRANCH  15  16
ENDBRANCH   5  15
TORSDOF 6
ENDMDL
MODEL 3
REMARK VINA RESULT:      -7.0      2.422      5.059
REMARK  6 active torsions:
REMARK  status: ('A' for Active; 'I' for Inactive)
REMARK    1  A    between atoms: C3_3  and  C4_4 
REMARK    2  A    between atoms: C4_4  and  N1_5 
REMARK    3  A    between atoms: C5_6  and  N2_7 
REMARK    4  A    between atoms: C5_6  and  C6_8 
REMARK    5  A    between atoms: N3_12  and  C10_13 
REMARK    6  A    between atoms: C10_13  and  C11_14 
ROOT
HETATM    1  C6  UNL     1      25.854   1.314  51.445  1.00  0.00     0.156 C 
HETATM    2  C7  UNL     1      26.636   2.583  51.062  1.00  0.00     0.053 A 
HETATM    3  C8  UNL     1      26.391   3.226  49.850  1.00  0.00     0.033 A 
HETATM    4  C9  UNL     1      25.230   2.941  50.594  1.00  0.00     0.066 A 
HETATM    5  N3  UNL     1      24.841   2.326  51.852  1.00  0.00    -0.385 N 
ENDROOT
BRANCH   1   6
HETATM    6  C5  UNL     1      26.435   0.557  52.557  1.00  0.00     0.115 C 
HETATM    7  N1  UNL     1      27.385   1.119  53.228  1.00  0.00    -0.271 NA
BRANCH   7   8
HETATM    8  C4  UNL     1      28.028   0.449  54.353  1.00  0.00     0.177 C 
BRANCH   8   9
HETATM    9  C3  UNL     1      29.451   0.269  54.042  1.00  0.00    -0.010 C 
HETATM   10  C2  UNL     1      30.044  -0.820  53.564  1.00  0.00    -0.033 C 
HETATM   11  C1  UNL     1      29.220  -2.013  53.298  1.00  0.00     0.036 C 
ENDBRANCH   8   9
ENDBRANCH   7   8
BRANCH   6  12
HETATM   12  N2  UNL     1      25.890  -0.740  52.793  1.00  0.00    -0.386 N 
HETATM   13  H8  UNL     1      25.297  -0.813  51.936  1.00  0.00     0.157 HD
HETATM   14  H9  UNL     1      25.933  -1.497  53.493  1.00  0.00     0.157 HD
ENDBRANCH   6  12
ENDBRANCH   1   6
BRANCH   5  15
HETATM   15  C10 UNL     1      23.843   2.830  52.791  1.00  0.00     0.157 C 
BRANCH  15  16
HETATM   16  C11 UNL     1      22.611   2.034  52.795  1.00  0.00    -0.039 A 
HETATM   17  C12 UNL     1      21.387   2.428  52.292  1.00  0.00     0.010 A 
HETATM   18  C13 UNL     1      20.265   1.616  52.335  1.00  0.00     0.026 A 
HETATM   19  C14 UNL     1      20.339   0.352  52.896  1.00  0.00     0.055 A 
HETATM   20 CL1  UNL     1      18.932  -0.682  52.954  1.00  0.00    -0.083 Cl
HETATM   21  C15 UNL     1      21.531  -0.100  53.415  1.00  0.00     0.056 A 
HETATM   22 CL2  UNL     1      21.670  -1.679  54.128  1.00  0.00    -0.083 Cl
HETATM   23  C16 UNL     1      22.627   0.754  53.348  1.00  0.00     0.034 A 
ENDBRANCH  15  16
ENDBRANCH   5  15
TORSDOF 6
ENDMDL
MODEL 4
REMARK VINA RESULT:      -7.0      1.848      5.183
REMARK  6 active torsions:
REMARK  status: ('A' for Active; 'I' for Inactive)
REMARK    1  A    between atoms: C3_3  and  C4_4 
REMARK    2  A    between atoms: C4_4  and  N1_5 
REMARK    3  A    between atoms: C5_6  and  N2_7 
REMARK    4  A    between atoms: C5_6  and  C6_8 
REMARK    5  A    between atoms: N3_12  and  C10_13 
REMARK    6  A    between atoms: C10_13  and  C11_14 
ROOT
HETATM    1  C6  UNL     1      26.673   1.819  53.867  1.00  0.00     0.156 C 
HETATM    2  C7  UNL     1      28.117   1.450  53.487  1.00  0.00     0.053 A 
HETATM    3  C8  UNL     1      29.041   1.103  54.470  1.00  0.00     0.033 A 
HETATM    4  C9  UNL     1      27.815   0.417  54.566  1.00  0.00     0.066 A 
HETATM    5  N3  UNL     1      26.532   0.338  53.890  1.00  0.00    -0.385 N 
ENDROOT
BRANCH   1   6
HETATM    6  C5  UNL     1      25.916   2.485  52.803  1.00  0.00     0.115 C 
HETATM    7  N1  UNL     1      26.371   2.385  51.599  1.00  0.00    -0.271 NA
BRANCH   7   8
HETATM    8  C4  UNL     1      25.692   3.011  50.469  1.00  0.00     0.177 C 
BRANCH   8   9
HETATM    9  C3  UNL     1      26.699   3.431  49.488  1.00  0.00    -0.010 C 
HETATM   10  C2  UNL     1      26.861   4.641  48.962  1.00  0.00    -0.033 C 
HETATM   11  C1  UNL     1      25.949   5.721  49.381  1.00  0.00     0.036 C 
ENDBRANCH   8   9
ENDBRANCH   7   8
BRANCH   6  12
HETATM   12  N2  UNL     1      24.738   3.183  53.204  1.00  0.00    -0.386 N 
HETATM   13  H8  UNL     1      25.124   4.154  53.183  1.00  0.00     0.157 HD
HETATM   14  H9  UNL     1      23.760   2.990  53.466  1.00  0.00     0.157 HD
ENDBRANCH   6  12
ENDBRANCH   1   6
BRANCH   5  15
HETATM   15  C10 UNL     1      25.790  -0.881  53.576  1.00  0.00     0.157 C 
BRANCH  15  16
HETATM   16  C11 UNL     1      24.338  -0.712  53.697  1.00  0.00    -0.039 A 
HETATM   17  C12 UNL     1      23.575  -1.004  54.810  1.00  0.00     0.010 A 
HETATM   18  C13 UNL     1      22.203  -0.816  54.845  1.00  0.00     0.026 A 
HETATM   19  C14 UNL     1      21.537  -0.318  53.738  1.00  0.00     0.055 A 
HETATM   20 CL1  UNL     1      19.807  -0.075  53.770  1.00  0.00    -0.083 Cl
HETATM   21  C15 UNL     1      22.241  -0.006  52.596  1.00  0.00     0.056 A 
HETATM   22 CL2  UNL     1      21.447   0.622  51.183  1.00  0.00    -0.083 Cl
HETATM   23  C16 UNL     1      23.617  -0.214  52.612  1.00  0.00     0.034 A 
ENDBRANCH  15  16
ENDBRANCH   5  15
TORSDOF 6
ENDMDL
MODEL 5
REMARK VINA RESULT:      -6.9      3.327      5.227
REMARK  6 active torsions:
REMARK  status: ('A' for Active; 'I' for Inactive)
REMARK    1  A    between atoms: C3_3  and  C4_4 
REMARK    2  A    between atoms: C4_4  and  N1_5 
REMARK    3  A    between atoms: C5_6  and  N2_7 
REMARK    4  A    between atoms: C5_6  and  C6_8 
REMARK    5  A    between atoms: N3_12  and  C10_13 
REMARK    6  A    between atoms: C10_13  and  C11_14 
ROOT
HETATM    1  C6  UNL     1      22.811   3.012  50.888  1.00  0.00     0.156 C 
HETATM    2  C7  UNL     1      23.997   2.891  49.915  1.00  0.00     0.053 A 
HETATM    3  C8  UNL     1      24.617   4.031  49.411  1.00  0.00     0.033 A 
HETATM    4  C9  UNL     1      24.455   4.037  50.810  1.00  0.00     0.066 A 
HETATM    5  N3  UNL     1      23.916   3.199  51.867  1.00  0.00    -0.385 N 
ENDROOT
BRANCH   1   6
HETATM    6  C5  UNL     1      22.045   1.775  51.067  1.00  0.00     0.115 C 
HETATM    7  N1  UNL     1      21.647   1.490  52.262  1.00  0.00    -0.271 NA
BRANCH   7   8
HETATM    8  C4  UNL     1      20.878   0.283  52.545  1.00  0.00     0.177 C 
BRANCH   8   9
HETATM    9  C3  UNL     1      20.629   0.211  53.990  1.00  0.00    -0.010 C 
HETATM   10  C2  UNL     1      21.365  -0.406  54.908  1.00  0.00    -0.033 C 
HETATM   11  C1  UNL     1      22.583  -1.116  54.476  1.00  0.00     0.036 C 
ENDBRANCH   8   9
ENDBRANCH   7   8
BRANCH   6  12
HETATM   12  N2  UNL     1      21.809   1.000  49.893  1.00  0.00    -0.386 N 
HETATM   13  H8  UNL     1      20.908   0.558  50.182  1.00  0.00     0.157 HD
HETATM   14  H9  UNL     1      22.245   0.805  48.979  1.00  0.00     0.157 HD
ENDBRANCH   6  12
ENDBRANCH   1   6
BRANCH   5  15
HETATM   15  C10 UNL     1      24.532   2.939  53.166  1.00  0.00     0.157 C 
BRANCH  15  16
HETATM   16  C11 UNL     1      25.504   1.840  53.125  1.00  0.00    -0.039 A 
HETATM   17  C12 UNL     1      25.293   0.587  52.584  1.00  0.00     0.010 A 
HETATM   18  C13 UNL     1      26.264  -0.400  52.586  1.00  0.00     0.026 A 
HETATM   19  C14 UNL     1      27.508  -0.156  53.143  1.00  0.00     0.055 A 
HETATM   20 CL1  UNL     1      28.742  -1.393  53.150  1.00  0.00    -0.083 Cl
HETATM   21  C15 UNL     1      27.782   1.074  53.699  1.00  0.00     0.056 A 
HETATM   22 CL2  UNL     1      29.329   1.424  54.409  1.00  0.00    -0.083 Cl
HETATM   23  C16 UNL     1      26.772   2.030  53.672  1.00  0.00     0.034 A 
ENDBRANCH  15  16
ENDBRANCH   5  15
TORSDOF 6
ENDMDL
MODEL 6
REMARK VINA RESULT:      -6.8      2.208      4.593
REMARK  6 active torsions:
REMARK  status: ('A' for Active; 'I' for Inactive)
REMARK    1  A    between atoms: C3_3  and  C4_4 
REMARK    2  A    between atoms: C4_4  and  N1_5 
REMARK    3  A    between atoms: C5_6  and  N2_7 
REMARK    4  A    between atoms: C5_6  and  C6_8 
REMARK    5  A    between atoms: N3_12  and  C10_13 
REMARK    6  A    between atoms: C10_13  and  C11_14 
ROOT
HETATM    1  C6  UNL     1      27.027   0.502  52.952  1.00  0.00     0.156 C 
HETATM    2  C7  UNL     1      26.724  -0.634  51.960  1.00  0.00     0.053 A 
HETATM    3  C8  UNL     1      26.872  -1.965  52.343  1.00  0.00     0.033 A 
HETATM    4  C9  UNL     1      26.123  -1.188  53.247  1.00  0.00     0.066 A 
HETATM    5  N3  UNL     1      25.649   0.176  53.409  1.00  0.00    -0.385 N 
ENDROOT
BRANCH   1   6
HETATM    6  C5  UNL     1      27.164   1.825  52.336  1.00  0.00     0.115 C 
HETATM    7  N1  UNL     1      26.642   1.993  51.166  1.00  0.00    -0.271 NA
BRANCH   7   8
HETATM    8  C4  UNL     1      26.724   3.272  50.468  1.00  0.00     0.177 C 
BRANCH   8   9
HETATM    9  C3  UNL     1      25.555   3.405  49.591  1.00  0.00    -0.010 C 
HETATM   10  C2  UNL     1      25.007   4.529  49.139  1.00  0.00    -0.033 C 
HETATM   11  C1  UNL     1      25.605   5.816  49.537  1.00  0.00     0.036 C 
ENDBRANCH   8   9
ENDBRANCH   7   8
BRANCH   6  12
HETATM   12  N2  UNL     1      27.866   2.808  53.095  1.00  0.00    -0.386 N 
HETATM   13  H8  UNL     1      27.227   3.617  52.922  1.00  0.00     0.157 HD
HETATM   14  H9  UNL     1      28.712   2.896  53.678  1.00  0.00     0.157 HD
ENDBRANCH   6  12
ENDBRANCH   1   6
BRANCH   5  15
HETATM   15  C10 UNL     1      24.318   0.583  53.853  1.00  0.00     0.157 C 
BRANCH  15  16
HETATM   16  C11 UNL     1      23.570   1.310  52.821  1.00  0.00    -0.039 A 
HETATM   17  C12 UNL     1      22.860   0.744  51.781  1.00  0.00     0.010 A 
HETATM   18  C13 UNL     1      22.178   1.502  50.843  1.00  0.00     0.026 A 
HETATM   19  C14 UNL     1      22.187   2.884  50.921  1.00  0.00     0.055 A 
HETATM   20 CL1  UNL     1      21.329   3.850  49.744  1.00  0.00    -0.083 Cl
HETATM   21  C15 UNL     1      22.877   3.510  51.935  1.00  0.00     0.056 A 
HETATM   22 CL2  UNL     1      22.915   5.242  52.072  1.00  0.00    -0.083 Cl
HETATM   23  C16 UNL     1      23.545   2.704  52.851  1.00  0.00     0.034 A 
ENDBRANCH  15  16
ENDBRANCH   5  15
TORSDOF 6
ENDMDL
MODEL 7
REMARK VINA RESULT:      -6.8      2.627      5.162
REMARK  6 active torsions:
REMARK  status: ('A' for Active; 'I' for Inactive)
REMARK    1  A    between atoms: C3_3  and  C4_4 
REMARK    2  A    between atoms: C4_4  and  N1_5 
REMARK    3  A    between atoms: C5_6  and  N2_7 
REMARK    4  A    between atoms: C5_6  and  C6_8 
REMARK    5  A    between atoms: N3_12  and  C10_13 
REMARK    6  A    between atoms: C10_13  and  C11_14 
ROOT
HETATM    1  C6  UNL     1      23.701   1.265  53.127  1.00  0.00     0.156 C 
HETATM    2  C7  UNL     1      23.359  -0.215  52.885  1.00  0.00     0.053 A 
HETATM    3  C8  UNL     1      22.072  -0.691  53.125  1.00  0.00     0.033 A 
HETATM    4  C9  UNL     1      22.115   0.477  52.339  1.00  0.00     0.066 A 
HETATM    5  N3  UNL     1      23.085   1.402  51.780  1.00  0.00    -0.385 N 
ENDROOT
BRANCH   1   6
HETATM    6  C5  UNL     1      25.137   1.556  53.170  1.00  0.00     0.115 C 
HETATM    7  N1  UNL     1      25.948   0.595  52.877  1.00  0.00    -0.271 NA
BRANCH   7   8
HETATM    8  C4  UNL     1      27.395   0.783  52.890  1.00  0.00     0.177 C 
BRANCH   8   9
HETATM    9  C3  UNL     1      27.902   0.438  54.224  1.00  0.00    -0.010 C 
HETATM   10  C2  UNL     1      28.994  -0.260  54.518  1.00  0.00    -0.033 C 
HETATM   11  C1  UNL     1      29.825  -0.770  53.413  1.00  0.00     0.036 C 
ENDBRANCH   8   9
ENDBRANCH   7   8
BRANCH   6  12
HETATM   12  N2  UNL     1      25.504   2.887  53.533  1.00  0.00    -0.386 N 
HETATM   13  H8  UNL     1      24.915   2.976  54.392  1.00  0.00     0.157 HD
HETATM   14  H9  UNL     1      26.110   3.653  53.205  1.00  0.00     0.157 HD
ENDBRANCH   6  12
ENDBRANCH   1   6
BRANCH   5  15
HETATM   15  C10 UNL     1      23.069   1.964  50.431  1.00  0.00     0.157 C 
BRANCH  15  16
HETATM   16  C11 UNL     1      23.738   3.267  50.349  1.00  0.00    -0.039 A 
HETATM   17  C12 UNL     1      23.238   4.468  50.812  1.00  0.00     0.010 A 
HETATM   18  C13 UNL     1      23.933   5.661  50.696  1.00  0.00     0.026 A 
HETATM   19  C14 UNL     1      25.181   5.687  50.098  1.00  0.00     0.055 A 
HETATM   20 CL1  UNL     1      26.069   7.185  49.947  1.00  0.00    -0.083 Cl
HETATM   21  C15 UNL     1      25.736   4.522  49.617  1.00  0.00     0.056 A 
HETATM   22 CL2  UNL     1      27.301   4.507  48.859  1.00  0.00    -0.083 Cl
HETATM   23  C16 UNL     1      24.998   3.352  49.757  1.00  0.00     0.034 A 
ENDBRANCH  15  16
ENDBRANCH   5  15
TORSDOF 6
ENDMDL
MODEL 8
REMARK VINA RESULT:      -6.7      2.418      5.141
REMARK  6 active torsions:
REMARK  status: ('A' for Active; 'I' for Inactive)
REMARK    1  A    between atoms: C3_3  and  C4_4 
REMARK    2  A    between atoms: C4_4  and  N1_5 
REMARK    3  A    between atoms: C5_6  and  N2_7 
REMARK    4  A    between atoms: C5_6  and  C6_8 
REMARK    5  A    between atoms: N3_12  and  C10_13 
REMARK    6  A    between atoms: C10_13  and  C11_14 
ROOT
HETATM    1  C6  UNL     1      24.984   2.863  51.928  1.00  0.00     0.156 C 
HETATM    2  C7  UNL     1      23.957   3.371  52.955  1.00  0.00     0.053 A 
HETATM    3  C8  UNL     1      23.424   4.654  52.847  1.00  0.00     0.033 A 
HETATM    4  C9  UNL     1      23.375   3.910  51.653  1.00  0.00     0.066 A 
HETATM    5  N3  UNL     1      23.745   2.600  51.147  1.00  0.00    -0.385 N 
ENDROOT
BRANCH   1   6
HETATM    6  C5  UNL     1      25.709   1.658  52.341  1.00  0.00     0.115 C 
HETATM    7  N1  UNL     1      25.372   1.117  53.465  1.00  0.00    -0.271 NA
BRANCH   7   8
HETATM    8  C4  UNL     1      26.032  -0.084  53.964  1.00  0.00     0.177 C 
BRANCH   8   9
HETATM    9  C3  UNL     1      27.127   0.316  54.857  1.00  0.00    -0.010 C 
HETATM   10  C2  UNL     1      28.419   0.030  54.732  1.00  0.00    -0.033 C 
HETATM   11  C1  UNL     1      28.853  -0.782  53.581  1.00  0.00     0.036 C 
ENDBRANCH   8   9
ENDBRANCH   7   8
BRANCH   6  12
HETATM   12  N2  UNL     1      26.723   1.193  51.453  1.00  0.00    -0.386 N 
HETATM   13  H8  UNL     1      26.452   0.185  51.428  1.00  0.00     0.157 HD
HETATM   14  H9  UNL     1      27.527   1.556  50.917  1.00  0.00     0.157 HD
ENDBRANCH   6  12
ENDBRANCH   1   6
BRANCH   5  15
HETATM   15  C10 UNL     1      22.940   1.748  50.275  1.00  0.00     0.157 C 
BRANCH  15  16
HETATM   16  C11 UNL     1      21.826   1.103  50.979  1.00  0.00    -0.039 A 
HETATM   17  C12 UNL     1      20.501   1.118  50.590  1.00  0.00     0.010 A 
HETATM   18  C13 UNL     1      19.504   0.483  51.312  1.00  0.00     0.026 A 
HETATM   19  C14 UNL     1      19.811  -0.204  52.474  1.00  0.00     0.055 A 
HETATM   20 CL1  UNL     1      18.562  -1.009  53.392  1.00  0.00    -0.083 Cl
HETATM   21  C15 UNL     1      21.115  -0.256  52.915  1.00  0.00     0.056 A 
HETATM   22 CL2  UNL     1      21.547  -1.107  54.368  1.00  0.00    -0.083 Cl
HETATM   23  C16 UNL     1      22.078   0.398  52.155  1.00  0.00     0.034 A 
ENDBRANCH  15  16
ENDBRANCH   5  15
TORSDOF 6
ENDMDL
MODEL 9
REMARK VINA RESULT:      -6.7      3.143      5.131
REMARK  6 active torsions:
REMARK  status: ('A' for Active; 'I' for Inactive)
REMARK    1  A    between atoms: C3_3  and  C4_4 
REMARK    2  A    between atoms: C4_4  and  N1_5 
REMARK    3  A    between atoms: C5_6  and  N2_7 
REMARK    4  A    between atoms: C5_6  and  C6_8 
REMARK    5  A    between atoms: N3_12  and  C10_13 
REMARK    6  A    between atoms: C10_13  and  C11_14 
ROOT
HETATM    1  C6  UNL     1      21.279   2.884  50.445  1.00  0.00     0.156 C 
HETATM    2  C7  UNL     1      22.058   1.925  49.528  1.00  0.00     0.053 A 
HETATM    3  C8  UNL     1      22.645   2.391  48.354  1.00  0.00     0.033 A 
HETATM    4  C9  UNL     1      22.943   3.166  49.492  1.00  0.00     0.066 A 
HETATM    5  N3  UNL     1      22.655   3.203  50.915  1.00  0.00    -0.385 N 
ENDROOT
BRANCH   1   6
HETATM    6  C5  UNL     1      20.437   2.217  51.443  1.00  0.00     0.115 C 
HETATM    7  N1  UNL     1      20.856   1.093  51.920  1.00  0.00    -0.271 NA
BRANCH   7   8
HETATM    8  C4  UNL     1      20.092   0.351  52.917  1.00  0.00     0.177 C 
BRANCH   8   9
HETATM    9  C3  UNL     1      20.773   0.464  54.212  1.00  0.00    -0.010 C 
HETATM   10  C2  UNL     1      21.449  -0.483  54.856  1.00  0.00    -0.033 C 
HETATM   11  C1  UNL     1      21.553  -1.818  54.240  1.00  0.00     0.036 C 
ENDBRANCH   8   9
ENDBRANCH   7   8
BRANCH   6  12
HETATM   12  N2  UNL     1      19.225   2.884  51.796  1.00  0.00    -0.386 N 
HETATM   13  H8  UNL     1      18.753   2.841  50.866  1.00  0.00     0.157 HD
HETATM   14  H9  UNL     1      18.779   3.324  52.615  1.00  0.00     0.157 HD
ENDBRANCH   6  12
ENDBRANCH   1   6
BRANCH   5  15
HETATM   15  C10 UNL     1      23.609   3.476  51.986  1.00  0.00     0.157 C 
BRANCH  15  16
HETATM   16  C11 UNL     1      24.615   2.419  52.137  1.00  0.00    -0.039 A 
HETATM   17  C12 UNL     1      25.768   2.281  51.389  1.00  0.00     0.010 A 
HETATM   18  C13 UNL     1      26.671   1.250  51.593  1.00  0.00     0.026 A 
HETATM   19  C14 UNL     1      26.441   0.304  52.577  1.00  0.00     0.055 A 
HETATM   20 CL1  UNL     1      27.573  -1.000  52.844  1.00  0.00    -0.083 Cl
HETATM   21  C15 UNL     1      25.309   0.386  53.357  1.00  0.00     0.056 A 
HETATM   22 CL2  UNL     1      24.980  -0.780  54.604  1.00  0.00    -0.083 Cl
HETATM   23  C16 UNL     1      24.435   1.439  53.112  1.00  0.00     0.034 A 
ENDBRANCH  15  16
ENDBRANCH   5  15
TORSDOF 6
ENDMDL
