MODEL 1
REMARK VINA RESULT:      -7.7      0.000      0.000
REMARK  6 active torsions:
REMARK  status: ('A' for Active; 'I' for Inactive)
REMARK    1  A    between atoms: O1_2  and  C2_3 
REMARK    2  A    between atoms: C2_3  and  O2_4 
REMARK    3  A    between atoms: C2_3  and  C3_5 
REMARK    4  A    between atoms: C5_7  and  C6_8 
REMARK    5  A    between atoms: C9_13  and  N3_14 
REMARK    6  A    between atoms: N3_14  and  C10_15 
ROOT
HETATM    1  C6  UNL     1      27.130   1.367  53.038  1.00  0.00     0.028 A 
HETATM    2  C7  UNL     1      28.215   2.031  53.563  1.00  0.00     0.133 A 
HETATM    3  N1  UNL     1      28.945   1.455  54.539  1.00  0.00    -0.253 NA
HETATM    4  C8  UNL     1      28.605   0.231  54.993  1.00  0.00     0.234 A 
HETATM    5  N2  UNL     1      27.548  -0.403  54.472  1.00  0.00    -0.224 NA
HETATM    6  C9  UNL     1      26.777   0.110  53.501  1.00  0.00     0.141 A 
ENDROOT
BRANCH   6   7
HETATM    7  N3  UNL     1      25.658  -0.560  52.947  1.00  0.00    -0.340 N 
HETATM    8  H12 UNL     1      25.865  -1.219  52.135  1.00  0.00     0.167 HD
BRANCH   7   9
HETATM    9  C10 UNL     1      24.282  -0.506  53.292  1.00  0.00     0.034 A 
HETATM   10  C11 UNL     1      23.825  -0.943  54.517  1.00  0.00     0.030 A 
HETATM   11  C12 UNL     1      22.503  -0.900  54.873  1.00  0.00     0.010 A 
HETATM   12  C13 UNL     1      21.565  -0.404  53.999  1.00  0.00    -0.052 A 
HETATM   13  C14 UNL     1      21.949   0.051  52.761  1.00  0.00    -0.050 A 
HETATM   14  C18 UNL     1      20.098  -0.246  54.128  1.00  0.00     0.039 C 
HETATM   15  C15 UNL     1      23.293  -0.020  52.462  1.00  0.00     0.037 A 
HETATM   16  C16 UNL     1      20.744   0.532  52.023  1.00  0.00     0.039 C 
HETATM   17  C17 UNL     1      19.643  -0.275  52.682  1.00  0.00     0.009 C 
ENDBRANCH   7   9
ENDBRANCH   6   7
BRANCH   1  18
HETATM   18  C5  UNL     1      26.389   2.053  51.974  1.00  0.00     0.024 C 
HETATM   19  C3  UNL     1      25.327   2.815  52.031  1.00  0.00    -0.029 C 
HETATM   20  C4  UNL     1      24.624   3.161  53.300  1.00  0.00     0.048 C 
BRANCH  19  21
HETATM   21  C2  UNL     1      24.669   3.460  50.835  1.00  0.00     0.286 C 
BRANCH  21  22
HETATM   22  O1  UNL     1      23.316   3.214  50.821  1.00  0.00    -0.362 OA
HETATM   23  C1  UNL     1      22.969   2.504  49.681  1.00  0.00     0.205 C 
ENDBRANCH  21  22
BRANCH  21  24
HETATM   24  O2  UNL     1      24.956   4.820  50.923  1.00  0.00    -0.367 OA
HETATM   25  H5  UNL     1      24.241   5.389  50.590  1.00  0.00     0.213 HD
ENDBRANCH  21  24
ENDBRANCH  19  21
ENDBRANCH   1  18
TORSDOF 6
ENDMDL
MODEL 2
REMARK VINA RESULT:      -7.7      3.198      6.023
REMARK  6 active torsions:
REMARK  status: ('A' for Active; 'I' for Inactive)
REMARK    1  A    between atoms: O1_2  and  C2_3 
REMARK    2  A    between atoms: C2_3  and  O2_4 
REMARK    3  A    between atoms: C2_3  and  C3_5 
REMARK    4  A    between atoms: C5_7  and  C6_8 
REMARK    5  A    between atoms: C9_13  and  N3_14 
REMARK    6  A    between atoms: N3_14  and  C10_15 
ROOT
HETATM    1  C6  UNL     1      24.792   3.242  50.025  1.00  0.00     0.028 A 
HETATM    2  C7  UNL     1      23.659   3.150  49.251  1.00  0.00     0.133 A 
HETATM    3  N1  UNL     1      22.523   2.654  49.781  1.00  0.00    -0.253 NA
HETATM    4  C8  UNL     1      22.508   2.253  51.070  1.00  0.00     0.234 A 
HETATM    5  N2  UNL     1      23.618   2.350  51.811  1.00  0.00    -0.224 NA
HETATM    6  C9  UNL     1      24.781   2.831  51.347  1.00  0.00     0.141 A 
ENDROOT
BRANCH   6   7
HETATM    7  N3  UNL     1      25.958   2.937  52.131  1.00  0.00    -0.340 N 
HETATM    8  H12 UNL     1      26.222   3.920  52.447  1.00  0.00     0.167 HD
BRANCH   7   9
HETATM    9  C10 UNL     1      26.865   1.940  52.577  1.00  0.00     0.034 A 
HETATM   10  C11 UNL     1      28.064   2.266  53.176  1.00  0.00     0.030 A 
HETATM   11  C12 UNL     1      28.954   1.323  53.616  1.00  0.00     0.010 A 
HETATM   12  C13 UNL     1      28.673  -0.015  53.473  1.00  0.00    -0.052 A 
HETATM   13  C14 UNL     1      27.496  -0.414  52.888  1.00  0.00    -0.050 A 
HETATM   14  C18 UNL     1      29.446  -1.220  53.854  1.00  0.00     0.039 C 
HETATM   15  C15 UNL     1      26.643   0.583  52.465  1.00  0.00     0.037 A 
HETATM   16  C16 UNL     1      27.445  -1.906  52.862  1.00  0.00     0.039 C 
HETATM   17  C17 UNL     1      28.919  -2.259  52.884  1.00  0.00     0.009 C 
ENDBRANCH   7   9
ENDBRANCH   6   7
BRANCH   1  18
HETATM   18  C5  UNL     1      25.987   3.799  49.381  1.00  0.00     0.024 C 
HETATM   19  C3  UNL     1      26.338   5.041  49.167  1.00  0.00    -0.029 C 
HETATM   20  C4  UNL     1      25.520   6.216  49.583  1.00  0.00     0.048 C 
BRANCH  19  21
HETATM   21  C2  UNL     1      27.616   5.465  48.482  1.00  0.00     0.286 C 
BRANCH  21  22
HETATM   22  O1  UNL     1      27.644   6.825  48.284  1.00  0.00    -0.362 OA
HETATM   23  C1  UNL     1      28.596   7.152  47.330  1.00  0.00     0.205 C 
ENDBRANCH  21  22
BRANCH  21  24
HETATM   24  O2  UNL     1      28.655   5.031  49.302  1.00  0.00    -0.367 OA
HETATM   25  H5  UNL     1      28.802   4.070  49.264  1.00  0.00     0.213 HD
ENDBRANCH  21  24
ENDBRANCH  19  21
ENDBRANCH   1  18
TORSDOF 6
ENDMDL
MODEL 3
REMARK VINA RESULT:      -7.4      2.823      6.113
REMARK  6 active torsions:
REMARK  status: ('A' for Active; 'I' for Inactive)
REMARK    1  A    between atoms: O1_2  and  C2_3 
REMARK    2  A    between atoms: C2_3  and  O2_4 
REMARK    3  A    between atoms: C2_3  and  C3_5 
REMARK    4  A    between atoms: C5_7  and  C6_8 
REMARK    5  A    between atoms: C9_13  and  N3_14 
REMARK    6  A    between atoms: N3_14  and  C10_15 
ROOT
HETATM    1  C6  UNL     1      23.380   3.026  52.117  1.00  0.00     0.028 A 
HETATM    2  C7  UNL     1      22.483   4.022  52.425  1.00  0.00     0.133 A 
HETATM    3  N1  UNL     1      22.668   5.266  51.937  1.00  0.00    -0.253 NA
HETATM    4  C8  UNL     1      23.733   5.521  51.148  1.00  0.00     0.234 A 
HETATM    5  N2  UNL     1      24.596   4.541  50.856  1.00  0.00    -0.224 NA
HETATM    6  C9  UNL     1      24.474   3.284  51.308  1.00  0.00     0.141 A 
ENDROOT
BRANCH   6   7
HETATM    7  N3  UNL     1      25.386   2.243  50.999  1.00  0.00    -0.340 N 
HETATM    8  H12 UNL     1      25.329   1.853  50.008  1.00  0.00     0.167 HD
BRANCH   7   9
HETATM    9  C10 UNL     1      26.383   1.619  51.794  1.00  0.00     0.034 A 
HETATM   10  C11 UNL     1      27.307   2.354  52.506  1.00  0.00     0.030 A 
HETATM   11  C12 UNL     1      28.276   1.774  53.281  1.00  0.00     0.010 A 
HETATM   12  C13 UNL     1      28.360   0.405  53.378  1.00  0.00    -0.052 A 
HETATM   13  C14 UNL     1      27.471  -0.389  52.697  1.00  0.00    -0.050 A 
HETATM   14  C18 UNL     1      29.294  -0.464  54.131  1.00  0.00     0.039 C 
HETATM   15  C15 UNL     1      26.520   0.253  51.934  1.00  0.00     0.037 A 
HETATM   16  C16 UNL     1      27.783  -1.822  52.979  1.00  0.00     0.039 C 
HETATM   17  C17 UNL     1      29.257  -1.748  53.326  1.00  0.00     0.009 C 
ENDBRANCH   7   9
ENDBRANCH   6   7
BRANCH   1  18
HETATM   18  C5  UNL     1      23.109   1.699  52.679  1.00  0.00     0.024 C 
HETATM   19  C3  UNL     1      22.406   0.701  52.205  1.00  0.00    -0.029 C 
HETATM   20  C4  UNL     1      21.700   0.735  50.892  1.00  0.00     0.048 C 
BRANCH  19  21
HETATM   21  C2  UNL     1      22.214  -0.623  52.907  1.00  0.00     0.286 C 
BRANCH  21  22
HETATM   22  O1  UNL     1      23.111  -0.771  53.939  1.00  0.00    -0.362 OA
HETATM   23  C1  UNL     1      22.466  -1.253  55.069  1.00  0.00     0.205 C 
ENDBRANCH  21  22
BRANCH  21  24
HETATM   24  O2  UNL     1      20.894  -0.636  53.350  1.00  0.00    -0.367 OA
HETATM   25  H5  UNL     1      20.739  -0.064  54.121  1.00  0.00     0.213 HD
ENDBRANCH  21  24
ENDBRANCH  19  21
ENDBRANCH   1  18
TORSDOF 6
ENDMDL
MODEL 4
REMARK VINA RESULT:      -7.3      2.804      5.672
REMARK  6 active torsions:
REMARK  status: ('A' for Active; 'I' for Inactive)
REMARK    1  A    between atoms: O1_2  and  C2_3 
REMARK    2  A    between atoms: C2_3  and  O2_4 
REMARK    3  A    between atoms: C2_3  and  C3_5 
REMARK    4  A    between atoms: C5_7  and  C6_8 
REMARK    5  A    between atoms: C9_13  and  N3_14 
REMARK    6  A    between atoms: N3_14  and  C10_15 
ROOT
HETATM    1  C6  UNL     1      24.308  -0.440  54.227  1.00  0.00     0.028 A 
HETATM    2  C7  UNL     1      23.906  -1.158  55.329  1.00  0.00     0.133 A 
HETATM    3  N1  UNL     1      22.639  -1.615  55.407  1.00  0.00    -0.253 NA
HETATM    4  C8  UNL     1      21.777  -1.363  54.399  1.00  0.00     0.234 A 
HETATM    5  N2  UNL     1      22.184  -0.664  53.333  1.00  0.00    -0.224 NA
HETATM    6  C9  UNL     1      23.427  -0.179  53.192  1.00  0.00     0.141 A 
ENDROOT
BRANCH   6   7
HETATM    7  N3  UNL     1      23.860   0.560  52.062  1.00  0.00    -0.340 N 
HETATM    8  H12 UNL     1      24.211  -0.015  51.235  1.00  0.00     0.167 HD
BRANCH   7   9
HETATM    9  C10 UNL     1      23.909   1.961  51.836  1.00  0.00     0.034 A 
HETATM   10  C11 UNL     1      23.367   2.858  52.731  1.00  0.00     0.030 A 
HETATM   11  C12 UNL     1      23.403   4.213  52.534  1.00  0.00     0.010 A 
HETATM   12  C13 UNL     1      23.998   4.736  51.411  1.00  0.00    -0.052 A 
HETATM   13  C14 UNL     1      24.560   3.900  50.477  1.00  0.00    -0.050 A 
HETATM   14  C18 UNL     1      24.172   6.137  50.961  1.00  0.00     0.039 C 
HETATM   15  C15 UNL     1      24.491   2.547  50.731  1.00  0.00     0.037 A 
HETATM   16  C16 UNL     1      25.133   4.722  49.370  1.00  0.00     0.039 C 
HETATM   17  C17 UNL     1      24.290   5.978  49.458  1.00  0.00     0.009 C 
ENDBRANCH   7   9
ENDBRANCH   6   7
BRANCH   1  18
HETATM   18  C5  UNL     1      25.702   0.016  54.212  1.00  0.00     0.024 C 
HETATM   19  C3  UNL     1      26.748  -0.461  53.587  1.00  0.00    -0.029 C 
HETATM   20  C4  UNL     1      26.704  -1.655  52.694  1.00  0.00     0.048 C 
BRANCH  19  21
HETATM   21  C2  UNL     1      28.137   0.124  53.668  1.00  0.00     0.286 C 
BRANCH  21  22
HETATM   22  O1  UNL     1      28.145   1.280  54.412  1.00  0.00    -0.362 OA
HETATM   23  C1  UNL     1      28.671   2.326  53.668  1.00  0.00     0.205 C 
ENDBRANCH  21  22
BRANCH  21  24
HETATM   24  O2  UNL     1      28.941  -0.867  54.226  1.00  0.00    -0.367 OA
HETATM   25  H5  UNL     1      28.868  -1.724  53.772  1.00  0.00     0.213 HD
ENDBRANCH  21  24
ENDBRANCH  19  21
ENDBRANCH   1  18
TORSDOF 6
ENDMDL
MODEL 5
REMARK VINA RESULT:      -7.2      2.404      5.650
REMARK  6 active torsions:
REMARK  status: ('A' for Active; 'I' for Inactive)
REMARK    1  A    between atoms: O1_2  and  C2_3 
REMARK    2  A    between atoms: C2_3  and  O2_4 
REMARK    3  A    between atoms: C2_3  and  C3_5 
REMARK    4  A    between atoms: C5_7  and  C6_8 
REMARK    5  A    between atoms: C9_13  and  N3_14 
REMARK    6  A    between atoms: N3_14  and  C10_15 
ROOT
HETATM    1  C6  UNL     1      22.262   2.450  51.953  1.00  0.00     0.028 A 
HETATM    2  C7  UNL     1      20.975   2.566  52.423  1.00  0.00     0.133 A 
HETATM    3  N1  UNL     1      20.376   1.509  53.007  1.00  0.00    -0.253 NA
HETATM    4  C8  UNL     1      21.047   0.345  53.128  1.00  0.00     0.234 A 
HETATM    5  N2  UNL     1      22.300   0.247  52.667  1.00  0.00    -0.224 NA
HETATM    6  C9  UNL     1      22.955   1.257  52.074  1.00  0.00     0.141 A 
ENDROOT
BRANCH   6   7
HETATM    7  N3  UNL     1      24.283   1.156  51.587  1.00  0.00    -0.340 N 
HETATM    8  H12 UNL     1      24.393   1.170  50.527  1.00  0.00     0.167 HD
BRANCH   7   9
HETATM    9  C10 UNL     1      25.516   1.039  52.280  1.00  0.00     0.034 A 
HETATM   10  C11 UNL     1      26.068   2.102  52.963  1.00  0.00     0.030 A 
HETATM   11  C12 UNL     1      27.256   2.012  53.639  1.00  0.00     0.010 A 
HETATM   12  C13 UNL     1      27.954   0.828  53.662  1.00  0.00    -0.052 A 
HETATM   13  C14 UNL     1      27.462  -0.273  53.005  1.00  0.00    -0.050 A 
HETATM   14  C18 UNL     1      29.237   0.465  54.305  1.00  0.00     0.039 C 
HETATM   15  C15 UNL     1      26.263  -0.119  52.342  1.00  0.00     0.037 A 
HETATM   16  C16 UNL     1      28.407  -1.414  53.193  1.00  0.00     0.039 C 
HETATM   17  C17 UNL     1      29.714  -0.687  53.442  1.00  0.00     0.009 C 
ENDBRANCH   7   9
ENDBRANCH   6   7
BRANCH   1  18
HETATM   18  C5  UNL     1      22.849   3.644  51.337  1.00  0.00     0.024 C 
HETATM   19  C3  UNL     1      23.436   4.681  51.878  1.00  0.00    -0.029 C 
HETATM   20  C4  UNL     1      23.637   4.846  53.346  1.00  0.00     0.048 C 
BRANCH  19  21
HETATM   21  C2  UNL     1      23.998   5.850  51.104  1.00  0.00     0.286 C 
BRANCH  21  22
HETATM   22  O1  UNL     1      23.071   6.351  50.220  1.00  0.00    -0.362 OA
HETATM   23  C1  UNL     1      22.730   7.650  50.568  1.00  0.00     0.205 C 
ENDBRANCH  21  22
BRANCH  21  24
HETATM   24  O2  UNL     1      24.383   6.792  52.054  1.00  0.00    -0.367 OA
HETATM   25  H5  UNL     1      23.891   7.628  51.991  1.00  0.00     0.213 HD
ENDBRANCH  21  24
ENDBRANCH  19  21
ENDBRANCH   1  18
TORSDOF 6
ENDMDL
MODEL 6
REMARK VINA RESULT:      -7.1      2.939      4.448
REMARK  6 active torsions:
REMARK  status: ('A' for Active; 'I' for Inactive)
REMARK    1  A    between atoms: O1_2  and  C2_3 
REMARK    2  A    between atoms: C2_3  and  O2_4 
REMARK    3  A    between atoms: C2_3  and  C3_5 
REMARK    4  A    between atoms: C5_7  and  C6_8 
REMARK    5  A    between atoms: C9_13  and  N3_14 
REMARK    6  A    between atoms: N3_14  and  C10_15 
ROOT
HETATM    1  C6  UNL     1      26.080   2.856  50.842  1.00  0.00     0.028 A 
HETATM    2  C7  UNL     1      26.796   3.205  49.721  1.00  0.00     0.133 A 
HETATM    3  N1  UNL     1      26.511   4.353  49.073  1.00  0.00    -0.253 NA
HETATM    4  C8  UNL     1      25.524   5.150  49.532  1.00  0.00     0.234 A 
HETATM    5  N2  UNL     1      24.836   4.798  50.625  1.00  0.00    -0.224 NA
HETATM    6  C9  UNL     1      25.066   3.671  51.316  1.00  0.00     0.141 A 
ENDROOT
BRANCH   6   7
HETATM    7  N3  UNL     1      24.340   3.297  52.475  1.00  0.00    -0.340 N 
HETATM    8  H12 UNL     1      24.668   3.732  53.392  1.00  0.00     0.167 HD
BRANCH   7   9
HETATM    9  C10 UNL     1      23.229   2.426  52.630  1.00  0.00     0.034 A 
HETATM   10  C11 UNL     1      21.940   2.844  52.376  1.00  0.00     0.030 A 
HETATM   11  C12 UNL     1      20.853   2.022  52.518  1.00  0.00     0.010 A 
HETATM   12  C13 UNL     1      21.016   0.720  52.926  1.00  0.00    -0.052 A 
HETATM   13  C14 UNL     1      22.273   0.235  53.196  1.00  0.00    -0.050 A 
HETATM   14  C18 UNL     1      20.031  -0.361  53.156  1.00  0.00     0.039 C 
HETATM   15  C15 UNL     1      23.326   1.111  53.035  1.00  0.00     0.037 A 
HETATM   16  C16 UNL     1      22.165  -1.194  53.613  1.00  0.00     0.039 C 
HETATM   17  C17 UNL     1      20.750  -1.244  54.157  1.00  0.00     0.009 C 
ENDBRANCH   7   9
ENDBRANCH   6   7
BRANCH   1  18
HETATM   18  C5  UNL     1      26.452   1.598  51.497  1.00  0.00     0.024 C 
HETATM   19  C3  UNL     1      27.300   1.359  52.465  1.00  0.00    -0.029 C 
HETATM   20  C4  UNL     1      28.105   2.419  53.140  1.00  0.00     0.048 C 
BRANCH  19  21
HETATM   21  C2  UNL     1      27.581  -0.007  53.042  1.00  0.00     0.286 C 
BRANCH  21  22
HETATM   22  O1  UNL     1      27.545   0.018  54.417  1.00  0.00    -0.362 OA
HETATM   23  C1  UNL     1      26.240  -0.123  54.865  1.00  0.00     0.205 C 
ENDBRANCH  21  22
BRANCH  21  24
HETATM   24  O2  UNL     1      26.618  -0.858  52.506  1.00  0.00    -0.367 OA
HETATM   25  H5  UNL     1      26.810  -1.800  52.651  1.00  0.00     0.213 HD
ENDBRANCH  21  24
ENDBRANCH  19  21
ENDBRANCH   1  18
TORSDOF 6
ENDMDL
MODEL 7
REMARK VINA RESULT:      -7.1      1.620      2.387
REMARK  6 active torsions:
REMARK  status: ('A' for Active; 'I' for Inactive)
REMARK    1  A    between atoms: O1_2  and  C2_3 
REMARK    2  A    between atoms: C2_3  and  O2_4 
REMARK    3  A    between atoms: C2_3  and  C3_5 
REMARK    4  A    between atoms: C5_7  and  C6_8 
REMARK    5  A    between atoms: C9_13  and  N3_14 
REMARK    6  A    between atoms: N3_14  and  C10_15 
ROOT
HETATM    1  C6  UNL     1      24.984   1.954  53.336  1.00  0.00     0.028 A 
HETATM    2  C7  UNL     1      26.143   2.089  54.065  1.00  0.00     0.133 A 
HETATM    3  N1  UNL     1      26.878   0.999  54.363  1.00  0.00    -0.253 NA
HETATM    4  C8  UNL     1      26.471  -0.217  53.942  1.00  0.00     0.234 A 
HETATM    5  N2  UNL     1      25.341  -0.332  53.233  1.00  0.00    -0.224 NA
HETATM    6  C9  UNL     1      24.561   0.708  52.903  1.00  0.00     0.141 A 
ENDROOT
BRANCH   6   7
HETATM    7  N3  UNL     1      23.366   0.588  52.150  1.00  0.00    -0.340 N 
HETATM    8  H12 UNL     1      23.423   0.899  51.132  1.00  0.00     0.167 HD
BRANCH   7   9
HETATM    9  C10 UNL     1      22.080   0.115  52.524  1.00  0.00     0.034 A 
HETATM   10  C11 UNL     1      21.908  -0.763  53.573  1.00  0.00     0.030 A 
HETATM   11  C12 UNL     1      20.678  -1.231  53.952  1.00  0.00     0.010 A 
HETATM   12  C13 UNL     1      19.546  -0.830  53.284  1.00  0.00    -0.052 A 
HETATM   13  C14 UNL     1      19.643   0.045  52.230  1.00  0.00    -0.050 A 
HETATM   14  C18 UNL     1      18.120  -1.177  53.484  1.00  0.00     0.039 C 
HETATM   15  C15 UNL     1      20.908   0.480  51.896  1.00  0.00     0.037 A 
HETATM   16  C16 UNL     1      18.276   0.314  51.692  1.00  0.00     0.039 C 
HETATM   17  C17 UNL     1      17.537  -0.944  52.104  1.00  0.00     0.009 C 
ENDBRANCH   7   9
ENDBRANCH   6   7
BRANCH   1  18
HETATM   18  C5  UNL     1      24.241   3.184  53.045  1.00  0.00     0.024 C 
HETATM   19  C3  UNL     1      24.179   3.903  51.953  1.00  0.00    -0.029 C 
HETATM   20  C4  UNL     1      24.909   3.566  50.697  1.00  0.00     0.048 C 
BRANCH  19  21
HETATM   21  C2  UNL     1      23.360   5.163  51.801  1.00  0.00     0.286 C 
BRANCH  21  22
HETATM   22  O1  UNL     1      22.096   4.998  52.318  1.00  0.00    -0.362 OA
HETATM   23  C1  UNL     1      21.235   4.524  51.339  1.00  0.00     0.205 C 
ENDBRANCH  21  22
BRANCH  21  24
HETATM   24  O2  UNL     1      24.070   6.166  52.456  1.00  0.00    -0.367 OA
HETATM   25  H5  UNL     1      24.149   6.985  51.937  1.00  0.00     0.213 HD
ENDBRANCH  21  24
ENDBRANCH  19  21
ENDBRANCH   1  18
TORSDOF 6
ENDMDL
MODEL 8
REMARK VINA RESULT:      -7.1      2.766      4.354
REMARK  6 active torsions:
REMARK  status: ('A' for Active; 'I' for Inactive)
REMARK    1  A    between atoms: O1_2  and  C2_3 
REMARK    2  A    between atoms: C2_3  and  O2_4 
REMARK    3  A    between atoms: C2_3  and  C3_5 
REMARK    4  A    between atoms: C5_7  and  C6_8 
REMARK    5  A    between atoms: C9_13  and  N3_14 
REMARK    6  A    between atoms: N3_14  and  C10_15 
ROOT
HETATM    1  C6  UNL     1      25.786   2.246  51.762  1.00  0.00     0.028 A 
HETATM    2  C7  UNL     1      26.462   2.747  50.674  1.00  0.00     0.133 A 
HETATM    3  N1  UNL     1      25.775   3.297  49.653  1.00  0.00    -0.253 NA
HETATM    4  C8  UNL     1      24.428   3.352  49.707  1.00  0.00     0.234 A 
HETATM    5  N2  UNL     1      23.784   2.862  50.773  1.00  0.00    -0.224 NA
HETATM    6  C9  UNL     1      24.403   2.301  51.823  1.00  0.00     0.141 A 
ENDROOT
BRANCH   6   7
HETATM    7  N3  UNL     1      23.723   1.782  52.953  1.00  0.00    -0.340 N 
HETATM    8  H12 UNL     1      24.186   1.958  53.897  1.00  0.00     0.167 HD
BRANCH   7   9
HETATM    9  C10 UNL     1      22.506   1.056  53.050  1.00  0.00     0.034 A 
HETATM   10  C11 UNL     1      22.400  -0.079  53.825  1.00  0.00     0.030 A 
HETATM   11  C12 UNL     1      21.237  -0.795  53.934  1.00  0.00     0.010 A 
HETATM   12  C13 UNL     1      20.109  -0.393  53.259  1.00  0.00    -0.052 A 
HETATM   13  C14 UNL     1      20.142   0.730  52.470  1.00  0.00    -0.050 A 
HETATM   14  C18 UNL     1      18.747  -0.973  53.204  1.00  0.00     0.039 C 
HETATM   15  C15 UNL     1      21.341   1.407  52.400  1.00  0.00     0.037 A 
HETATM   16  C16 UNL     1      18.794   0.938  51.862  1.00  0.00     0.039 C 
HETATM   17  C17 UNL     1      18.240  -0.472  51.866  1.00  0.00     0.009 C 
ENDBRANCH   7   9
ENDBRANCH   6   7
BRANCH   1  18
HETATM   18  C5  UNL     1      26.600   1.670  52.837  1.00  0.00     0.024 C 
HETATM   19  C3  UNL     1      26.961   0.433  53.063  1.00  0.00    -0.029 C 
HETATM   20  C4  UNL     1      26.581  -0.713  52.188  1.00  0.00     0.048 C 
BRANCH  19  21
HETATM   21  C2  UNL     1      27.813  -0.014  54.227  1.00  0.00     0.286 C 
BRANCH  21  22
HETATM   22  O1  UNL     1      29.099   0.459  54.110  1.00  0.00    -0.362 OA
HETATM   23  C1  UNL     1      29.936  -0.540  53.635  1.00  0.00     0.205 C 
ENDBRANCH  21  22
BRANCH  21  24
HETATM   24  O2  UNL     1      27.180   0.462  55.373  1.00  0.00    -0.367 OA
HETATM   25  H5  UNL     1      27.788   0.884  56.004  1.00  0.00     0.213 HD
ENDBRANCH  21  24
ENDBRANCH  19  21
ENDBRANCH   1  18
TORSDOF 6
ENDMDL
MODEL 9
REMARK VINA RESULT:      -7.0      3.318      5.560
REMARK  6 active torsions:
REMARK  status: ('A' for Active; 'I' for Inactive)
REMARK    1  A    between atoms: O1_2  and  C2_3 
REMARK    2  A    between atoms: C2_3  and  O2_4 
REMARK    3  A    between atoms: C2_3  and  C3_5 
REMARK    4  A    between atoms: C5_7  and  C6_8 
REMARK    5  A    between atoms: C9_13  and  N3_14 
REMARK    6  A    between atoms: N3_14  and  C10_15 
ROOT
HETATM    1  C6  UNL     1      25.675   5.521  49.820  1.00  0.00     0.028 A 
HETATM    2  C7  UNL     1      26.260   6.665  49.330  1.00  0.00     0.133 A 
HETATM    3  N1  UNL     1      27.412   6.584  48.634  1.00  0.00    -0.253 NA
HETATM    4  C8  UNL     1      27.981   5.378  48.423  1.00  0.00     0.234 A 
HETATM    5  N2  UNL     1      27.398   4.274  48.906  1.00  0.00    -0.224 NA
HETATM    6  C9  UNL     1      26.255   4.282  49.607  1.00  0.00     0.141 A 
ENDROOT
BRANCH   6   7
HETATM    7  N3  UNL     1      25.635   3.113  50.117  1.00  0.00    -0.340 N 
HETATM    8  H12 UNL     1      24.908   2.657  49.485  1.00  0.00     0.167 HD
BRANCH   7   9
HETATM    9  C10 UNL     1      25.820   2.430  51.348  1.00  0.00     0.034 A 
HETATM   10  C11 UNL     1      24.955   2.601  52.408  1.00  0.00     0.030 A 
HETATM   11  C12 UNL     1      25.112   1.952  53.604  1.00  0.00     0.010 A 
HETATM   12  C13 UNL     1      26.162   1.085  53.790  1.00  0.00    -0.052 A 
HETATM   13  C14 UNL     1      27.061   0.864  52.776  1.00  0.00    -0.050 A 
HETATM   14  C18 UNL     1      26.557   0.268  54.961  1.00  0.00     0.039 C 
HETATM   15  C15 UNL     1      26.850   1.547  51.597  1.00  0.00     0.037 A 
HETATM   16  C16 UNL     1      28.089  -0.115  53.240  1.00  0.00     0.039 C 
HETATM   17  C17 UNL     1      28.046   0.091  54.741  1.00  0.00     0.009 C 
ENDBRANCH   7   9
ENDBRANCH   6   7
BRANCH   1  18
HETATM   18  C5  UNL     1      24.420   5.688  50.560  1.00  0.00     0.024 C 
HETATM   19  C3  UNL     1      23.177   5.612  50.158  1.00  0.00    -0.029 C 
HETATM   20  C4  UNL     1      22.779   5.306  48.753  1.00  0.00     0.048 C 
BRANCH  19  21
HETATM   21  C2  UNL     1      21.973   5.810  51.048  1.00  0.00     0.286 C 
BRANCH  21  22
HETATM   22  O1  UNL     1      22.066   5.044  52.186  1.00  0.00    -0.362 OA
HETATM   23  C1  UNL     1      21.349   3.867  52.032  1.00  0.00     0.205 C 
ENDBRANCH  21  22
BRANCH  21  24
HETATM   24  O2  UNL     1      21.925   7.173  51.332  1.00  0.00    -0.367 OA
HETATM   25  H5  UNL     1      22.728   7.652  51.064  1.00  0.00     0.213 HD
ENDBRANCH  21  24
ENDBRANCH  19  21
ENDBRANCH   1  18
TORSDOF 6
ENDMDL
