MODEL 1
REMARK VINA RESULT:      -7.4      0.000      0.000
REMARK  7 active torsions:
REMARK  status: ('A' for Active; 'I' for Inactive)
REMARK    1  A    between atoms: C1_2  and  C2_3 
REMARK       I    between atoms: C1_2  and  N2_14 
REMARK    2  A    between atoms: C2_3  and  C3_4 
REMARK    3  A    between atoms: C3_4  and  C4_5 
REMARK    4  A    between atoms: C9_10  and  N1_11 
REMARK    5  A    between atoms: N1_11  and  C10_12 
REMARK    6  A    between atoms: N2_14  and  C11_15 
REMARK    7  A    between atoms: C11_15  and  C12_16 
ROOT
HETATM    1  O1  UNL     1      26.285   2.595  51.176  1.00  0.00    -0.274 OA
HETATM    2  C1  UNL     1      25.754   2.562  52.311  1.00  0.00     0.218 C 
HETATM    3  N2  UNL     1      26.464   2.338  53.503  1.00  0.00    -0.357 N 
HETATM    4  H9  UNL     1      25.970   2.319  54.443  1.00  0.00     0.162 HD
ENDROOT
BRANCH   2   5
HETATM    5  C2  UNL     1      24.279   2.765  52.454  1.00  0.00     0.107 C 
BRANCH   5   6
HETATM    6  C3  UNL     1      23.509   1.615  51.842  1.00  0.00     0.050 C 
BRANCH   6   7
HETATM    7  C4  UNL     1      22.910   0.736  52.891  1.00  0.00    -0.029 A 
HETATM    8  C5  UNL     1      23.668  -0.166  53.610  1.00  0.00     0.009 A 
HETATM    9  C6  UNL     1      23.155  -1.000  54.590  1.00  0.00     0.001 A 
HETATM   10  C7  UNL     1      21.814  -0.939  54.879  1.00  0.00     0.002 A 
HETATM   11  C8  UNL     1      21.011  -0.051  54.187  1.00  0.00     0.032 A 
HETATM   12  C9  UNL     1      21.556   0.778  53.202  1.00  0.00     0.065 A 
BRANCH  12  13
HETATM   13  N1  UNL     1      20.733   1.709  52.475  1.00  0.00    -0.234 NA
BRANCH  13  14
HETATM   14  C10 UNL     1      19.574   1.309  52.117  1.00  0.00     0.163 C 
HETATM   15  S1  UNL     1      18.493   0.392  51.326  1.00  0.00    -0.055 SA
ENDBRANCH  13  14
ENDBRANCH  12  13
ENDBRANCH   6   7
ENDBRANCH   5   6
ENDBRANCH   2   5
BRANCH   3  16
HETATM   16  C11 UNL     1      27.894   2.120  53.570  1.00  0.00     0.161 C 
BRANCH  16  17
HETATM   17  C12 UNL     1      28.216   0.680  53.425  1.00  0.00    -0.041 A 
HETATM   18  C13 UNL     1      27.365  -0.336  53.019  1.00  0.00     0.009 A 
HETATM   19  C14 UNL     1      27.849  -1.622  52.949  1.00  0.00     0.001 A 
HETATM   20  C15 UNL     1      29.147  -1.970  53.262  1.00  0.00     0.000 A 
HETATM   21  C16 UNL     1      30.022  -0.959  53.673  1.00  0.00     0.001 A 
HETATM   22  C17 UNL     1      29.509   0.327  53.735  1.00  0.00     0.009 A 
ENDBRANCH  16  17
ENDBRANCH   3  16
TORSDOF 7
ENDMDL
MODEL 2
REMARK VINA RESULT:      -7.2      1.478      1.852
REMARK  7 active torsions:
REMARK  status: ('A' for Active; 'I' for Inactive)
REMARK    1  A    between atoms: C1_2  and  C2_3 
REMARK       I    between atoms: C1_2  and  N2_14 
REMARK    2  A    between atoms: C2_3  and  C3_4 
REMARK    3  A    between atoms: C3_4  and  C4_5 
REMARK    4  A    between atoms: C9_10  and  N1_11 
REMARK    5  A    between atoms: N1_11  and  C10_12 
REMARK    6  A    between atoms: N2_14  and  C11_15 
REMARK    7  A    between atoms: C11_15  and  C12_16 
ROOT
HETATM    1  O1  UNL     1      24.444   3.368  53.300  1.00  0.00    -0.274 OA
HETATM    2  C1  UNL     1      24.078   2.824  52.232  1.00  0.00     0.218 C 
HETATM    3  N2  UNL     1      24.961   2.418  51.216  1.00  0.00    -0.357 N 
HETATM    4  H9  UNL     1      24.603   1.960  50.327  1.00  0.00     0.162 HD
ENDROOT
BRANCH   2   5
HETATM    5  C2  UNL     1      22.626   2.572  51.979  1.00  0.00     0.107 C 
BRANCH   5   6
HETATM    6  C3  UNL     1      22.368   1.107  51.699  1.00  0.00     0.050 C 
BRANCH   6   7
HETATM    7  C4  UNL     1      22.521   0.279  52.933  1.00  0.00    -0.029 A 
HETATM    8  C5  UNL     1      23.754  -0.147  53.382  1.00  0.00     0.009 A 
HETATM    9  C6  UNL     1      23.942  -0.915  54.518  1.00  0.00     0.001 A 
HETATM   10  C7  UNL     1      22.846  -1.286  55.259  1.00  0.00     0.002 A 
HETATM   11  C8  UNL     1      21.587  -0.885  54.851  1.00  0.00     0.032 A 
HETATM   12  C9  UNL     1      21.427  -0.110  53.699  1.00  0.00     0.065 A 
BRANCH  12  13
HETATM   13  N1  UNL     1      20.123   0.317  53.264  1.00  0.00    -0.234 NA
BRANCH  13  14
HETATM   14  C10 UNL     1      19.213  -0.575  53.182  1.00  0.00     0.163 C 
HETATM   15  S1  UNL     1      17.737  -1.173  52.862  1.00  0.00    -0.055 SA
ENDBRANCH  13  14
ENDBRANCH  12  13
ENDBRANCH   6   7
ENDBRANCH   5   6
ENDBRANCH   2   5
BRANCH   3  16
HETATM   16  C11 UNL     1      26.399   2.576  51.276  1.00  0.00     0.161 C 
BRANCH  16  17
HETATM   17  C12 UNL     1      27.014   1.510  52.102  1.00  0.00    -0.041 A 
HETATM   18  C13 UNL     1      26.831   0.142  51.983  1.00  0.00     0.009 A 
HETATM   19  C14 UNL     1      27.491  -0.696  52.852  1.00  0.00     0.001 A 
HETATM   20  C15 UNL     1      28.335  -0.255  53.850  1.00  0.00     0.000 A 
HETATM   21  C16 UNL     1      28.534   1.123  53.987  1.00  0.00     0.001 A 
HETATM   22  C17 UNL     1      27.858   1.945  53.099  1.00  0.00     0.009 A 
ENDBRANCH  16  17
ENDBRANCH   3  16
TORSDOF 7
ENDMDL
MODEL 3
REMARK VINA RESULT:      -7.1      3.050      6.592
REMARK  7 active torsions:
REMARK  status: ('A' for Active; 'I' for Inactive)
REMARK    1  A    between atoms: C1_2  and  C2_3 
REMARK       I    between atoms: C1_2  and  N2_14 
REMARK    2  A    between atoms: C2_3  and  C3_4 
REMARK    3  A    between atoms: C3_4  and  C4_5 
REMARK    4  A    between atoms: C9_10  and  N1_11 
REMARK    5  A    between atoms: N1_11  and  C10_12 
REMARK    6  A    between atoms: N2_14  and  C11_15 
REMARK    7  A    between atoms: C11_15  and  C12_16 
ROOT
HETATM    1  O1  UNL     1      22.394  -1.082  53.427  1.00  0.00    -0.274 OA
HETATM    2  C1  UNL     1      23.321  -0.239  53.446  1.00  0.00     0.218 C 
HETATM    3  N2  UNL     1      23.200   1.071  52.950  1.00  0.00    -0.357 N 
HETATM    4  H9  UNL     1      24.015   1.751  52.989  1.00  0.00     0.162 HD
ENDROOT
BRANCH   2   5
HETATM    5  C2  UNL     1      24.653  -0.603  54.021  1.00  0.00     0.107 C 
BRANCH   5   6
HETATM    6  C3  UNL     1      25.720  -0.626  52.948  1.00  0.00     0.050 C 
BRANCH   6   7
HETATM    7  C4  UNL     1      26.869   0.262  53.298  1.00  0.00    -0.029 A 
HETATM    8  C5  UNL     1      27.800  -0.088  54.255  1.00  0.00     0.009 A 
HETATM    9  C6  UNL     1      28.879   0.704  54.612  1.00  0.00     0.001 A 
HETATM   10  C7  UNL     1      29.051   1.914  53.985  1.00  0.00     0.002 A 
HETATM   11  C8  UNL     1      28.146   2.311  53.018  1.00  0.00     0.032 A 
HETATM   12  C9  UNL     1      27.065   1.492  52.679  1.00  0.00     0.065 A 
BRANCH  12  13
HETATM   13  N1  UNL     1      26.115   1.890  51.674  1.00  0.00    -0.234 NA
BRANCH  13  14
HETATM   14  C10 UNL     1      26.412   2.906  50.959  1.00  0.00     0.163 C 
HETATM   15  S1  UNL     1      26.636   3.750  49.589  1.00  0.00    -0.055 SA
ENDBRANCH  13  14
ENDBRANCH  12  13
ENDBRANCH   6   7
ENDBRANCH   5   6
ENDBRANCH   2   5
BRANCH   3  16
HETATM   16  C11 UNL     1      21.994   1.609  52.357  1.00  0.00     0.161 C 
BRANCH  16  17
HETATM   17  C12 UNL     1      22.165   1.804  50.897  1.00  0.00    -0.041 A 
HETATM   18  C13 UNL     1      22.922   2.773  50.260  1.00  0.00     0.009 A 
HETATM   19  C14 UNL     1      22.954   2.796  48.885  1.00  0.00     0.001 A 
HETATM   20  C15 UNL     1      22.269   1.902  48.087  1.00  0.00     0.000 A 
HETATM   21  C16 UNL     1      21.499   0.914  48.712  1.00  0.00     0.001 A 
HETATM   22  C17 UNL     1      21.484   0.914  50.097  1.00  0.00     0.009 A 
ENDBRANCH  16  17
ENDBRANCH   3  16
TORSDOF 7
ENDMDL
MODEL 4
REMARK VINA RESULT:      -6.9      3.082      4.744
REMARK  7 active torsions:
REMARK  status: ('A' for Active; 'I' for Inactive)
REMARK    1  A    between atoms: C1_2  and  C2_3 
REMARK       I    between atoms: C1_2  and  N2_14 
REMARK    2  A    between atoms: C2_3  and  C3_4 
REMARK    3  A    between atoms: C3_4  and  C4_5 
REMARK    4  A    between atoms: C9_10  and  N1_11 
REMARK    5  A    between atoms: N1_11  and  C10_12 
REMARK    6  A    between atoms: N2_14  and  C11_15 
REMARK    7  A    between atoms: C11_15  and  C12_16 
ROOT
HETATM    1  O1  UNL     1      23.791   4.456  52.577  1.00  0.00    -0.274 OA
HETATM    2  C1  UNL     1      24.163   3.335  52.158  1.00  0.00     0.218 C 
HETATM    3  N2  UNL     1      24.221   2.987  50.797  1.00  0.00    -0.357 N 
HETATM    4  H9  UNL     1      24.544   2.023  50.489  1.00  0.00     0.162 HD
ENDROOT
BRANCH   2   5
HETATM    5  C2  UNL     1      24.578   2.273  53.125  1.00  0.00     0.107 C 
BRANCH   5   6
HETATM    6  C3  UNL     1      24.421   0.895  52.521  1.00  0.00     0.050 C 
BRANCH   6   7
HETATM    7  C4  UNL     1      23.331   0.123  53.190  1.00  0.00    -0.029 A 
HETATM    8  C5  UNL     1      23.556  -0.626  54.327  1.00  0.00     0.009 A 
HETATM    9  C6  UNL     1      22.577  -1.356  54.980  1.00  0.00     0.001 A 
HETATM   10  C7  UNL     1      21.297  -1.345  54.482  1.00  0.00     0.002 A 
HETATM   11  C8  UNL     1      21.019  -0.608  53.345  1.00  0.00     0.032 A 
HETATM   12  C9  UNL     1      22.028   0.118  52.706  1.00  0.00     0.065 A 
BRANCH  12  13
HETATM   13  N1  UNL     1      21.753   0.891  51.523  1.00  0.00    -0.234 NA
BRANCH  13  14
HETATM   14  C10 UNL     1      20.866   1.805  51.614  1.00  0.00     0.163 C 
HETATM   15  S1  UNL     1      20.282   3.290  51.914  1.00  0.00    -0.055 SA
ENDBRANCH  13  14
ENDBRANCH  12  13
ENDBRANCH   6   7
ENDBRANCH   5   6
ENDBRANCH   2   5
BRANCH   3  16
HETATM   16  C11 UNL     1      23.860   3.876  49.713  1.00  0.00     0.161 C 
BRANCH  16  17
HETATM   17  C12 UNL     1      25.032   4.667  49.265  1.00  0.00    -0.041 A 
HETATM   18  C13 UNL     1      25.045   5.984  48.837  1.00  0.00     0.009 A 
HETATM   19  C14 UNL     1      26.239   6.549  48.454  1.00  0.00     0.001 A 
HETATM   20  C15 UNL     1      27.444   5.876  48.469  1.00  0.00     0.000 A 
HETATM   21  C16 UNL     1      27.453   4.545  48.898  1.00  0.00     0.001 A 
HETATM   22  C17 UNL     1      26.236   4.000  49.278  1.00  0.00     0.009 A 
ENDBRANCH  16  17
ENDBRANCH   3  16
TORSDOF 7
ENDMDL
MODEL 5
REMARK VINA RESULT:      -6.9      2.666      5.947
REMARK  7 active torsions:
REMARK  status: ('A' for Active; 'I' for Inactive)
REMARK    1  A    between atoms: C1_2  and  C2_3 
REMARK       I    between atoms: C1_2  and  N2_14 
REMARK    2  A    between atoms: C2_3  and  C3_4 
REMARK    3  A    between atoms: C3_4  and  C4_5 
REMARK    4  A    between atoms: C9_10  and  N1_11 
REMARK    5  A    between atoms: N1_11  and  C10_12 
REMARK    6  A    between atoms: N2_14  and  C11_15 
REMARK    7  A    between atoms: C11_15  and  C12_16 
ROOT
HETATM    1  O1  UNL     1      26.663   1.888  54.512  1.00  0.00    -0.274 OA
HETATM    2  C1  UNL     1      26.463   1.554  53.320  1.00  0.00     0.218 C 
HETATM    3  N2  UNL     1      25.647   0.476  52.934  1.00  0.00    -0.357 N 
HETATM    4  H9  UNL     1      25.508   0.231  51.910  1.00  0.00     0.162 HD
ENDROOT
BRANCH   2   5
HETATM    5  C2  UNL     1      27.111   2.317  52.209  1.00  0.00     0.107 C 
BRANCH   5   6
HETATM    6  C3  UNL     1      26.385   2.095  50.900  1.00  0.00     0.050 C 
BRANCH   6   7
HETATM    7  C4  UNL     1      26.094   3.386  50.209  1.00  0.00    -0.029 A 
HETATM    8  C5  UNL     1      27.031   4.023  49.421  1.00  0.00     0.009 A 
HETATM    9  C6  UNL     1      26.805   5.220  48.762  1.00  0.00     0.001 A 
HETATM   10  C7  UNL     1      25.578   5.826  48.887  1.00  0.00     0.002 A 
HETATM   11  C8  UNL     1      24.604   5.228  49.666  1.00  0.00     0.032 A 
HETATM   12  C9  UNL     1      24.861   4.020  50.320  1.00  0.00     0.065 A 
BRANCH  12  13
HETATM   13  N1  UNL     1      23.856   3.384  51.132  1.00  0.00    -0.234 NA
BRANCH  13  14
HETATM   14  C10 UNL     1      22.817   4.069  51.419  1.00  0.00     0.163 C 
HETATM   15  S1  UNL     1      21.230   4.377  51.566  1.00  0.00    -0.055 SA
ENDBRANCH  13  14
ENDBRANCH  12  13
ENDBRANCH   6   7
ENDBRANCH   5   6
ENDBRANCH   2   5
BRANCH   3  16
HETATM   16  C11 UNL     1      24.937  -0.380  53.861  1.00  0.00     0.161 C 
BRANCH  16  17
HETATM   17  C12 UNL     1      23.471  -0.266  53.668  1.00  0.00    -0.041 A 
HETATM   18  C13 UNL     1      22.803   0.500  52.727  1.00  0.00     0.009 A 
HETATM   19  C14 UNL     1      21.428   0.479  52.706  1.00  0.00     0.001 A 
HETATM   20  C15 UNL     1      20.659  -0.267  53.576  1.00  0.00     0.000 A 
HETATM   21  C16 UNL     1      21.315  -1.048  54.534  1.00  0.00     0.001 A 
HETATM   22  C17 UNL     1      22.700  -1.008  54.534  1.00  0.00     0.009 A 
ENDBRANCH  16  17
ENDBRANCH   3  16
TORSDOF 7
ENDMDL
MODEL 6
REMARK VINA RESULT:      -6.8      3.889      5.728
REMARK  7 active torsions:
REMARK  status: ('A' for Active; 'I' for Inactive)
REMARK    1  A    between atoms: C1_2  and  C2_3 
REMARK       I    between atoms: C1_2  and  N2_14 
REMARK    2  A    between atoms: C2_3  and  C3_4 
REMARK    3  A    between atoms: C3_4  and  C4_5 
REMARK    4  A    between atoms: C9_10  and  N1_11 
REMARK    5  A    between atoms: N1_11  and  C10_12 
REMARK    6  A    between atoms: N2_14  and  C11_15 
REMARK    7  A    between atoms: C11_15  and  C12_16 
ROOT
HETATM    1  O1  UNL     1      23.433   5.272  52.185  1.00  0.00    -0.274 OA
HETATM    2  C1  UNL     1      23.892   4.183  51.767  1.00  0.00     0.218 C 
HETATM    3  N2  UNL     1      24.219   3.934  50.422  1.00  0.00    -0.357 N 
HETATM    4  H9  UNL     1      24.606   2.993  50.116  1.00  0.00     0.162 HD
ENDROOT
BRANCH   2   5
HETATM    5  C2  UNL     1      24.121   3.052  52.718  1.00  0.00     0.107 C 
BRANCH   5   6
HETATM    6  C3  UNL     1      23.788   1.723  52.075  1.00  0.00     0.050 C 
BRANCH   6   7
HETATM    7  C4  UNL     1      23.011   0.845  53.001  1.00  0.00    -0.029 A 
HETATM    8  C5  UNL     1      21.685   1.086  53.298  1.00  0.00     0.009 A 
HETATM    9  C6  UNL     1      20.927   0.300  54.149  1.00  0.00     0.001 A 
HETATM   10  C7  UNL     1      21.512  -0.792  54.743  1.00  0.00     0.002 A 
HETATM   11  C8  UNL     1      22.839  -1.076  54.477  1.00  0.00     0.032 A 
HETATM   12  C9  UNL     1      23.580  -0.265  53.614  1.00  0.00     0.065 A 
BRANCH  12  13
HETATM   13  N1  UNL     1      24.961  -0.550  53.327  1.00  0.00    -0.234 NA
BRANCH  13  14
HETATM   14  C10 UNL     1      25.838  -0.032  54.097  1.00  0.00     0.163 C 
HETATM   15  S1  UNL     1      27.312   0.184  54.744  1.00  0.00    -0.055 SA
ENDBRANCH  13  14
ENDBRANCH  12  13
ENDBRANCH   6   7
ENDBRANCH   5   6
ENDBRANCH   2   5
BRANCH   3  16
HETATM   16  C11 UNL     1      24.068   4.900  49.355  1.00  0.00     0.161 C 
BRANCH  16  17
HETATM   17  C12 UNL     1      25.386   5.438  48.939  1.00  0.00    -0.041 A 
HETATM   18  C13 UNL     1      25.662   6.704  48.451  1.00  0.00     0.009 A 
HETATM   19  C14 UNL     1      26.957   7.020  48.111  1.00  0.00     0.001 A 
HETATM   20  C15 UNL     1      28.015   6.142  48.227  1.00  0.00     0.000 A 
HETATM   21  C16 UNL     1      27.758   4.857  48.718  1.00  0.00     0.001 A 
HETATM   22  C17 UNL     1      26.445   4.565  49.053  1.00  0.00     0.009 A 
ENDBRANCH  16  17
ENDBRANCH   3  16
TORSDOF 7
ENDMDL
MODEL 7
REMARK VINA RESULT:      -6.8      1.477      2.423
REMARK  7 active torsions:
REMARK  status: ('A' for Active; 'I' for Inactive)
REMARK    1  A    between atoms: C1_2  and  C2_3 
REMARK       I    between atoms: C1_2  and  N2_14 
REMARK    2  A    between atoms: C2_3  and  C3_4 
REMARK    3  A    between atoms: C3_4  and  C4_5 
REMARK    4  A    between atoms: C9_10  and  N1_11 
REMARK    5  A    between atoms: N1_11  and  C10_12 
REMARK    6  A    between atoms: N2_14  and  C11_15 
REMARK    7  A    between atoms: C11_15  and  C12_16 
ROOT
HETATM    1  O1  UNL     1      25.928   2.914  51.470  1.00  0.00    -0.274 OA
HETATM    2  C1  UNL     1      25.541   2.685  52.639  1.00  0.00     0.218 C 
HETATM    3  N2  UNL     1      26.399   2.321  53.692  1.00  0.00    -0.357 N 
HETATM    4  H9  UNL     1      26.023   2.136  54.668  1.00  0.00     0.162 HD
ENDROOT
BRANCH   2   5
HETATM    5  C2  UNL     1      24.089   2.791  52.982  1.00  0.00     0.107 C 
BRANCH   5   6
HETATM    6  C3  UNL     1      23.434   1.427  53.003  1.00  0.00     0.050 C 
BRANCH   6   7
HETATM    7  C4  UNL     1      22.378   1.310  51.953  1.00  0.00    -0.029 A 
HETATM    8  C5  UNL     1      22.669   1.408  50.608  1.00  0.00     0.009 A 
HETATM    9  C6  UNL     1      21.723   1.307  49.601  1.00  0.00     0.001 A 
HETATM   10  C7  UNL     1      20.410   1.092  49.943  1.00  0.00     0.002 A 
HETATM   11  C8  UNL     1      20.066   0.985  51.278  1.00  0.00     0.032 A 
HETATM   12  C9  UNL     1      21.042   1.093  52.272  1.00  0.00     0.065 A 
BRANCH  12  13
HETATM   13  N1  UNL     1      20.700   0.982  53.666  1.00  0.00    -0.234 NA
BRANCH  13  14
HETATM   14  C10 UNL     1      20.887  -0.151  54.226  1.00  0.00     0.163 C 
HETATM   15  S1  UNL     1      21.477  -1.655  54.383  1.00  0.00    -0.055 SA
ENDBRANCH  13  14
ENDBRANCH  12  13
ENDBRANCH   6   7
ENDBRANCH   5   6
ENDBRANCH   2   5
BRANCH   3  16
HETATM   16  C11 UNL     1      27.832   2.166  53.559  1.00  0.00     0.161 C 
BRANCH  16  17
HETATM   17  C12 UNL     1      28.198   0.736  53.419  1.00  0.00    -0.041 A 
HETATM   18  C13 UNL     1      27.390  -0.301  52.982  1.00  0.00     0.009 A 
HETATM   19  C14 UNL     1      27.912  -1.572  52.923  1.00  0.00     0.001 A 
HETATM   20  C15 UNL     1      29.208  -1.886  53.277  1.00  0.00     0.000 A 
HETATM   21  C16 UNL     1      30.041  -0.852  53.721  1.00  0.00     0.001 A 
HETATM   22  C17 UNL     1      29.490   0.419  53.770  1.00  0.00     0.009 A 
ENDBRANCH  16  17
ENDBRANCH   3  16
TORSDOF 7
ENDMDL
MODEL 8
REMARK VINA RESULT:      -6.7      2.841      5.048
REMARK  7 active torsions:
REMARK  status: ('A' for Active; 'I' for Inactive)
REMARK    1  A    between atoms: C1_2  and  C2_3 
REMARK       I    between atoms: C1_2  and  N2_14 
REMARK    2  A    between atoms: C2_3  and  C3_4 
REMARK    3  A    between atoms: C3_4  and  C4_5 
REMARK    4  A    between atoms: C9_10  and  N1_11 
REMARK    5  A    between atoms: N1_11  and  C10_12 
REMARK    6  A    between atoms: N2_14  and  C11_15 
REMARK    7  A    between atoms: C11_15  and  C12_16 
ROOT
HETATM    1  O1  UNL     1      27.913   2.139  52.352  1.00  0.00    -0.274 OA
HETATM    2  C1  UNL     1      26.668   2.105  52.211  1.00  0.00     0.218 C 
HETATM    3  N2  UNL     1      25.987   2.674  51.120  1.00  0.00    -0.357 N 
HETATM    4  H9  UNL     1      24.929   2.620  51.044  1.00  0.00     0.162 HD
ENDROOT
BRANCH   2   5
HETATM    5  C2  UNL     1      25.815   1.431  53.238  1.00  0.00     0.107 C 
BRANCH   5   6
HETATM    6  C3  UNL     1      25.147   0.199  52.667  1.00  0.00     0.050 C 
BRANCH   6   7
HETATM    7  C4  UNL     1      23.760   0.033  53.196  1.00  0.00    -0.029 A 
HETATM    8  C5  UNL     1      23.492  -0.707  54.330  1.00  0.00     0.009 A 
HETATM    9  C6  UNL     1      22.223  -0.888  54.854  1.00  0.00     0.001 A 
HETATM   10  C7  UNL     1      21.153  -0.302  54.223  1.00  0.00     0.002 A 
HETATM   11  C8  UNL     1      21.369   0.450  53.082  1.00  0.00     0.032 A 
HETATM   12  C9  UNL     1      22.660   0.615  52.575  1.00  0.00     0.065 A 
BRANCH  12  13
HETATM   13  N1  UNL     1      22.901   1.396  51.390  1.00  0.00    -0.234 NA
BRANCH  13  14
HETATM   14  C10 UNL     1      22.165   1.159  50.374  1.00  0.00     0.163 C 
HETATM   15  S1  UNL     1      21.342   1.504  49.017  1.00  0.00    -0.055 SA
ENDBRANCH  13  14
ENDBRANCH  12  13
ENDBRANCH   6   7
ENDBRANCH   5   6
ENDBRANCH   2   5
BRANCH   3  16
HETATM   16  C11 UNL     1      26.635   3.368  50.027  1.00  0.00     0.161 C 
BRANCH  16  17
HETATM   17  C12 UNL     1      25.725   4.371  49.425  1.00  0.00    -0.041 A 
HETATM   18  C13 UNL     1      26.043   5.653  49.008  1.00  0.00     0.009 A 
HETATM   19  C14 UNL     1      25.054   6.445  48.472  1.00  0.00     0.001 A 
HETATM   20  C15 UNL     1      23.744   6.037  48.322  1.00  0.00     0.000 A 
HETATM   21  C16 UNL     1      23.402   4.745  48.736  1.00  0.00     0.001 A 
HETATM   22  C17 UNL     1      24.417   3.969  49.272  1.00  0.00     0.009 A 
ENDBRANCH  16  17
ENDBRANCH   3  16
TORSDOF 7
ENDMDL
MODEL 9
REMARK VINA RESULT:      -6.5      4.666      6.315
REMARK  7 active torsions:
REMARK  status: ('A' for Active; 'I' for Inactive)
REMARK    1  A    between atoms: C1_2  and  C2_3 
REMARK       I    between atoms: C1_2  and  N2_14 
REMARK    2  A    between atoms: C2_3  and  C3_4 
REMARK    3  A    between atoms: C3_4  and  C4_5 
REMARK    4  A    between atoms: C9_10  and  N1_11 
REMARK    5  A    between atoms: N1_11  and  C10_12 
REMARK    6  A    between atoms: N2_14  and  C11_15 
REMARK    7  A    between atoms: C11_15  and  C12_16 
ROOT
HETATM    1  O1  UNL     1      24.086   4.122  49.158  1.00  0.00    -0.274 OA
HETATM    2  C1  UNL     1      24.777   4.456  50.149  1.00  0.00     0.218 C 
HETATM    3  N2  UNL     1      25.661   5.549  50.156  1.00  0.00    -0.357 N 
HETATM    4  H9  UNL     1      26.227   5.793  51.022  1.00  0.00     0.162 HD
ENDROOT
BRANCH   2   5
HETATM    5  C2  UNL     1      24.690   3.674  51.421  1.00  0.00     0.107 C 
BRANCH   5   6
HETATM    6  C3  UNL     1      25.241   2.276  51.239  1.00  0.00     0.050 C 
BRANCH   6   7
HETATM    7  C4  UNL     1      24.553   1.295  52.133  1.00  0.00    -0.029 A 
HETATM    8  C5  UNL     1      23.186   1.312  52.323  1.00  0.00     0.009 A 
HETATM    9  C6  UNL     1      22.508   0.424  53.141  1.00  0.00     0.001 A 
HETATM   10  C7  UNL     1      23.221  -0.541  53.811  1.00  0.00     0.002 A 
HETATM   11  C8  UNL     1      24.594  -0.600  53.653  1.00  0.00     0.032 A 
HETATM   12  C9  UNL     1      25.252   0.310  52.822  1.00  0.00     0.065 A 
BRANCH  12  13
HETATM   13  N1  UNL     1      26.680   0.260  52.646  1.00  0.00    -0.234 NA
BRANCH  13  14
HETATM   14  C10 UNL     1      27.398   0.235  53.701  1.00  0.00     0.163 C 
HETATM   15  S1  UNL     1      28.756   0.063  54.575  1.00  0.00    -0.055 SA
ENDBRANCH  13  14
ENDBRANCH  12  13
ENDBRANCH   6   7
ENDBRANCH   5   6
ENDBRANCH   2   5
BRANCH   3  16
HETATM   16  C11 UNL     1      25.884   6.423  49.024  1.00  0.00     0.161 C 
BRANCH  16  17
HETATM   17  C12 UNL     1      27.284   6.323  48.547  1.00  0.00    -0.041 A 
HETATM   18  C13 UNL     1      28.098   5.202  48.553  1.00  0.00     0.009 A 
HETATM   19  C14 UNL     1      29.381   5.307  48.068  1.00  0.00     0.001 A 
HETATM   20  C15 UNL     1      29.918   6.476  47.568  1.00  0.00     0.000 A 
HETATM   21  C16 UNL     1      29.112   7.620  47.553  1.00  0.00     0.001 A 
HETATM   22  C17 UNL     1      27.824   7.487  48.047  1.00  0.00     0.009 A 
ENDBRANCH  16  17
ENDBRANCH   3  16
TORSDOF 7
ENDMDL
