MODEL 1
REMARK VINA RESULT:      -7.5      0.000      0.000
REMARK  9 active torsions:
REMARK  status: ('A' for Active; 'I' for Inactive)
REMARK    1  A    between atoms: C3_3  and  O1_4 
REMARK    2  A    between atoms: C3_3  and  C4_5 
REMARK    3  A    between atoms: C4_5  and  C6_7 
REMARK    4  A    between atoms: C6_7  and  S1_8 
REMARK    5  A    between atoms: S1_8  and  C7_10 
REMARK    6  A    between atoms: C10_13  and  C11_14 
REMARK       I    between atoms: C11_14  and  N1_16 
REMARK    7  A    between atoms: N1_16  and  C12_17 
REMARK    8  A    between atoms: C12_17  and  C13_18 
REMARK    9  A    between atoms: C13_18  and  C14_19 
ROOT
HETATM    1  C7  UNL     1      23.664  -0.060  53.529  1.00  0.00     0.031 A 
HETATM    2  C8  UNL     1      22.815  -0.749  54.410  1.00  0.00     0.022 A 
HETATM    3  C9  UNL     1      21.428  -0.822  54.241  1.00  0.00     0.018 A 
HETATM    4  C10 UNL     1      20.841  -0.193  53.164  1.00  0.00     0.032 A 
HETATM    5  C16 UNL     1      21.661   0.491  52.287  1.00  0.00     0.018 A 
HETATM    6  C17 UNL     1      23.012   0.544  52.478  1.00  0.00     0.022 A 
ENDROOT
BRANCH   1   7
HETATM    7  S1  UNL     1      25.307  -0.168  54.038  1.00  0.00     0.050 S 
HETATM    8  O2  UNL     1      25.546  -1.199  55.079  1.00  0.00    -0.253 OA
BRANCH   7   9
HETATM    9  C6  UNL     1      26.240   1.289  54.201  1.00  0.00     0.125 C 
BRANCH   9  10
HETATM   10  C4  UNL     1      27.079   1.645  53.014  1.00  0.00     0.050 C 
HETATM   11  C5  UNL     1      26.746   0.640  51.924  1.00  0.00     0.018 C 
BRANCH  10  12
HETATM   12  C3  UNL     1      28.532   1.653  53.259  1.00  0.00     0.043 C 
HETATM   13  C2  UNL     1      29.397   0.685  53.592  1.00  0.00     0.001 C 
HETATM   14  C1  UNL     1      29.595  -0.759  53.905  1.00  0.00     0.038 C 
BRANCH  12  15
HETATM   15  O1  UNL     1      28.949   2.958  53.076  1.00  0.00    -0.365 OA
HETATM   16  H5  UNL     1      29.922   3.110  52.845  1.00  0.00     0.217 HD
ENDBRANCH  12  15
ENDBRANCH  10  12
ENDBRANCH   9  10
ENDBRANCH   7   9
ENDBRANCH   1   7
BRANCH   4  17
HETATM   17  C11 UNL     1      19.423  -0.157  52.825  1.00  0.00     0.251 C 
HETATM   18  O3  UNL     1      18.869   0.763  52.131  1.00  0.00    -0.268 OA
HETATM   19  N1  UNL     1      18.490  -1.152  53.232  1.00  0.00    -0.357 N 
HETATM   20  H14 UNL     1      18.904  -1.942  53.814  1.00  0.00     0.162 HD
BRANCH  19  21
HETATM   21  C12 UNL     1      17.083  -1.148  52.916  1.00  0.00     0.123 C 
BRANCH  21  22
HETATM   22  C13 UNL     1      16.455  -2.518  52.901  1.00  0.00     0.019 C 
BRANCH  22  23
HETATM   23  C14 UNL     1      17.363  -3.520  53.617  1.00  0.00    -0.003 C 
HETATM   24  C15 UNL     1      16.664  -4.855  53.613  1.00  0.00     0.005 C 
ENDBRANCH  22  23
ENDBRANCH  21  22
ENDBRANCH  19  21
ENDBRANCH   4  17
TORSDOF 9
ENDMDL
MODEL 2
REMARK VINA RESULT:      -7.1      1.582      2.540
REMARK  9 active torsions:
REMARK  status: ('A' for Active; 'I' for Inactive)
REMARK    1  A    between atoms: C3_3  and  O1_4 
REMARK    2  A    between atoms: C3_3  and  C4_5 
REMARK    3  A    between atoms: C4_5  and  C6_7 
REMARK    4  A    between atoms: C6_7  and  S1_8 
REMARK    5  A    between atoms: S1_8  and  C7_10 
REMARK    6  A    between atoms: C10_13  and  C11_14 
REMARK       I    between atoms: C11_14  and  N1_16 
REMARK    7  A    between atoms: N1_16  and  C12_17 
REMARK    8  A    between atoms: C12_17  and  C13_18 
REMARK    9  A    between atoms: C13_18  and  C14_19 
ROOT
HETATM    1  C7  UNL     1      23.824  -0.481  54.156  1.00  0.00     0.031 A 
HETATM    2  C8  UNL     1      23.238   0.067  53.004  1.00  0.00     0.022 A 
HETATM    3  C9  UNL     1      21.887  -0.090  52.678  1.00  0.00     0.018 A 
HETATM    4  C10 UNL     1      21.067  -0.817  53.516  1.00  0.00     0.032 A 
HETATM    5  C16 UNL     1      21.625  -1.364  54.655  1.00  0.00     0.018 A 
HETATM    6  C17 UNL     1      22.949  -1.192  54.946  1.00  0.00     0.022 A 
ENDROOT
BRANCH   1   7
HETATM    7  S1  UNL     1      25.501  -0.099  54.242  1.00  0.00     0.050 S 
HETATM    8  O2  UNL     1      26.207  -0.745  55.377  1.00  0.00    -0.253 OA
BRANCH   7   9
HETATM    9  C6  UNL     1      26.023   1.514  53.860  1.00  0.00     0.125 C 
BRANCH   9  10
HETATM   10  C4  UNL     1      27.025   1.615  52.753  1.00  0.00     0.050 C 
HETATM   11  C5  UNL     1      26.783   0.430  51.833  1.00  0.00     0.018 C 
BRANCH  10  12
HETATM   12  C3  UNL     1      28.433   1.631  53.188  1.00  0.00     0.043 C 
HETATM   13  C2  UNL     1      29.260   0.662  53.604  1.00  0.00     0.001 C 
HETATM   14  C1  UNL     1      29.436  -0.789  53.898  1.00  0.00     0.038 C 
BRANCH  12  15
HETATM   15  O1  UNL     1      28.851   2.945  53.100  1.00  0.00    -0.365 OA
HETATM   16  H5  UNL     1      28.402   3.619  53.706  1.00  0.00     0.217 HD
ENDBRANCH  12  15
ENDBRANCH  10  12
ENDBRANCH   9  10
ENDBRANCH   7   9
ENDBRANCH   1   7
BRANCH   4  17
HETATM   17  C11 UNL     1      19.644  -1.088  53.346  1.00  0.00     0.251 C 
HETATM   18  O3  UNL     1      19.019  -2.051  53.911  1.00  0.00    -0.268 OA
HETATM   19  N1  UNL     1      18.785  -0.304  52.525  1.00  0.00    -0.357 N 
HETATM   20  H14 UNL     1      19.260   0.512  52.032  1.00  0.00     0.162 HD
BRANCH  19  21
HETATM   21  C12 UNL     1      17.376  -0.544  52.334  1.00  0.00     0.123 C 
BRANCH  21  22
HETATM   22  C13 UNL     1      16.824   0.040  51.059  1.00  0.00     0.019 C 
BRANCH  22  23
HETATM   23  C14 UNL     1      17.959   0.613  50.208  1.00  0.00    -0.003 C 
HETATM   24  C15 UNL     1      17.386   1.726  49.369  1.00  0.00     0.005 C 
ENDBRANCH  22  23
ENDBRANCH  21  22
ENDBRANCH  19  21
ENDBRANCH   4  17
TORSDOF 9
ENDMDL
MODEL 3
REMARK VINA RESULT:      -7.0      3.348      8.418
REMARK  9 active torsions:
REMARK  status: ('A' for Active; 'I' for Inactive)
REMARK    1  A    between atoms: C3_3  and  O1_4 
REMARK    2  A    between atoms: C3_3  and  C4_5 
REMARK    3  A    between atoms: C4_5  and  C6_7 
REMARK    4  A    between atoms: C6_7  and  S1_8 
REMARK    5  A    between atoms: S1_8  and  C7_10 
REMARK    6  A    between atoms: C10_13  and  C11_14 
REMARK       I    between atoms: C11_14  and  N1_16 
REMARK    7  A    between atoms: N1_16  and  C12_17 
REMARK    8  A    between atoms: C12_17  and  C13_18 
REMARK    9  A    between atoms: C13_18  and  C14_19 
ROOT
HETATM    1  C7  UNL     1      22.212   2.562  51.592  1.00  0.00     0.031 A 
HETATM    2  C8  UNL     1      22.786   3.436  52.528  1.00  0.00     0.022 A 
HETATM    3  C9  UNL     1      24.152   3.450  52.833  1.00  0.00     0.018 A 
HETATM    4  C10 UNL     1      24.998   2.567  52.194  1.00  0.00     0.032 A 
HETATM    5  C16 UNL     1      24.450   1.698  51.270  1.00  0.00     0.018 A 
HETATM    6  C17 UNL     1      23.113   1.710  50.995  1.00  0.00     0.022 A 
ENDROOT
BRANCH   1   7
HETATM    7  S1  UNL     1      20.512   2.812  51.470  1.00  0.00     0.050 S 
HETATM    8  O2  UNL     1      20.116   4.242  51.438  1.00  0.00    -0.253 OA
BRANCH   7   9
HETATM    9  C6  UNL     1      19.437   1.759  52.341  1.00  0.00     0.125 C 
BRANCH   9  10
HETATM   10  C4  UNL     1      19.676   0.296  52.139  1.00  0.00     0.050 C 
HETATM   11  C5  UNL     1      18.392  -0.284  51.569  1.00  0.00     0.018 C 
BRANCH  10  12
HETATM   12  C3  UNL     1      20.063  -0.445  53.353  1.00  0.00     0.043 C 
HETATM   13  C2  UNL     1      21.245  -0.638  53.954  1.00  0.00     0.001 C 
HETATM   14  C1  UNL     1      22.712  -0.371  53.941  1.00  0.00     0.038 C 
BRANCH  12  15
HETATM   15  O1  UNL     1      18.899  -0.989  53.863  1.00  0.00    -0.365 OA
HETATM   16  H5  UNL     1      18.165  -1.218  53.207  1.00  0.00     0.217 HD
ENDBRANCH  12  15
ENDBRANCH  10  12
ENDBRANCH   9  10
ENDBRANCH   7   9
ENDBRANCH   1   7
BRANCH   4  17
HETATM   17  C11 UNL     1      26.438   2.432  52.378  1.00  0.00     0.251 C 
HETATM   18  O3  UNL     1      27.283   2.335  51.421  1.00  0.00    -0.268 OA
HETATM   19  N1  UNL     1      27.071   2.394  53.652  1.00  0.00    -0.357 N 
HETATM   20  H14 UNL     1      26.408   2.473  54.483  1.00  0.00     0.162 HD
BRANCH  19  21
HETATM   21  C12 UNL     1      28.490   2.261  53.869  1.00  0.00     0.123 C 
BRANCH  21  22
HETATM   22  C13 UNL     1      28.878   1.020  54.630  1.00  0.00     0.019 C 
BRANCH  22  23
HETATM   23  C14 UNL     1      28.635  -0.222  53.770  1.00  0.00    -0.003 C 
HETATM   24  C15 UNL     1      29.971  -0.872  53.515  1.00  0.00     0.005 C 
ENDBRANCH  22  23
ENDBRANCH  21  22
ENDBRANCH  19  21
ENDBRANCH   4  17
TORSDOF 9
ENDMDL
MODEL 4
REMARK VINA RESULT:      -6.9      2.681      8.989
REMARK  9 active torsions:
REMARK  status: ('A' for Active; 'I' for Inactive)
REMARK    1  A    between atoms: C3_3  and  O1_4 
REMARK    2  A    between atoms: C3_3  and  C4_5 
REMARK    3  A    between atoms: C4_5  and  C6_7 
REMARK    4  A    between atoms: C6_7  and  S1_8 
REMARK    5  A    between atoms: S1_8  and  C7_10 
REMARK    6  A    between atoms: C10_13  and  C11_14 
REMARK       I    between atoms: C11_14  and  N1_16 
REMARK    7  A    between atoms: N1_16  and  C12_17 
REMARK    8  A    between atoms: C12_17  and  C13_18 
REMARK    9  A    between atoms: C13_18  and  C14_19 
ROOT
HETATM    1  C7  UNL     1      21.758   0.190  52.335  1.00  0.00     0.031 A 
HETATM    2  C8  UNL     1      21.922  -0.655  53.444  1.00  0.00     0.022 A 
HETATM    3  C9  UNL     1      23.137  -0.813  54.118  1.00  0.00     0.018 A 
HETATM    4  C10 UNL     1      24.247  -0.115  53.691  1.00  0.00     0.032 A 
HETATM    5  C16 UNL     1      24.105   0.722  52.600  1.00  0.00     0.018 A 
HETATM    6  C17 UNL     1      22.905   0.855  51.963  1.00  0.00     0.022 A 
ENDROOT
BRANCH   1   7
HETATM    7  S1  UNL     1      20.139   0.140  51.749  1.00  0.00     0.050 S 
HETATM    8  O2  UNL     1      19.874   1.088  50.637  1.00  0.00    -0.253 OA
BRANCH   7   9
HETATM    9  C6  UNL     1      18.836  -0.068  52.880  1.00  0.00     0.125 C 
BRANCH   9  10
HETATM   10  C4  UNL     1      17.883  -1.175  52.557  1.00  0.00     0.050 C 
HETATM   11  C5  UNL     1      16.486  -0.578  52.601  1.00  0.00     0.018 C 
BRANCH  10  12
HETATM   12  C3  UNL     1      17.956  -2.342  53.455  1.00  0.00     0.043 C 
HETATM   13  C2  UNL     1      17.227  -3.462  53.540  1.00  0.00     0.001 C 
HETATM   14  C1  UNL     1      16.087  -4.256  52.996  1.00  0.00     0.038 C 
BRANCH  12  15
HETATM   15  O1  UNL     1      19.015  -2.105  54.312  1.00  0.00    -0.365 OA
HETATM   16  H5  UNL     1      19.034  -1.217  54.795  1.00  0.00     0.217 HD
ENDBRANCH  12  15
ENDBRANCH  10  12
ENDBRANCH   9  10
ENDBRANCH   7   9
ENDBRANCH   1   7
BRANCH   4  17
HETATM   17  C11 UNL     1      25.588  -0.150  54.261  1.00  0.00     0.251 C 
HETATM   18  O3  UNL     1      25.948  -0.922  55.216  1.00  0.00    -0.268 OA
HETATM   19  N1  UNL     1      26.656   0.679  53.815  1.00  0.00    -0.357 N 
HETATM   20  H14 UNL     1      26.406   1.341  53.019  1.00  0.00     0.162 HD
BRANCH  19  21
HETATM   21  C12 UNL     1      27.992   0.671  54.356  1.00  0.00     0.123 C 
BRANCH  21  22
HETATM   22  C13 UNL     1      29.060   0.339  53.345  1.00  0.00     0.019 C 
BRANCH  22  23
HETATM   23  C14 UNL     1      29.802  -0.932  53.762  1.00  0.00    -0.003 C 
HETATM   24  C15 UNL     1      29.054  -2.108  53.189  1.00  0.00     0.005 C 
ENDBRANCH  22  23
ENDBRANCH  21  22
ENDBRANCH  19  21
ENDBRANCH   4  17
TORSDOF 9
ENDMDL
MODEL 5
REMARK VINA RESULT:      -6.8      1.734      2.708
REMARK  9 active torsions:
REMARK  status: ('A' for Active; 'I' for Inactive)
REMARK    1  A    between atoms: C3_3  and  O1_4 
REMARK    2  A    between atoms: C3_3  and  C4_5 
REMARK    3  A    between atoms: C4_5  and  C6_7 
REMARK    4  A    between atoms: C6_7  and  S1_8 
REMARK    5  A    between atoms: S1_8  and  C7_10 
REMARK    6  A    between atoms: C10_13  and  C11_14 
REMARK       I    between atoms: C11_14  and  N1_16 
REMARK    7  A    between atoms: N1_16  and  C12_17 
REMARK    8  A    between atoms: C12_17  and  C13_18 
REMARK    9  A    between atoms: C13_18  and  C14_19 
ROOT
HETATM    1  C7  UNL     1      23.937   0.877  52.292  1.00  0.00     0.031 A 
HETATM    2  C8  UNL     1      23.329   1.730  51.358  1.00  0.00     0.022 A 
HETATM    3  C9  UNL     1      21.948   1.767  51.133  1.00  0.00     0.018 A 
HETATM    4  C10 UNL     1      21.121   0.931  51.853  1.00  0.00     0.032 A 
HETATM    5  C16 UNL     1      21.701   0.084  52.778  1.00  0.00     0.018 A 
HETATM    6  C17 UNL     1      23.052   0.072  52.974  1.00  0.00     0.022 A 
ENDROOT
BRANCH   1   7
HETATM    7  S1  UNL     1      25.646   1.087  52.306  1.00  0.00     0.050 S 
HETATM    8  O2  UNL     1      26.093   2.404  51.786  1.00  0.00    -0.253 OA
BRANCH   7   9
HETATM    9  C6  UNL     1      26.667  -0.260  51.903  1.00  0.00     0.125 C 
BRANCH   9  10
HETATM   10  C4  UNL     1      26.861  -1.263  52.997  1.00  0.00     0.050 C 
HETATM   11  C5  UNL     1      26.546  -0.552  54.303  1.00  0.00     0.018 C 
BRANCH  10  12
HETATM   12  C3  UNL     1      28.208  -1.859  53.064  1.00  0.00     0.043 C 
HETATM   13  C2  UNL     1      29.414  -1.336  53.317  1.00  0.00     0.001 C 
HETATM   14  C1  UNL     1      30.203  -0.112  53.641  1.00  0.00     0.038 C 
BRANCH  12  15
HETATM   15  O1  UNL     1      28.048  -3.207  52.801  1.00  0.00    -0.365 OA
HETATM   16  H5  UNL     1      27.599  -3.771  53.511  1.00  0.00     0.217 HD
ENDBRANCH  12  15
ENDBRANCH  10  12
ENDBRANCH   9  10
ENDBRANCH   7   9
ENDBRANCH   1   7
BRANCH   4  17
HETATM   17  C11 UNL     1      19.669   0.826  51.760  1.00  0.00     0.251 C 
HETATM   18  O3  UNL     1      18.881   1.823  51.606  1.00  0.00    -0.268 OA
HETATM   19  N1  UNL     1      18.961  -0.407  51.828  1.00  0.00    -0.357 N 
HETATM   20  H14 UNL     1      19.575  -1.268  51.956  1.00  0.00     0.162 HD
BRANCH  19  21
HETATM   21  C12 UNL     1      17.529  -0.546  51.740  1.00  0.00     0.123 C 
BRANCH  21  22
HETATM   22  C13 UNL     1      16.910  -1.257  52.916  1.00  0.00     0.019 C 
BRANCH  22  23
HETATM   23  C14 UNL     1      17.908  -2.249  53.516  1.00  0.00    -0.003 C 
HETATM   24  C15 UNL     1      17.229  -3.593  53.591  1.00  0.00     0.005 C 
ENDBRANCH  22  23
ENDBRANCH  21  22
ENDBRANCH  19  21
ENDBRANCH   4  17
TORSDOF 9
ENDMDL
MODEL 6
REMARK VINA RESULT:      -6.8      4.172      7.565
REMARK  9 active torsions:
REMARK  status: ('A' for Active; 'I' for Inactive)
REMARK    1  A    between atoms: C3_3  and  O1_4 
REMARK    2  A    between atoms: C3_3  and  C4_5 
REMARK    3  A    between atoms: C4_5  and  C6_7 
REMARK    4  A    between atoms: C6_7  and  S1_8 
REMARK    5  A    between atoms: S1_8  and  C7_10 
REMARK    6  A    between atoms: C10_13  and  C11_14 
REMARK       I    between atoms: C11_14  and  N1_16 
REMARK    7  A    between atoms: N1_16  and  C12_17 
REMARK    8  A    between atoms: C12_17  and  C13_18 
REMARK    9  A    between atoms: C13_18  and  C14_19 
ROOT
HETATM    1  C7  UNL     1      22.823   2.694  52.493  1.00  0.00     0.031 A 
HETATM    2  C8  UNL     1      22.307   1.402  52.686  1.00  0.00     0.022 A 
HETATM    3  C9  UNL     1      23.099   0.300  53.025  1.00  0.00     0.018 A 
HETATM    4  C10 UNL     1      24.459   0.464  53.182  1.00  0.00     0.032 A 
HETATM    5  C16 UNL     1      24.985   1.728  52.997  1.00  0.00     0.018 A 
HETATM    6  C17 UNL     1      24.185   2.784  52.667  1.00  0.00     0.022 A 
ENDROOT
BRANCH   1   7
HETATM    7  S1  UNL     1      21.574   3.806  52.081  1.00  0.00     0.050 S 
HETATM    8  O2  UNL     1      20.211   3.218  52.114  1.00  0.00    -0.253 OA
BRANCH   7   9
HETATM    9  C6  UNL     1      21.857   4.966  50.818  1.00  0.00     0.125 C 
BRANCH   9  10
HETATM   10  C4  UNL     1      22.529   6.231  51.252  1.00  0.00     0.050 C 
HETATM   11  C5  UNL     1      21.962   7.347  50.391  1.00  0.00     0.018 C 
BRANCH  10  12
HETATM   12  C3  UNL     1      24.000   6.221  51.152  1.00  0.00     0.043 C 
HETATM   13  C2  UNL     1      24.842   5.617  50.304  1.00  0.00     0.001 C 
HETATM   14  C1  UNL     1      24.996   4.726  49.117  1.00  0.00     0.038 C 
BRANCH  12  15
HETATM   15  O1  UNL     1      24.464   7.020  52.180  1.00  0.00    -0.365 OA
HETATM   16  H5  UNL     1      24.354   8.021  52.078  1.00  0.00     0.217 HD
ENDBRANCH  12  15
ENDBRANCH  10  12
ENDBRANCH   9  10
ENDBRANCH   7   9
ENDBRANCH   1   7
BRANCH   4  17
HETATM   17  C11 UNL     1      25.439  -0.558  53.531  1.00  0.00     0.251 C 
HETATM   18  O3  UNL     1      25.431  -1.225  54.623  1.00  0.00    -0.268 OA
HETATM   19  N1  UNL     1      26.524  -0.930  52.687  1.00  0.00    -0.357 N 
HETATM   20  H14 UNL     1      26.574  -0.402  51.764  1.00  0.00     0.162 HD
BRANCH  19  21
HETATM   21  C12 UNL     1      27.510  -1.934  53.000  1.00  0.00     0.123 C 
BRANCH  21  22
HETATM   22  C13 UNL     1      28.909  -1.392  53.147  1.00  0.00     0.019 C 
BRANCH  22  23
HETATM   23  C14 UNL     1      28.863   0.102  53.472  1.00  0.00    -0.003 C 
HETATM   24  C15 UNL     1      28.762   0.242  54.970  1.00  0.00     0.005 C 
ENDBRANCH  22  23
ENDBRANCH  21  22
ENDBRANCH  19  21
ENDBRANCH   4  17
TORSDOF 9
ENDMDL
MODEL 7
REMARK VINA RESULT:      -6.8      4.904      7.784
REMARK  9 active torsions:
REMARK  status: ('A' for Active; 'I' for Inactive)
REMARK    1  A    between atoms: C3_3  and  O1_4 
REMARK    2  A    between atoms: C3_3  and  C4_5 
REMARK    3  A    between atoms: C4_5  and  C6_7 
REMARK    4  A    between atoms: C6_7  and  S1_8 
REMARK    5  A    between atoms: S1_8  and  C7_10 
REMARK    6  A    between atoms: C10_13  and  C11_14 
REMARK       I    between atoms: C11_14  and  N1_16 
REMARK    7  A    between atoms: N1_16  and  C12_17 
REMARK    8  A    between atoms: C12_17  and  C13_18 
REMARK    9  A    between atoms: C13_18  and  C14_19 
ROOT
HETATM    1  C7  UNL     1      24.129   1.632  52.215  1.00  0.00     0.031 A 
HETATM    2  C8  UNL     1      23.405   2.735  52.694  1.00  0.00     0.022 A 
HETATM    3  C9  UNL     1      23.509   4.020  52.149  1.00  0.00     0.018 A 
HETATM    4  C10 UNL     1      24.361   4.239  51.087  1.00  0.00     0.032 A 
HETATM    5  C16 UNL     1      25.083   3.165  50.602  1.00  0.00     0.018 A 
HETATM    6  C17 UNL     1      24.958   1.923  51.156  1.00  0.00     0.022 A 
ENDROOT
BRANCH   1   7
HETATM    7  S1  UNL     1      23.765   0.211  53.117  1.00  0.00     0.050 S 
HETATM    8  O2  UNL     1      22.507   0.302  53.899  1.00  0.00    -0.253 OA
BRANCH   7   9
HETATM    9  C6  UNL     1      25.060  -0.659  53.885  1.00  0.00     0.125 C 
BRANCH   9  10
HETATM   10  C4  UNL     1      26.410  -0.464  53.271  1.00  0.00     0.050 C 
HETATM   11  C5  UNL     1      26.810  -1.797  52.659  1.00  0.00     0.018 C 
BRANCH  10  12
HETATM   12  C3  UNL     1      27.458  -0.007  54.202  1.00  0.00     0.043 C 
HETATM   13  C2  UNL     1      28.784  -0.191  54.228  1.00  0.00     0.001 C 
HETATM   14  C1  UNL     1      29.974  -0.808  53.573  1.00  0.00     0.038 C 
BRANCH  12  15
HETATM   15  O1  UNL     1      26.815   0.736  55.174  1.00  0.00    -0.365 OA
HETATM   16  H5  UNL     1      25.856   1.006  54.996  1.00  0.00     0.217 HD
ENDBRANCH  12  15
ENDBRANCH  10  12
ENDBRANCH   9  10
ENDBRANCH   7   9
ENDBRANCH   1   7
BRANCH   4  17
HETATM   17  C11 UNL     1      24.602   5.498  50.392  1.00  0.00     0.251 C 
HETATM   18  O3  UNL     1      23.695   6.189  49.811  1.00  0.00    -0.268 OA
HETATM   19  N1  UNL     1      25.885   6.104  50.281  1.00  0.00    -0.357 N 
HETATM   20  H14 UNL     1      26.676   5.566  50.750  1.00  0.00     0.162 HD
BRANCH  19  21
HETATM   21  C12 UNL     1      26.159   7.346  49.601  1.00  0.00     0.123 C 
BRANCH  21  22
HETATM   22  C13 UNL     1      26.863   7.177  48.279  1.00  0.00     0.019 C 
BRANCH  22  23
HETATM   23  C14 UNL     1      27.694   5.892  48.286  1.00  0.00    -0.003 C 
HETATM   24  C15 UNL     1      29.141   6.282  48.130  1.00  0.00     0.005 C 
ENDBRANCH  22  23
ENDBRANCH  21  22
ENDBRANCH  19  21
ENDBRANCH   4  17
TORSDOF 9
ENDMDL
MODEL 8
REMARK VINA RESULT:      -6.7      5.508      9.079
REMARK  9 active torsions:
REMARK  status: ('A' for Active; 'I' for Inactive)
REMARK    1  A    between atoms: C3_3  and  O1_4 
REMARK    2  A    between atoms: C3_3  and  C4_5 
REMARK    3  A    between atoms: C4_5  and  C6_7 
REMARK    4  A    between atoms: C6_7  and  S1_8 
REMARK    5  A    between atoms: S1_8  and  C7_10 
REMARK    6  A    between atoms: C10_13  and  C11_14 
REMARK       I    between atoms: C11_14  and  N1_16 
REMARK    7  A    between atoms: N1_16  and  C12_17 
REMARK    8  A    between atoms: C12_17  and  C13_18 
REMARK    9  A    between atoms: C13_18  and  C14_19 
ROOT
HETATM    1  C7  UNL     1      25.081   2.717  51.015  1.00  0.00     0.031 A 
HETATM    2  C8  UNL     1      24.275   3.864  51.090  1.00  0.00     0.022 A 
HETATM    3  C9  UNL     1      24.598   5.074  50.466  1.00  0.00     0.018 A 
HETATM    4  C10 UNL     1      25.764   5.171  49.736  1.00  0.00     0.032 A 
HETATM    5  C16 UNL     1      26.571   4.053  49.651  1.00  0.00     0.018 A 
HETATM    6  C17 UNL     1      26.227   2.885  50.271  1.00  0.00     0.022 A 
ENDROOT
BRANCH   1   7
HETATM    7  S1  UNL     1      24.389   1.412  51.900  1.00  0.00     0.050 S 
HETATM    8  O2  UNL     1      22.920   1.525  52.086  1.00  0.00    -0.253 OA
BRANCH   7   9
HETATM    9  C6  UNL     1      25.263   0.745  53.247  1.00  0.00     0.125 C 
BRANCH   9  10
HETATM   10  C4  UNL     1      26.658   0.297  52.942  1.00  0.00     0.050 C 
HETATM   11  C5  UNL     1      26.552  -1.109  52.375  1.00  0.00     0.018 C 
BRANCH  10  12
HETATM   12  C3  UNL     1      27.579   0.304  54.093  1.00  0.00     0.043 C 
HETATM   13  C2  UNL     1      28.823  -0.166  54.255  1.00  0.00     0.001 C 
HETATM   14  C1  UNL     1      29.984  -0.870  53.637  1.00  0.00     0.038 C 
BRANCH  12  15
HETATM   15  O1  UNL     1      26.911   0.942  55.121  1.00  0.00    -0.365 OA
HETATM   16  H5  UNL     1      26.098   0.479  55.506  1.00  0.00     0.217 HD
ENDBRANCH  12  15
ENDBRANCH  10  12
ENDBRANCH   9  10
ENDBRANCH   7   9
ENDBRANCH   1   7
BRANCH   4  17
HETATM   17  C11 UNL     1      26.266   6.339  49.021  1.00  0.00     0.251 C 
HETATM   18  O3  UNL     1      25.740   6.817  47.957  1.00  0.00    -0.268 OA
HETATM   19  N1  UNL     1      27.407   7.084  49.432  1.00  0.00    -0.357 N 
HETATM   20  H14 UNL     1      27.881   6.725  50.316  1.00  0.00     0.162 HD
BRANCH  19  21
HETATM   21  C12 UNL     1      27.930   8.241  48.750  1.00  0.00     0.123 C 
BRANCH  21  22
HETATM   22  C13 UNL     1      29.375   8.109  48.340  1.00  0.00     0.019 C 
BRANCH  22  23
HETATM   23  C14 UNL     1      29.523   7.009  47.286  1.00  0.00    -0.003 C 
HETATM   24  C15 UNL     1      30.187   5.829  47.946  1.00  0.00     0.005 C 
ENDBRANCH  22  23
ENDBRANCH  21  22
ENDBRANCH  19  21
ENDBRANCH   4  17
TORSDOF 9
ENDMDL
MODEL 9
REMARK VINA RESULT:      -6.6      3.694      7.990
REMARK  9 active torsions:
REMARK  status: ('A' for Active; 'I' for Inactive)
REMARK    1  A    between atoms: C3_3  and  O1_4 
REMARK    2  A    between atoms: C3_3  and  C4_5 
REMARK    3  A    between atoms: C4_5  and  C6_7 
REMARK    4  A    between atoms: C6_7  and  S1_8 
REMARK    5  A    between atoms: S1_8  and  C7_10 
REMARK    6  A    between atoms: C10_13  and  C11_14 
REMARK       I    between atoms: C11_14  and  N1_16 
REMARK    7  A    between atoms: N1_16  and  C12_17 
REMARK    8  A    between atoms: C12_17  and  C13_18 
REMARK    9  A    between atoms: C13_18  and  C14_19 
ROOT
HETATM    1  C7  UNL     1      21.645   0.527  52.301  1.00  0.00     0.031 A 
HETATM    2  C8  UNL     1      22.693   1.449  52.145  1.00  0.00     0.022 A 
HETATM    3  C9  UNL     1      23.960   1.277  52.711  1.00  0.00     0.018 A 
HETATM    4  C10 UNL     1      24.219   0.153  53.467  1.00  0.00     0.032 A 
HETATM    5  C16 UNL     1      23.200  -0.766  53.632  1.00  0.00     0.018 A 
HETATM    6  C17 UNL     1      21.973  -0.569  53.066  1.00  0.00     0.022 A 
ENDROOT
BRANCH   1   7
HETATM    7  S1  UNL     1      20.226   1.054  51.478  1.00  0.00     0.050 S 
HETATM    8  O2  UNL     1      18.963   0.581  52.097  1.00  0.00    -0.253 OA
BRANCH   7   9
HETATM    9  C6  UNL     1      20.229   1.116  49.741  1.00  0.00     0.125 C 
BRANCH   9  10
HETATM   10  C4  UNL     1      20.784   2.373  49.149  1.00  0.00     0.050 C 
HETATM   11  C5  UNL     1      19.800   2.827  48.083  1.00  0.00     0.018 C 
BRANCH  10  12
HETATM   12  C3  UNL     1      22.131   2.244  48.563  1.00  0.00     0.043 C 
HETATM   13  C2  UNL     1      23.261   2.941  48.739  1.00  0.00     0.001 C 
HETATM   14  C1  UNL     1      23.936   4.074  49.436  1.00  0.00     0.038 C 
BRANCH  12  15
HETATM   15  O1  UNL     1      22.075   1.169  47.696  1.00  0.00    -0.365 OA
HETATM   16  H5  UNL     1      21.177   0.722  47.564  1.00  0.00     0.217 HD
ENDBRANCH  12  15
ENDBRANCH  10  12
ENDBRANCH   9  10
ENDBRANCH   7   9
ENDBRANCH   1   7
BRANCH   4  17
HETATM   17  C11 UNL     1      25.468  -0.198  54.132  1.00  0.00     0.251 C 
HETATM   18  O3  UNL     1      25.606  -1.183  54.938  1.00  0.00    -0.268 OA
HETATM   19  N1  UNL     1      26.683   0.522  53.958  1.00  0.00    -0.357 N 
HETATM   20  H14 UNL     1      26.620   1.353  53.295  1.00  0.00     0.162 HD
BRANCH  19  21
HETATM   21  C12 UNL     1      27.934   0.203  54.600  1.00  0.00     0.123 C 
BRANCH  21  22
HETATM   22  C13 UNL     1      29.145   0.748  53.886  1.00  0.00     0.019 C 
BRANCH  22  23
HETATM   23  C14 UNL     1      30.109  -0.390  53.543  1.00  0.00    -0.003 C 
HETATM   24  C15 UNL     1      29.293  -1.644  53.367  1.00  0.00     0.005 C 
ENDBRANCH  22  23
ENDBRANCH  21  22
ENDBRANCH  19  21
ENDBRANCH   4  17
TORSDOF 9
ENDMDL
