MODEL 1
REMARK VINA RESULT:      -8.6      0.000      0.000
REMARK  0 active torsions:
REMARK  status: ('A' for Active; 'I' for Inactive)
ROOT
HETATM    1 CL1  UNL     1      18.209  -0.704  52.087  1.00  0.00    -0.088 Cl
HETATM    2  C1  UNL     1      19.817  -0.405  52.774  1.00  0.00     0.022 A 
HETATM    3  C2  UNL     1      20.372  -1.058  53.779  1.00  0.00     0.044 A 
HETATM    4  C3  UNL     1      21.669  -0.427  53.940  1.00  0.00     0.038 A 
HETATM    5 CL2  UNL     1      22.704  -1.075  55.227  1.00  0.00    -0.084 Cl
HETATM    6  C4  UNL     1      21.854   0.569  53.047  1.00  0.00    -0.047 A 
HETATM    7  C5  UNL     1      23.164   1.345  53.053  1.00  0.00     0.056 C 
HETATM    8  C6  UNL     1      23.606   1.485  51.629  1.00  0.00     0.121 C 
HETATM    9  N1  UNL     1      24.788   2.336  51.446  1.00  0.00    -0.388 N 
HETATM   10  C7  UNL     1      24.774   2.863  50.063  1.00  0.00     0.187 C 
HETATM   11  C8  UNL     1      24.129   3.529  49.074  1.00  0.00     0.034 C 
HETATM   12  C9  UNL     1      22.886   4.216  48.661  1.00  0.00     0.017 C 
HETATM   13  C10 UNL     1      21.707   4.406  49.215  1.00  0.00     0.088 C 
HETATM   14  N2  UNL     1      21.188   3.984  50.458  1.00  0.00    -0.360 N 
HETATM   15  C11 UNL     1      20.205   2.988  50.687  1.00  0.00     0.130 A 
HETATM   16  C12 UNL     1      19.307   2.072  50.786  1.00  0.00     0.024 C 
HETATM   17  C13 UNL     1      19.821   1.902  52.217  1.00  0.00     0.013 C 
HETATM   18  C14 UNL     1      20.282   3.190  52.710  1.00  0.00     0.041 C 
HETATM   19  C15 UNL     1      20.938   3.807  51.829  1.00  0.00     0.113 A 
HETATM   20  C16 UNL     1      22.016   4.653  51.898  1.00  0.00    -0.100 C 
HETATM   21  C17 UNL     1      22.937   5.350  51.948  1.00  0.00     0.312 A 
HETATM   22  N3  UNL     1      24.027   6.151  51.991  1.00  0.00     0.140 N 
HETATM   23  C18 UNL     1      24.369   4.913  51.250  1.00  0.00     0.396 A 
HETATM   24  N4  UNL     1      23.852   3.755  50.744  1.00  0.00    -0.251 NA
HETATM   25  C19 UNL     1      20.685   0.719  52.192  1.00  0.00     0.066 A 
HETATM   26  H6  UNL     1      25.614   2.626  52.060  1.00  0.00     0.156 HD
HETATM   27  H14 UNL     1      23.262   6.609  52.476  1.00  0.00     0.321 HD
ENDROOT
TORSDOF 0
ENDMDL
MODEL 2
REMARK VINA RESULT:      -8.5      1.946      2.651
REMARK  0 active torsions:
REMARK  status: ('A' for Active; 'I' for Inactive)
ROOT
HETATM    1 CL1  UNL     1      22.293  -1.633  53.172  1.00  0.00    -0.088 Cl
HETATM    2  C1  UNL     1      23.722  -0.609  53.403  1.00  0.00     0.022 A 
HETATM    3  C2  UNL     1      24.734  -0.850  54.217  1.00  0.00     0.044 A 
HETATM    4  C3  UNL     1      25.621   0.283  54.027  1.00  0.00     0.038 A 
HETATM    5 CL2  UNL     1      27.116   0.279  54.984  1.00  0.00    -0.084 Cl
HETATM    6  C4  UNL     1      25.127   1.157  53.125  1.00  0.00    -0.047 A 
HETATM    7  C5  UNL     1      25.924   2.409  52.784  1.00  0.00     0.056 C 
HETATM    8  C6  UNL     1      25.897   2.564  51.294  1.00  0.00     0.121 C 
HETATM    9  N1  UNL     1      26.504   3.807  50.806  1.00  0.00    -0.388 N 
HETATM   10  C7  UNL     1      25.922   4.122  49.482  1.00  0.00     0.187 C 
HETATM   11  C8  UNL     1      24.830   4.339  48.708  1.00  0.00     0.034 C 
HETATM   12  C9  UNL     1      23.354   4.387  48.651  1.00  0.00     0.017 C 
HETATM   13  C10 UNL     1      22.386   4.122  49.503  1.00  0.00     0.088 C 
HETATM   14  N2  UNL     1      22.426   3.661  50.837  1.00  0.00    -0.360 N 
HETATM   15  C11 UNL     1      22.065   2.376  51.314  1.00  0.00     0.130 A 
HETATM   16  C12 UNL     1      21.712   1.184  51.645  1.00  0.00     0.024 C 
HETATM   17  C13 UNL     1      22.583   1.407  52.883  1.00  0.00     0.013 C 
HETATM   18  C14 UNL     1      22.540   2.815  53.244  1.00  0.00     0.041 C 
HETATM   19  C15 UNL     1      22.623   3.549  52.222  1.00  0.00     0.113 A 
HETATM   20  C16 UNL     1      23.204   4.772  52.005  1.00  0.00    -0.100 C 
HETATM   21  C17 UNL     1      23.709   5.794  51.810  1.00  0.00     0.312 A 
HETATM   22  N3  UNL     1      24.314   6.979  51.564  1.00  0.00     0.140 N 
HETATM   23  C18 UNL     1      24.968   5.928  50.750  1.00  0.00     0.396 A 
HETATM   24  N4  UNL     1      24.903   4.611  50.393  1.00  0.00    -0.251 NA
HETATM   25  C19 UNL     1      23.841   0.704  52.617  1.00  0.00     0.066 A 
HETATM   26  H6  UNL     1      27.243   4.486  51.178  1.00  0.00     0.156 HD
HETATM   27  H14 UNL     1      23.570   7.123  52.240  1.00  0.00     0.321 HD
ENDROOT
TORSDOF 0
ENDMDL
MODEL 3
REMARK VINA RESULT:      -8.0      1.858      2.798
REMARK  0 active torsions:
REMARK  status: ('A' for Active; 'I' for Inactive)
ROOT
HETATM    1 CL1  UNL     1      21.621  -1.996  54.030  1.00  0.00    -0.088 Cl
HETATM    2  C1  UNL     1      22.725  -0.688  53.566  1.00  0.00     0.022 A 
HETATM    3  C2  UNL     1      23.940  -0.483  54.043  1.00  0.00     0.044 A 
HETATM    4  C3  UNL     1      24.403   0.701  53.342  1.00  0.00     0.038 A 
HETATM    5 CL2  UNL     1      26.036   1.264  53.745  1.00  0.00    -0.084 Cl
HETATM    6  C4  UNL     1      23.472   1.167  52.481  1.00  0.00    -0.047 A 
HETATM    7  C5  UNL     1      23.780   2.401  51.645  1.00  0.00     0.056 C 
HETATM    8  C6  UNL     1      23.325   2.116  50.246  1.00  0.00     0.121 C 
HETATM    9  N1  UNL     1      23.421   3.263  49.335  1.00  0.00    -0.388 N 
HETATM   10  C7  UNL     1      22.452   3.067  48.234  1.00  0.00     0.187 C 
HETATM   11  C8  UNL     1      21.181   2.835  47.824  1.00  0.00     0.034 C 
HETATM   12  C9  UNL     1      19.785   2.573  48.235  1.00  0.00     0.017 C 
HETATM   13  C10 UNL     1      19.182   2.375  49.389  1.00  0.00     0.088 C 
HETATM   14  N2  UNL     1      19.691   2.332  50.705  1.00  0.00    -0.360 N 
HETATM   15  C11 UNL     1      19.832   1.191  51.535  1.00  0.00     0.130 A 
HETATM   16  C12 UNL     1      19.917   0.097  52.207  1.00  0.00     0.024 C 
HETATM   17  C13 UNL     1      20.984   0.830  53.023  1.00  0.00     0.013 C 
HETATM   18  C14 UNL     1      20.653   2.246  53.070  1.00  0.00     0.041 C 
HETATM   19  C15 UNL     1      20.264   2.660  51.944  1.00  0.00     0.113 A 
HETATM   20  C16 UNL     1      20.411   3.860  51.297  1.00  0.00    -0.100 C 
HETATM   21  C17 UNL     1      20.549   4.862  50.737  1.00  0.00     0.312 A 
HETATM   22  N3  UNL     1      20.721   6.023  50.063  1.00  0.00     0.140 N 
HETATM   23  C18 UNL     1      21.404   4.934  49.326  1.00  0.00     0.396 A 
HETATM   24  N4  UNL     1      21.611   3.584  49.298  1.00  0.00    -0.251 NA
HETATM   25  C19 UNL     1      22.272   0.343  52.523  1.00  0.00     0.066 A 
HETATM   26  H6  UNL     1      24.016   4.151  49.297  1.00  0.00     0.156 HD
HETATM   27  H14 UNL     1      20.169   6.204  50.896  1.00  0.00     0.321 HD
ENDROOT
TORSDOF 0
ENDMDL
MODEL 4
REMARK VINA RESULT:      -7.9      2.756      4.916
REMARK  0 active torsions:
REMARK  status: ('A' for Active; 'I' for Inactive)
ROOT
HETATM    1 CL1  UNL     1      25.857   0.812  53.080  1.00  0.00    -0.088 Cl
HETATM    2  C1  UNL     1      25.741   1.939  51.717  1.00  0.00     0.022 A 
HETATM    3  C2  UNL     1      26.750   2.520  51.092  1.00  0.00     0.044 A 
HETATM    4  C3  UNL     1      26.116   3.333  50.070  1.00  0.00     0.038 A 
HETATM    5 CL2  UNL     1      27.203   4.263  49.022  1.00  0.00    -0.084 Cl
HETATM    6  C4  UNL     1      24.771   3.223  50.109  1.00  0.00    -0.047 A 
HETATM    7  C5  UNL     1      23.930   3.997  49.103  1.00  0.00     0.056 C 
HETATM    8  C6  UNL     1      22.881   3.061  48.585  1.00  0.00     0.121 C 
HETATM    9  N1  UNL     1      21.891   3.693  47.704  1.00  0.00    -0.388 N 
HETATM   10  C7  UNL     1      20.652   2.885  47.740  1.00  0.00     0.187 C 
HETATM   11  C8  UNL     1      19.659   2.301  48.455  1.00  0.00     0.034 C 
HETATM   12  C9  UNL     1      19.107   2.031  49.800  1.00  0.00     0.017 C 
HETATM   13  C10 UNL     1      19.512   2.268  51.030  1.00  0.00     0.088 C 
HETATM   14  N2  UNL     1      20.684   2.885  51.518  1.00  0.00    -0.360 N 
HETATM   15  C11 UNL     1      21.777   2.260  52.170  1.00  0.00     0.130 A 
HETATM   16  C12 UNL     1      22.714   1.600  52.753  1.00  0.00     0.024 C 
HETATM   17  C13 UNL     1      23.613   2.773  52.356  1.00  0.00     0.013 C 
HETATM   18  C14 UNL     1      22.824   3.995  52.360  1.00  0.00     0.041 C 
HETATM   19  C15 UNL     1      21.693   3.808  51.837  1.00  0.00     0.113 A 
HETATM   20  C16 UNL     1      20.878   4.610  51.080  1.00  0.00    -0.100 C 
HETATM   21  C17 UNL     1      20.195   5.273  50.423  1.00  0.00     0.312 A 
HETATM   22  N3  UNL     1      19.397   6.033  49.637  1.00  0.00     0.140 N 
HETATM   23  C18 UNL     1      19.850   4.852  48.864  1.00  0.00     0.396 A 
HETATM   24  N4  UNL     1      20.540   3.677  48.952  1.00  0.00    -0.251 NA
HETATM   25  C19 UNL     1      24.357   2.324  51.176  1.00  0.00     0.066 A 
HETATM   26  H6  UNL     1      21.883   4.555  47.071  1.00  0.00     0.156 HD
HETATM   27  H14 UNL     1      19.475   6.471  50.550  1.00  0.00     0.321 HD
ENDROOT
TORSDOF 0
ENDMDL
MODEL 5
REMARK VINA RESULT:      -7.8      1.829      4.019
REMARK  0 active torsions:
REMARK  status: ('A' for Active; 'I' for Inactive)
ROOT
HETATM    1 CL1  UNL     1      17.835  -0.702  52.263  1.00  0.00    -0.088 Cl
HETATM    2  C1  UNL     1      18.048   0.944  51.637  1.00  0.00     0.022 A 
HETATM    3  C2  UNL     1      17.101   1.725  51.149  1.00  0.00     0.044 A 
HETATM    4  C3  UNL     1      17.798   2.944  50.782  1.00  0.00     0.038 A 
HETATM    5 CL2  UNL     1      16.804   4.237  50.086  1.00  0.00    -0.084 Cl
HETATM    6  C4  UNL     1      19.119   2.863  51.052  1.00  0.00    -0.047 A 
HETATM    7  C5  UNL     1      20.017   4.053  50.744  1.00  0.00     0.056 C 
HETATM    8  C6  UNL     1      20.919   4.248  51.924  1.00  0.00     0.121 C 
HETATM    9  N1  UNL     1      21.951   5.274  51.731  1.00  0.00    -0.388 N 
HETATM   10  C7  UNL     1      23.078   4.980  52.645  1.00  0.00     0.187 C 
HETATM   11  C8  UNL     1      24.012   4.112  53.105  1.00  0.00     0.034 C 
HETATM   12  C9  UNL     1      24.570   2.745  53.018  1.00  0.00     0.017 C 
HETATM   13  C10 UNL     1      24.241   1.652  52.362  1.00  0.00     0.088 C 
HETATM   14  N2  UNL     1      23.175   1.389  51.475  1.00  0.00    -0.360 N 
HETATM   15  C11 UNL     1      22.034   0.583  51.718  1.00  0.00     0.130 A 
HETATM   16  C12 UNL     1      21.040  -0.170  52.037  1.00  0.00     0.024 C 
HETATM   17  C13 UNL     1      20.285   0.579  50.935  1.00  0.00     0.013 C 
HETATM   18  C14 UNL     1      21.224   0.948  49.887  1.00  0.00     0.041 C 
HETATM   19  C15 UNL     1      22.304   1.379  50.374  1.00  0.00     0.113 A 
HETATM   20  C16 UNL     1      23.188   2.342  49.959  1.00  0.00    -0.100 C 
HETATM   21  C17 UNL     1      23.927   3.167  49.627  1.00  0.00     0.312 A 
HETATM   22  N3  UNL     1      24.788   4.143  49.259  1.00  0.00     0.140 N 
HETATM   23  C18 UNL     1      24.163   4.515  50.551  1.00  0.00     0.396 A 
HETATM   24  N4  UNL     1      23.331   4.073  51.539  1.00  0.00    -0.251 NA
HETATM   25  C19 UNL     1      19.451   1.567  51.624  1.00  0.00     0.066 A 
HETATM   26  H6  UNL     1      22.049   6.143  51.115  1.00  0.00     0.156 HD
HETATM   27  H14 UNL     1      24.798   3.413  48.555  1.00  0.00     0.321 HD
ENDROOT
TORSDOF 0
ENDMDL
MODEL 6
REMARK VINA RESULT:      -7.8      4.670      6.551
REMARK  0 active torsions:
REMARK  status: ('A' for Active; 'I' for Inactive)
ROOT
HETATM    1 CL1  UNL     1      21.251   4.828  47.252  1.00  0.00    -0.088 Cl
HETATM    2  C1  UNL     1      22.628   4.491  48.317  1.00  0.00     0.022 A 
HETATM    3  C2  UNL     1      22.729   3.492  49.175  1.00  0.00     0.044 A 
HETATM    4  C3  UNL     1      24.034   3.674  49.783  1.00  0.00     0.038 A 
HETATM    5 CL2  UNL     1      24.505   2.477  51.005  1.00  0.00    -0.084 Cl
HETATM    6  C4  UNL     1      24.668   4.757  49.286  1.00  0.00    -0.047 A 
HETATM    7  C5  UNL     1      26.059   5.107  49.797  1.00  0.00     0.056 C 
HETATM    8  C6  UNL     1      26.900   5.446  48.604  1.00  0.00     0.121 C 
HETATM    9  N1  UNL     1      28.240   5.946  48.934  1.00  0.00    -0.388 N 
HETATM   10  C7  UNL     1      28.725   6.764  47.800  1.00  0.00     0.187 C 
HETATM   11  C8  UNL     1      28.539   7.798  46.943  1.00  0.00     0.034 C 
HETATM   12  C9  UNL     1      27.637   8.886  46.504  1.00  0.00     0.017 C 
HETATM   13  C10 UNL     1      26.420   9.265  46.831  1.00  0.00     0.088 C 
HETATM   14  N2  UNL     1      25.498   8.729  47.754  1.00  0.00    -0.360 N 
HETATM   15  C11 UNL     1      24.300   8.027  47.465  1.00  0.00     0.130 A 
HETATM   16  C12 UNL     1      23.235   7.405  47.097  1.00  0.00     0.024 C 
HETATM   17  C13 UNL     1      23.282   6.766  48.487  1.00  0.00     0.013 C 
HETATM   18  C14 UNL     1      23.852   7.718  49.427  1.00  0.00     0.041 C 
HETATM   19  C15 UNL     1      24.845   8.314  48.926  1.00  0.00     0.113 A 
HETATM   20  C16 UNL     1      26.015   8.779  49.468  1.00  0.00    -0.100 C 
HETATM   21  C17 UNL     1      27.014   9.156  49.913  1.00  0.00     0.312 A 
HETATM   22  N3  UNL     1      28.194   9.582  50.420  1.00  0.00     0.140 N 
HETATM   23  C18 UNL     1      28.455   8.508  49.432  1.00  0.00     0.396 A 
HETATM   24  N4  UNL     1      27.864   7.695  48.508  1.00  0.00    -0.251 NA
HETATM   25  C19 UNL     1      23.845   5.427  48.291  1.00  0.00     0.066 A 
HETATM   26  H6  UNL     1      28.905   5.839  49.765  1.00  0.00     0.156 HD
HETATM   27  H14 UNL     1      27.441  10.111  50.848  1.00  0.00     0.321 HD
ENDROOT
TORSDOF 0
ENDMDL
MODEL 7
REMARK VINA RESULT:      -7.8      1.256      3.761
REMARK  0 active torsions:
REMARK  status: ('A' for Active; 'I' for Inactive)
ROOT
HETATM    1 CL1  UNL     1      21.901  -0.525  54.937  1.00  0.00    -0.088 Cl
HETATM    2  C1  UNL     1      20.781  -0.010  53.662  1.00  0.00     0.022 A 
HETATM    3  C2  UNL     1      19.625  -0.574  53.361  1.00  0.00     0.044 A 
HETATM    4  C3  UNL     1      19.115   0.223  52.260  1.00  0.00     0.038 A 
HETATM    5 CL2  UNL     1      17.542  -0.265  51.600  1.00  0.00    -0.084 Cl
HETATM    6  C4  UNL     1      19.963   1.222  51.935  1.00  0.00    -0.047 A 
HETATM    7  C5  UNL     1      19.595   2.175  50.805  1.00  0.00     0.056 C 
HETATM    8  C6  UNL     1      19.900   3.564  51.276  1.00  0.00     0.121 C 
HETATM    9  N1  UNL     1      19.733   4.599  50.249  1.00  0.00    -0.388 N 
HETATM   10  C7  UNL     1      20.581   5.756  50.611  1.00  0.00     0.187 C 
HETATM   11  C8  UNL     1      21.800   6.256  50.932  1.00  0.00     0.034 C 
HETATM   12  C9  UNL     1      23.225   5.954  51.185  1.00  0.00     0.017 C 
HETATM   13  C10 UNL     1      23.938   4.849  51.256  1.00  0.00     0.088 C 
HETATM   14  N2  UNL     1      23.565   3.495  51.120  1.00  0.00    -0.360 N 
HETATM   15  C11 UNL     1      23.487   2.517  52.144  1.00  0.00     0.130 A 
HETATM   16  C12 UNL     1      23.451   1.706  53.142  1.00  0.00     0.024 C 
HETATM   17  C13 UNL     1      22.486   0.890  52.279  1.00  0.00     0.013 C 
HETATM   18  C14 UNL     1      22.846   1.056  50.880  1.00  0.00     0.041 C 
HETATM   19  C15 UNL     1      23.127   2.257  50.622  1.00  0.00     0.113 A 
HETATM   20  C16 UNL     1      22.937   3.034  49.507  1.00  0.00    -0.100 C 
HETATM   21  C17 UNL     1      22.762   3.701  48.579  1.00  0.00     0.312 A 
HETATM   22  N3  UNL     1      22.545   4.496  47.506  1.00  0.00     0.140 N 
HETATM   23  C18 UNL     1      21.770   5.019  48.657  1.00  0.00     0.396 A 
HETATM   24  N4  UNL     1      21.536   4.855  49.992  1.00  0.00    -0.251 NA
HETATM   25  C19 UNL     1      21.144   1.195  52.784  1.00  0.00     0.066 A 
HETATM   26  H6  UNL     1      19.154   4.691  49.354  1.00  0.00     0.156 HD
HETATM   27  H14 UNL     1      23.182   3.752  47.240  1.00  0.00     0.321 HD
ENDROOT
TORSDOF 0
ENDMDL
MODEL 8
REMARK VINA RESULT:      -7.8      4.059      6.677
REMARK  0 active torsions:
REMARK  status: ('A' for Active; 'I' for Inactive)
ROOT
HETATM    1 CL1  UNL     1      25.606   9.454  49.134  1.00  0.00    -0.088 Cl
HETATM    2  C1  UNL     1      26.193   7.785  49.006  1.00  0.00     0.022 A 
HETATM    3  C2  UNL     1      27.381   7.404  48.572  1.00  0.00     0.044 A 
HETATM    4  C3  UNL     1      27.349   5.957  48.669  1.00  0.00     0.038 A 
HETATM    5 CL2  UNL     1      28.818   5.102  48.161  1.00  0.00    -0.084 Cl
HETATM    6  C4  UNL     1      26.166   5.515  49.147  1.00  0.00    -0.047 A 
HETATM    7  C5  UNL     1      25.945   4.020  49.329  1.00  0.00     0.056 C 
HETATM    8  C6  UNL     1      25.295   3.824  50.664  1.00  0.00     0.121 C 
HETATM    9  N1  UNL     1      24.882   2.442  50.937  1.00  0.00    -0.388 N 
HETATM   10  C7  UNL     1      23.789   2.470  51.935  1.00  0.00     0.187 C 
HETATM   11  C8  UNL     1      22.569   2.921  52.318  1.00  0.00     0.034 C 
HETATM   12  C9  UNL     1      21.416   3.784  51.984  1.00  0.00     0.017 C 
HETATM   13  C10 UNL     1      21.150   4.638  51.017  1.00  0.00     0.088 C 
HETATM   14  N2  UNL     1      21.922   5.058  49.912  1.00  0.00    -0.360 N 
HETATM   15  C11 UNL     1      22.538   6.321  49.724  1.00  0.00     0.130 A 
HETATM   16  C12 UNL     1      23.054   7.497  49.647  1.00  0.00     0.024 C 
HETATM   17  C13 UNL     1      24.035   6.863  48.658  1.00  0.00     0.013 C 
HETATM   18  C14 UNL     1      23.355   5.801  47.933  1.00  0.00     0.041 C 
HETATM   19  C15 UNL     1      22.637   5.110  48.705  1.00  0.00     0.113 A 
HETATM   20  C16 UNL     1      22.316   3.777  48.725  1.00  0.00    -0.100 C 
HETATM   21  C17 UNL     1      22.057   2.650  48.760  1.00  0.00     0.312 A 
HETATM   22  N3  UNL     1      21.763   1.331  48.823  1.00  0.00     0.140 N 
HETATM   23  C18 UNL     1      22.538   1.709  50.029  1.00  0.00     0.396 A 
HETATM   24  N4  UNL     1      23.088   2.765  50.698  1.00  0.00    -0.251 NA
HETATM   25  C19 UNL     1      25.268   6.630  49.414  1.00  0.00     0.066 A 
HETATM   26  H6  UNL     1      25.195   1.478  50.597  1.00  0.00     0.156 HD
HETATM   27  H14 UNL     1      21.374   1.714  47.968  1.00  0.00     0.321 HD
ENDROOT
TORSDOF 0
ENDMDL
MODEL 9
REMARK VINA RESULT:      -7.8      2.294      4.640
REMARK  0 active torsions:
REMARK  status: ('A' for Active; 'I' for Inactive)
ROOT
HETATM    1 CL1  UNL     1      25.760   0.499  52.809  1.00  0.00    -0.088 Cl
HETATM    2  C1  UNL     1      24.197   1.314  52.619  1.00  0.00     0.022 A 
HETATM    3  C2  UNL     1      23.028   0.875  53.052  1.00  0.00     0.044 A 
HETATM    4  C3  UNL     1      22.088   1.903  52.642  1.00  0.00     0.038 A 
HETATM    5 CL2  UNL     1      20.390   1.631  53.077  1.00  0.00    -0.084 Cl
HETATM    6  C4  UNL     1      22.705   2.910  51.987  1.00  0.00    -0.047 A 
HETATM    7  C5  UNL     1      21.882   4.089  51.486  1.00  0.00     0.056 C 
HETATM    8  C6  UNL     1      22.635   5.337  51.833  1.00  0.00     0.121 C 
HETATM    9  N1  UNL     1      22.044   6.567  51.293  1.00  0.00    -0.388 N 
HETATM   10  C7  UNL     1      23.110   7.587  51.181  1.00  0.00     0.187 C 
HETATM   11  C8  UNL     1      24.329   7.956  50.715  1.00  0.00     0.034 C 
HETATM   12  C9  UNL     1      25.534   7.546  49.962  1.00  0.00     0.017 C 
HETATM   13  C10 UNL     1      25.945   6.420  49.418  1.00  0.00     0.088 C 
HETATM   14  N2  UNL     1      25.351   5.140  49.374  1.00  0.00    -0.360 N 
HETATM   15  C11 UNL     1      25.761   3.977  50.074  1.00  0.00     0.130 A 
HETATM   16  C12 UNL     1      26.215   2.981  50.750  1.00  0.00     0.024 C 
HETATM   17  C13 UNL     1      24.806   2.403  50.601  1.00  0.00     0.013 C 
HETATM   18  C14 UNL     1      24.250   2.836  49.329  1.00  0.00     0.041 C 
HETATM   19  C15 UNL     1      24.504   4.052  49.112  1.00  0.00     0.113 A 
HETATM   20  C16 UNL     1      23.799   5.048  48.487  1.00  0.00    -0.100 C 
HETATM   21  C17 UNL     1      23.201   5.898  47.979  1.00  0.00     0.312 A 
HETATM   22  N3  UNL     1      22.503   6.906  47.406  1.00  0.00     0.140 N 
HETATM   23  C18 UNL     1      22.701   7.215  48.842  1.00  0.00     0.396 A 
HETATM   24  N4  UNL     1      23.317   6.790  49.985  1.00  0.00    -0.251 NA
HETATM   25  C19 UNL     1      24.134   2.656  51.878  1.00  0.00     0.066 A 
HETATM   26  H6  UNL     1      21.062   6.867  50.993  1.00  0.00     0.156 HD
HETATM   27  H14 UNL     1      22.709   6.204  46.701  1.00  0.00     0.321 HD
ENDROOT
TORSDOF 0
ENDMDL
