MODEL 1
REMARK VINA RESULT:      -7.2      0.000      0.000
REMARK  4 active torsions:
REMARK  status: ('A' for Active; 'I' for Inactive)
REMARK    1  A    between atoms: C2_2  and  N1_3 
REMARK    2  A    between atoms: C6_7  and  N2_8 
REMARK    3  A    between atoms: N3_14  and  C12_15 
REMARK    4  A    between atoms: C12_15  and  C13_16 
ROOT
HETATM    1  N1  UNL     1      23.404   1.313  52.123  1.00  0.00    -0.310 N 
HETATM    2  C3  UNL     1      24.745   0.855  52.302  1.00  0.00     0.053 A 
HETATM    3  C4  UNL     1      25.969   1.318  51.857  1.00  0.00     0.033 A 
HETATM    4  C5  UNL     1      27.169   0.734  52.140  1.00  0.00     0.031 A 
HETATM    5  C6  UNL     1      27.187  -0.412  52.930  1.00  0.00     0.030 A 
HETATM    6  C9  UNL     1      25.970  -0.883  53.379  1.00  0.00     0.040 A 
HETATM    7  C10 UNL     1      24.783  -0.264  53.071  1.00  0.00    -0.013 A 
HETATM    8  C11 UNL     1      23.368  -0.575  53.433  1.00  0.00     0.154 C 
HETATM    9  N3  UNL     1      22.584   0.361  52.715  1.00  0.00    -0.221 NA
ENDROOT
BRANCH   9  10
HETATM   10  C12 UNL     1      21.492   0.841  53.473  1.00  0.00     0.162 C 
BRANCH  10  11
HETATM   11  C13 UNL     1      20.197   0.358  52.819  1.00  0.00     0.129 A 
HETATM   12  C14 UNL     1      19.577  -0.796  53.507  1.00  0.00     0.039 A 
HETATM   13  C15 UNL     1      18.768  -0.554  52.516  1.00  0.00     0.051 A 
HETATM   14  C16 UNL     1      18.119  -0.339  51.699  1.00  0.00     0.012 C 
HETATM   15  O1  UNL     1      17.314  -0.046  50.653  1.00  0.00    -0.308 OA
HETATM   16  C17 UNL     1      18.092   1.145  49.922  1.00  0.00     0.213 C 
HETATM   17  C18 UNL     1      19.533   0.959  50.353  1.00  0.00     0.197 C 
HETATM   18  O2  UNL     1      19.936   1.223  51.646  1.00  0.00    -0.367 OA
ENDBRANCH  10  11
ENDBRANCH   9  10
BRANCH   1  19
HETATM   19  C2  UNL     1      23.090   2.527  51.447  1.00  0.00     0.139 C 
HETATM   20  C1  UNL     1      22.947   2.502  49.990  1.00  0.00     0.028 C 
ENDBRANCH   1  19
BRANCH   5  21
HETATM   21  N2  UNL     1      28.381  -1.097  53.288  1.00  0.00    -0.390 N 
HETATM   22  C7  UNL     1      28.706  -2.496  53.089  1.00  0.00     0.149 C 
HETATM   23  C8  UNL     1      29.414  -0.289  53.944  1.00  0.00     0.149 C 
ENDBRANCH   5  21
TORSDOF 4
ENDMDL
MODEL 2
REMARK VINA RESULT:      -7.2      3.455      7.487
REMARK  4 active torsions:
REMARK  status: ('A' for Active; 'I' for Inactive)
REMARK    1  A    between atoms: C2_2  and  N1_3 
REMARK    2  A    between atoms: C6_7  and  N2_8 
REMARK    3  A    between atoms: N3_14  and  C12_15 
REMARK    4  A    between atoms: C12_15  and  C13_16 
ROOT
HETATM    1  N1  UNL     1      22.816   0.558  52.936  1.00  0.00    -0.310 N 
HETATM    2  C3  UNL     1      22.624   1.912  52.523  1.00  0.00     0.053 A 
HETATM    3  C4  UNL     1      21.498   2.687  52.318  1.00  0.00     0.033 A 
HETATM    4  C5  UNL     1      21.516   3.990  51.917  1.00  0.00     0.031 A 
HETATM    5  C6  UNL     1      22.745   4.605  51.690  1.00  0.00     0.030 A 
HETATM    6  C9  UNL     1      23.875   3.840  51.892  1.00  0.00     0.040 A 
HETATM    7  C10 UNL     1      23.813   2.529  52.297  1.00  0.00    -0.013 A 
HETATM    8  C11 UNL     1      24.875   1.518  52.581  1.00  0.00     0.154 C 
HETATM    9  N3  UNL     1      24.180   0.312  52.844  1.00  0.00    -0.221 NA
ENDROOT
BRANCH   9  10
HETATM   10  C12 UNL     1      24.768  -0.429  53.895  1.00  0.00     0.162 C 
BRANCH  10  11
HETATM   11  C13 UNL     1      26.243  -0.655  53.563  1.00  0.00     0.129 A 
HETATM   12  C14 UNL     1      26.478  -1.781  52.633  1.00  0.00     0.039 A 
HETATM   13  C15 UNL     1      27.674  -1.325  52.874  1.00  0.00     0.051 A 
HETATM   14  C16 UNL     1      28.642  -0.935  53.085  1.00  0.00     0.012 C 
HETATM   15  O1  UNL     1      29.860  -0.423  53.372  1.00  0.00    -0.308 OA
HETATM   16  C17 UNL     1      29.527   0.723  54.437  1.00  0.00     0.213 C 
HETATM   17  C18 UNL     1      28.199   0.295  55.030  1.00  0.00     0.197 C 
HETATM   18  O2  UNL     1      27.031   0.360  54.300  1.00  0.00    -0.367 OA
ENDBRANCH  10  11
ENDBRANCH   9  10
BRANCH   1  19
HETATM   19  C2  UNL     1      21.739  -0.282  53.340  1.00  0.00     0.139 C 
HETATM   20  C1  UNL     1      21.194  -0.124  54.690  1.00  0.00     0.028 C 
ENDBRANCH   1  19
BRANCH   5  21
HETATM   21  N2  UNL     1      22.876   5.959  51.274  1.00  0.00    -0.390 N 
HETATM   22  C7  UNL     1      24.086   6.753  51.178  1.00  0.00     0.149 C 
HETATM   23  C8  UNL     1      21.634   6.641  50.898  1.00  0.00     0.149 C 
ENDBRANCH   5  21
TORSDOF 4
ENDMDL
MODEL 3
REMARK VINA RESULT:      -7.1      3.265      7.743
REMARK  4 active torsions:
REMARK  status: ('A' for Active; 'I' for Inactive)
REMARK    1  A    between atoms: C2_2  and  N1_3 
REMARK    2  A    between atoms: C6_7  and  N2_8 
REMARK    3  A    between atoms: N3_14  and  C12_15 
REMARK    4  A    between atoms: C12_15  and  C13_16 
ROOT
HETATM    1  N1  UNL     1      23.312  -0.083  52.967  1.00  0.00    -0.310 N 
HETATM    2  C3  UNL     1      22.569   0.460  51.875  1.00  0.00     0.053 A 
HETATM    3  C4  UNL     1      21.286   0.249  51.406  1.00  0.00     0.033 A 
HETATM    4  C5  UNL     1      20.742   0.877  50.325  1.00  0.00     0.031 A 
HETATM    5  C6  UNL     1      21.516   1.801  49.626  1.00  0.00     0.030 A 
HETATM    6  C9  UNL     1      22.798   2.019  50.085  1.00  0.00     0.040 A 
HETATM    7  C10 UNL     1      23.309   1.364  51.180  1.00  0.00    -0.013 A 
HETATM    8  C11 UNL     1      24.638   1.432  51.857  1.00  0.00     0.154 C 
HETATM    9  N3  UNL     1      24.598   0.431  52.859  1.00  0.00    -0.221 NA
ENDROOT
BRANCH   9  10
HETATM   10  C12 UNL     1      25.223   0.845  54.057  1.00  0.00     0.162 C 
BRANCH  10  11
HETATM   11  C13 UNL     1      26.738   0.796  53.856  1.00  0.00     0.129 A 
HETATM   12  C14 UNL     1      27.368   2.131  53.754  1.00  0.00     0.039 A 
HETATM   13  C15 UNL     1      28.369   1.306  53.636  1.00  0.00     0.051 A 
HETATM   14  C16 UNL     1      29.173   0.614  53.542  1.00  0.00     0.012 C 
HETATM   15  O1  UNL     1      30.175  -0.287  53.423  1.00  0.00    -0.308 OA
HETATM   16  C17 UNL     1      29.406  -1.689  53.459  1.00  0.00     0.213 C 
HETATM   17  C18 UNL     1      27.999  -1.344  53.012  1.00  0.00     0.197 C 
HETATM   18  O2  UNL     1      27.142  -0.628  53.822  1.00  0.00    -0.367 OA
ENDBRANCH  10  11
ENDBRANCH   9  10
BRANCH   1  19
HETATM   19  C2  UNL     1      22.737  -0.973  53.920  1.00  0.00     0.139 C 
HETATM   20  C1  UNL     1      21.691  -0.468  54.810  1.00  0.00     0.028 C 
ENDBRANCH   1  19
BRANCH   5  21
HETATM   21  N2  UNL     1      21.045   2.513  48.489  1.00  0.00    -0.390 N 
HETATM   22  C7  UNL     1      21.815   3.036  47.377  1.00  0.00     0.149 C 
HETATM   23  C8  UNL     1      19.600   2.754  48.433  1.00  0.00     0.149 C 
ENDBRANCH   5  21
TORSDOF 4
ENDMDL
MODEL 4
REMARK VINA RESULT:      -7.1      3.657      7.952
REMARK  4 active torsions:
REMARK  status: ('A' for Active; 'I' for Inactive)
REMARK    1  A    between atoms: C2_2  and  N1_3 
REMARK    2  A    between atoms: C6_7  and  N2_8 
REMARK    3  A    between atoms: N3_14  and  C12_15 
REMARK    4  A    between atoms: C12_15  and  C13_16 
ROOT
HETATM    1  N1  UNL     1      24.157   1.519  52.256  1.00  0.00    -0.310 N 
HETATM    2  C3  UNL     1      23.549   2.124  51.115  1.00  0.00     0.053 A 
HETATM    3  C4  UNL     1      22.275   2.065  50.579  1.00  0.00     0.033 A 
HETATM    4  C5  UNL     1      21.874   2.731  49.459  1.00  0.00     0.031 A 
HETATM    5  C6  UNL     1      22.795   3.531  48.787  1.00  0.00     0.030 A 
HETATM    6  C9  UNL     1      24.069   3.597  49.313  1.00  0.00     0.040 A 
HETATM    7  C10 UNL     1      24.433   2.910  50.446  1.00  0.00    -0.013 A 
HETATM    8  C11 UNL     1      25.723   2.826  51.195  1.00  0.00     0.154 C 
HETATM    9  N3  UNL     1      25.502   1.863  52.211  1.00  0.00    -0.221 NA
ENDROOT
BRANCH   9  10
HETATM   10  C12 UNL     1      26.111   2.224  53.434  1.00  0.00     0.162 C 
BRANCH  10  11
HETATM   11  C13 UNL     1      27.464   1.518  53.530  1.00  0.00     0.129 A 
HETATM   12  C14 UNL     1      28.609   2.443  53.675  1.00  0.00     0.039 A 
HETATM   13  C15 UNL     1      29.161   1.263  53.681  1.00  0.00     0.051 A 
HETATM   14  C16 UNL     1      29.591   0.289  53.684  1.00  0.00     0.012 C 
HETATM   15  O1  UNL     1      30.112  -0.959  53.682  1.00  0.00    -0.308 OA
HETATM   16  C17 UNL     1      28.830  -1.884  53.440  1.00  0.00     0.213 C 
HETATM   17  C18 UNL     1      27.838  -0.962  52.759  1.00  0.00     0.197 C 
HETATM   18  O2  UNL     1      27.217   0.060  53.447  1.00  0.00    -0.367 OA
ENDBRANCH  10  11
ENDBRANCH   9  10
BRANCH   1  19
HETATM   19  C2  UNL     1      23.424   0.732  53.191  1.00  0.00     0.139 C 
HETATM   20  C1  UNL     1      23.750  -0.690  53.319  1.00  0.00     0.028 C 
ENDBRANCH   1  19
BRANCH   5  21
HETATM   21  N2  UNL     1      22.480   4.270  47.613  1.00  0.00    -0.390 N 
HETATM   22  C7  UNL     1      22.746   5.668  47.336  1.00  0.00     0.149 C 
HETATM   23  C8  UNL     1      21.798   3.526  46.549  1.00  0.00     0.149 C 
ENDBRANCH   5  21
TORSDOF 4
ENDMDL
MODEL 5
REMARK VINA RESULT:      -7.0      4.083      7.601
REMARK  4 active torsions:
REMARK  status: ('A' for Active; 'I' for Inactive)
REMARK    1  A    between atoms: C2_2  and  N1_3 
REMARK    2  A    between atoms: C6_7  and  N2_8 
REMARK    3  A    between atoms: N3_14  and  C12_15 
REMARK    4  A    between atoms: C12_15  and  C13_16 
ROOT
HETATM    1  N1  UNL     1      24.306   2.571  51.457  1.00  0.00    -0.310 N 
HETATM    2  C3  UNL     1      24.497   3.672  50.567  1.00  0.00     0.053 A 
HETATM    3  C4  UNL     1      23.624   4.517  49.907  1.00  0.00     0.033 A 
HETATM    4  C5  UNL     1      24.004   5.534  49.083  1.00  0.00     0.031 A 
HETATM    5  C6  UNL     1      25.363   5.758  48.875  1.00  0.00     0.030 A 
HETATM    6  C9  UNL     1      26.243   4.920  49.529  1.00  0.00     0.040 A 
HETATM    7  C10 UNL     1      25.818   3.906  50.352  1.00  0.00    -0.013 A 
HETATM    8  C11 UNL     1      26.563   2.890  51.156  1.00  0.00     0.154 C 
HETATM    9  N3  UNL     1      25.568   2.042  51.699  1.00  0.00    -0.221 NA
ENDROOT
BRANCH   9  10
HETATM   10  C12 UNL     1      25.855   1.661  53.030  1.00  0.00     0.162 C 
BRANCH  10  11
HETATM   11  C13 UNL     1      26.519   0.283  53.007  1.00  0.00     0.129 A 
HETATM   12  C14 UNL     1      25.596  -0.817  52.653  1.00  0.00     0.039 A 
HETATM   13  C15 UNL     1      26.738  -1.417  52.835  1.00  0.00     0.051 A 
HETATM   14  C16 UNL     1      27.681  -1.887  52.989  1.00  0.00     0.012 C 
HETATM   15  O1  UNL     1      28.889  -2.459  53.193  1.00  0.00    -0.308 OA
HETATM   16  C17 UNL     1      29.800  -1.225  53.649  1.00  0.00     0.213 C 
HETATM   17  C18 UNL     1      28.804  -0.220  54.193  1.00  0.00     0.197 C 
HETATM   18  O2  UNL     1      27.946   0.466  53.359  1.00  0.00    -0.367 OA
ENDBRANCH  10  11
ENDBRANCH   9  10
BRANCH   1  19
HETATM   19  C2  UNL     1      23.021   2.183  51.935  1.00  0.00     0.139 C 
HETATM   20  C1  UNL     1      22.374   1.015  51.335  1.00  0.00     0.028 C 
ENDBRANCH   1  19
BRANCH   5  21
HETATM   21  N2  UNL     1      25.866   6.793  48.039  1.00  0.00    -0.390 N 
HETATM   22  C7  UNL     1      27.241   7.219  47.870  1.00  0.00     0.149 C 
HETATM   23  C8  UNL     1      24.870   7.524  47.250  1.00  0.00     0.149 C 
ENDBRANCH   5  21
TORSDOF 4
ENDMDL
MODEL 6
REMARK VINA RESULT:      -7.0      1.499      2.715
REMARK  4 active torsions:
REMARK  status: ('A' for Active; 'I' for Inactive)
REMARK    1  A    between atoms: C2_2  and  N1_3 
REMARK    2  A    between atoms: C6_7  and  N2_8 
REMARK    3  A    between atoms: N3_14  and  C12_15 
REMARK    4  A    between atoms: C12_15  and  C13_16 
ROOT
HETATM    1  N1  UNL     1      22.944   0.138  52.900  1.00  0.00    -0.310 N 
HETATM    2  C3  UNL     1      24.330   0.226  53.233  1.00  0.00     0.053 A 
HETATM    3  C4  UNL     1      25.120  -0.416  54.169  1.00  0.00     0.033 A 
HETATM    4  C5  UNL     1      26.455  -0.195  54.339  1.00  0.00     0.031 A 
HETATM    5  C6  UNL     1      27.090   0.739  53.524  1.00  0.00     0.030 A 
HETATM    6  C9  UNL     1      26.311   1.385  52.586  1.00  0.00     0.040 A 
HETATM    7  C10 UNL     1      24.967   1.133  52.447  1.00  0.00    -0.013 A 
HETATM    8  C11 UNL     1      23.934   1.690  51.523  1.00  0.00     0.154 C 
HETATM    9  N3  UNL     1      22.709   1.122  51.948  1.00  0.00    -0.221 NA
ENDROOT
BRANCH   9  10
HETATM   10  C12 UNL     1      21.874   0.772  50.862  1.00  0.00     0.162 C 
BRANCH  10  11
HETATM   11  C13 UNL     1      20.473   1.324  51.128  1.00  0.00     0.129 A 
HETATM   12  C14 UNL     1      20.440   2.790  51.326  1.00  0.00     0.039 A 
HETATM   13  C15 UNL     1      19.193   2.433  51.447  1.00  0.00     0.051 A 
HETATM   14  C16 UNL     1      18.180   2.119  51.542  1.00  0.00     0.012 C 
HETATM   15  O1  UNL     1      16.902   1.692  51.660  1.00  0.00    -0.308 OA
HETATM   16  C17 UNL     1      17.037   0.105  51.518  1.00  0.00     0.213 C 
HETATM   17  C18 UNL     1      18.472  -0.176  51.918  1.00  0.00     0.197 C 
HETATM   18  O2  UNL     1      19.528   0.185  51.108  1.00  0.00    -0.367 OA
ENDBRANCH  10  11
ENDBRANCH   9  10
BRANCH   1  19
HETATM   19  C2  UNL     1      22.069  -0.813  53.499  1.00  0.00     0.139 C 
HETATM   20  C1  UNL     1      21.194  -0.374  54.588  1.00  0.00     0.028 C 
ENDBRANCH   1  19
BRANCH   5  21
HETATM   21  N2  UNL     1      28.477   1.042  53.615  1.00  0.00    -0.390 N 
HETATM   22  C7  UNL     1      29.592   0.118  53.685  1.00  0.00     0.149 C 
HETATM   23  C8  UNL     1      28.824   2.466  53.647  1.00  0.00     0.149 C 
ENDBRANCH   5  21
TORSDOF 4
ENDMDL
MODEL 7
REMARK VINA RESULT:      -6.8      2.758      7.984
REMARK  4 active torsions:
REMARK  status: ('A' for Active; 'I' for Inactive)
REMARK    1  A    between atoms: C2_2  and  N1_3 
REMARK    2  A    between atoms: C6_7  and  N2_8 
REMARK    3  A    between atoms: N3_14  and  C12_15 
REMARK    4  A    between atoms: C12_15  and  C13_16 
ROOT
HETATM    1  N1  UNL     1      20.938   0.091  53.319  1.00  0.00    -0.310 N 
HETATM    2  C3  UNL     1      19.653  -0.219  52.780  1.00  0.00     0.053 A 
HETATM    3  C4  UNL     1      18.574  -0.938  53.261  1.00  0.00     0.033 A 
HETATM    4  C5  UNL     1      17.405  -1.126  52.585  1.00  0.00     0.031 A 
HETATM    5  C6  UNL     1      17.263  -0.565  51.318  1.00  0.00     0.030 A 
HETATM    6  C9  UNL     1      18.335   0.154  50.828  1.00  0.00     0.040 A 
HETATM    7  C10 UNL     1      19.497   0.320  51.542  1.00  0.00    -0.013 A 
HETATM    8  C11 UNL     1      20.767   1.043  51.234  1.00  0.00     0.154 C 
HETATM    9  N3  UNL     1      21.635   0.750  52.314  1.00  0.00    -0.221 NA
ENDROOT
BRANCH   9  10
HETATM   10  C12 UNL     1      22.407   1.869  52.701  1.00  0.00     0.162 C 
BRANCH  10  11
HETATM   11  C13 UNL     1      23.875   1.577  52.387  1.00  0.00     0.129 A 
HETATM   12  C14 UNL     1      24.373   2.266  51.176  1.00  0.00     0.039 A 
HETATM   13  C15 UNL     1      25.409   1.602  51.603  1.00  0.00     0.051 A 
HETATM   14  C16 UNL     1      26.244   1.052  51.970  1.00  0.00     0.012 C 
HETATM   15  O1  UNL     1      27.287   0.341  52.456  1.00  0.00    -0.308 OA
HETATM   16  C17 UNL     1      26.647  -0.432  53.702  1.00  0.00     0.213 C 
HETATM   17  C18 UNL     1      25.167  -0.479  53.380  1.00  0.00     0.197 C 
HETATM   18  O2  UNL     1      24.384   0.656  53.429  1.00  0.00    -0.367 OA
ENDBRANCH  10  11
ENDBRANCH   9  10
BRANCH   1  19
HETATM   19  C2  UNL     1      21.321  -0.263  54.645  1.00  0.00     0.139 C 
HETATM   20  C1  UNL     1      21.942  -1.569  54.871  1.00  0.00     0.028 C 
ENDBRANCH   1  19
BRANCH   5  21
HETATM   21  N2  UNL     1      16.086  -0.697  50.531  1.00  0.00    -0.390 N 
HETATM   22  C7  UNL     1      15.934  -0.486  49.104  1.00  0.00     0.149 C 
HETATM   23  C8  UNL     1      14.872  -1.093  51.251  1.00  0.00     0.149 C 
ENDBRANCH   5  21
TORSDOF 4
ENDMDL
MODEL 8
REMARK VINA RESULT:      -6.7      3.911      7.208
REMARK  4 active torsions:
REMARK  status: ('A' for Active; 'I' for Inactive)
REMARK    1  A    between atoms: C2_2  and  N1_3 
REMARK    2  A    between atoms: C6_7  and  N2_8 
REMARK    3  A    between atoms: N3_14  and  C12_15 
REMARK    4  A    between atoms: C12_15  and  C13_16 
ROOT
HETATM    1  N1  UNL     1      23.516   2.683  49.699  1.00  0.00    -0.310 N 
HETATM    2  C3  UNL     1      22.744   1.803  50.516  1.00  0.00     0.053 A 
HETATM    3  C4  UNL     1      21.574   1.097  50.303  1.00  0.00     0.033 A 
HETATM    4  C5  UNL     1      20.978   0.288  51.224  1.00  0.00     0.031 A 
HETATM    5  C6  UNL     1      21.570   0.147  52.477  1.00  0.00     0.030 A 
HETATM    6  C9  UNL     1      22.738   0.847  52.700  1.00  0.00     0.040 A 
HETATM    7  C10 UNL     1      23.307   1.653  51.743  1.00  0.00    -0.013 A 
HETATM    8  C11 UNL     1      24.543   2.491  51.746  1.00  0.00     0.154 C 
HETATM    9  N3  UNL     1      24.530   3.179  50.508  1.00  0.00    -0.221 NA
ENDROOT
BRANCH   9  10
HETATM   10  C12 UNL     1      25.817   3.275  49.933  1.00  0.00     0.162 C 
BRANCH  10  11
HETATM   11  C13 UNL     1      26.062   4.731  49.533  1.00  0.00     0.129 A 
HETATM   12  C14 UNL     1      27.271   4.924  48.702  1.00  0.00     0.039 A 
HETATM   13  C15 UNL     1      26.783   6.125  48.823  1.00  0.00     0.051 A 
HETATM   14  C16 UNL     1      26.367   7.099  48.934  1.00  0.00     0.012 C 
HETATM   15  O1  UNL     1      25.819   8.325  49.093  1.00  0.00    -0.308 OA
HETATM   16  C17 UNL     1      24.577   8.042  50.062  1.00  0.00     0.213 C 
HETATM   17  C18 UNL     1      24.957   6.760  50.776  1.00  0.00     0.197 C 
HETATM   18  O2  UNL     1      24.974   5.548  50.117  1.00  0.00    -0.367 OA
ENDBRANCH  10  11
ENDBRANCH   9  10
BRANCH   1  19
HETATM   19  C2  UNL     1      23.207   2.930  48.330  1.00  0.00     0.139 C 
HETATM   20  C1  UNL     1      22.554   4.191  47.974  1.00  0.00     0.028 C 
ENDBRANCH   1  19
BRANCH   5  21
HETATM   21  N2  UNL     1      21.034  -0.673  53.508  1.00  0.00    -0.390 N 
HETATM   22  C7  UNL     1      21.751  -1.410  54.530  1.00  0.00     0.149 C 
HETATM   23  C8  UNL     1      19.573  -0.793  53.540  1.00  0.00     0.149 C 
ENDBRANCH   5  21
TORSDOF 4
ENDMDL
MODEL 9
REMARK VINA RESULT:      -6.7      2.751      4.580
REMARK  4 active torsions:
REMARK  status: ('A' for Active; 'I' for Inactive)
REMARK    1  A    between atoms: C2_2  and  N1_3 
REMARK    2  A    between atoms: C6_7  and  N2_8 
REMARK    3  A    between atoms: N3_14  and  C12_15 
REMARK    4  A    between atoms: C12_15  and  C13_16 
ROOT
HETATM    1  N1  UNL     1      23.444   1.250  52.033  1.00  0.00    -0.310 N 
HETATM    2  C3  UNL     1      24.664   0.640  52.459  1.00  0.00     0.053 A 
HETATM    3  C4  UNL     1      24.950  -0.541  53.118  1.00  0.00     0.033 A 
HETATM    4  C5  UNL     1      26.206  -0.962  53.443  1.00  0.00     0.031 A 
HETATM    5  C6  UNL     1      27.293  -0.163  53.097  1.00  0.00     0.030 A 
HETATM    6  C9  UNL     1      27.018   1.018  52.439  1.00  0.00     0.040 A 
HETATM    7  C10 UNL     1      25.737   1.406  52.129  1.00  0.00    -0.013 A 
HETATM    8  C11 UNL     1      25.197   2.612  51.433  1.00  0.00     0.154 C 
HETATM    9  N3  UNL     1      23.788   2.497  51.526  1.00  0.00    -0.221 NA
ENDROOT
BRANCH   9  10
HETATM   10  C12 UNL     1      23.136   2.906  50.340  1.00  0.00     0.162 C 
BRANCH  10  11
HETATM   11  C13 UNL     1      22.567   4.308  50.558  1.00  0.00     0.129 A 
HETATM   12  C14 UNL     1      21.474   4.359  51.553  1.00  0.00     0.039 A 
HETATM   13  C15 UNL     1      21.602   5.598  51.170  1.00  0.00     0.051 A 
HETATM   14  C16 UNL     1      21.724   6.604  50.844  1.00  0.00     0.012 C 
HETATM   15  O1  UNL     1      21.899   7.872  50.409  1.00  0.00    -0.308 OA
HETATM   16  C17 UNL     1      23.028   7.717  49.287  1.00  0.00     0.213 C 
HETATM   17  C18 UNL     1      22.912   6.270  48.850  1.00  0.00     0.197 C 
HETATM   18  O2  UNL     1      23.309   5.237  49.674  1.00  0.00    -0.367 OA
ENDBRANCH  10  11
ENDBRANCH   9  10
BRANCH   1  19
HETATM   19  C2  UNL     1      22.179   0.607  52.158  1.00  0.00     0.139 C 
HETATM   20  C1  UNL     1      21.419   0.791  53.396  1.00  0.00     0.028 C 
ENDBRANCH   1  19
BRANCH   5  21
HETATM   21  N2  UNL     1      28.642  -0.511  53.384  1.00  0.00    -0.390 N 
HETATM   22  C7  UNL     1      29.274  -1.811  53.277  1.00  0.00     0.149 C 
HETATM   23  C8  UNL     1      29.502   0.580  53.852  1.00  0.00     0.149 C 
ENDBRANCH   5  21
TORSDOF 4
ENDMDL
