MODEL 1
REMARK VINA RESULT:      -9.0      0.000      0.000
REMARK  1 active torsions:
REMARK  status: ('A' for Active; 'I' for Inactive)
REMARK    1  A    between atoms: O1_1  and  C1_2 
ROOT
HETATM    1  C1  UNL     1      29.006   0.133  53.867  1.00  0.00     0.066 A 
HETATM    2  C2  UNL     1      28.974   1.393  53.312  1.00  0.00     0.039 A 
HETATM    3  C3  UNL     1      27.773   2.117  53.329  1.00  0.00     0.033 A 
HETATM    4  C4  UNL     1      26.590   1.661  53.868  1.00  0.00     0.044 A 
HETATM    5  C5  UNL     1      26.572   0.418  54.430  1.00  0.00    -0.007 A 
HETATM    6  C6  UNL     1      27.780  -0.290  54.405  1.00  0.00     0.050 A 
HETATM    7  C7  UNL     1      25.571  -0.403  55.084  1.00  0.00     0.010 C 
HETATM    8  C8  UNL     1      24.408  -0.905  54.713  1.00  0.00    -0.026 C 
HETATM    9  C9  UNL     1      23.960  -0.592  53.316  1.00  0.00     0.029 C 
HETATM   10  C10 UNL     1      22.643   0.084  53.329  1.00  0.00     0.025 C 
HETATM   11  C11 UNL     1      22.113   0.645  52.056  1.00  0.00     0.146 C 
HETATM   12  N1  UNL     1      22.875   1.819  51.611  1.00  0.00    -0.289 N 
HETATM   13  N2  UNL     1      24.256   1.733  51.953  1.00  0.00    -0.157 NA
HETATM   14  C12 UNL     1      24.588   2.722  52.685  1.00  0.00     0.158 C 
HETATM   15  N3  UNL     1      25.650   2.691  53.662  1.00  0.00    -0.338 N 
HETATM   16  C13 UNL     1      23.669   3.787  52.309  1.00  0.00     0.036 A 
HETATM   17  C14 UNL     1      23.323   4.954  52.790  1.00  0.00     0.122 A 
HETATM   18  N4  UNL     1      22.320   5.649  52.018  1.00  0.00    -0.289 N 
HETATM   19  N5  UNL     1      21.825   5.042  50.861  1.00  0.00    -0.189 NA
HETATM   20  C15 UNL     1      22.199   3.893  50.408  1.00  0.00     0.143 A 
HETATM   21  C16 UNL     1      23.209   3.072  51.044  1.00  0.00     0.184 A 
HETATM   22  H13 UNL     1      25.801   3.490  54.310  1.00  0.00     0.167 HD
HETATM   23  H15 UNL     1      22.026   6.576  52.378  1.00  0.00     0.188 HD
ENDROOT
BRANCH   1  24
HETATM   24  O1  UNL     1      30.156  -0.601  53.869  1.00  0.00    -0.361 OA
HETATM   25  H1  UNL     1      30.194  -1.576  54.082  1.00  0.00     0.217 HD
ENDBRANCH   1  24
TORSDOF 1
ENDMDL
MODEL 2
REMARK VINA RESULT:      -8.5      1.761      2.034
REMARK  1 active torsions:
REMARK  status: ('A' for Active; 'I' for Inactive)
REMARK    1  A    between atoms: O1_1  and  C1_2 
ROOT
HETATM    1  C1  UNL     1      26.682  -1.643  52.786  1.00  0.00     0.066 A 
HETATM    2  C2  UNL     1      26.950  -0.474  52.109  1.00  0.00     0.039 A 
HETATM    3  C3  UNL     1      26.123   0.640  52.315  1.00  0.00     0.033 A 
HETATM    4  C4  UNL     1      25.035   0.663  53.160  1.00  0.00     0.044 A 
HETATM    5  C5  UNL     1      24.729  -0.472  53.853  1.00  0.00    -0.007 A 
HETATM    6  C6  UNL     1      25.567  -1.574  53.635  1.00  0.00     0.050 A 
HETATM    7  C7  UNL     1      23.708  -0.853  54.810  1.00  0.00     0.010 C 
HETATM    8  C8  UNL     1      22.389  -0.903  54.776  1.00  0.00    -0.026 C 
HETATM    9  C9  UNL     1      21.738  -0.484  53.491  1.00  0.00     0.029 C 
HETATM   10  C10 UNL     1      20.788   0.627  53.726  1.00  0.00     0.025 C 
HETATM   11  C11 UNL     1      20.180   1.310  52.551  1.00  0.00     0.146 C 
HETATM   12  N1  UNL     1      21.162   2.111  51.809  1.00  0.00    -0.289 N 
HETATM   13  N2  UNL     1      22.465   1.535  51.834  1.00  0.00    -0.157 NA
HETATM   14  C12 UNL     1      23.296   2.351  52.350  1.00  0.00     0.158 C 
HETATM   15  N3  UNL     1      24.492   1.959  53.056  1.00  0.00    -0.338 N 
HETATM   16  C13 UNL     1      22.742   3.669  52.072  1.00  0.00     0.036 A 
HETATM   17  C14 UNL     1      22.958   4.894  52.480  1.00  0.00     0.122 A 
HETATM   18  N4  UNL     1      22.098   5.888  51.881  1.00  0.00    -0.289 N 
HETATM   19  N5  UNL     1      21.144   5.474  50.947  1.00  0.00    -0.189 NA
HETATM   20  C15 UNL     1      20.967   4.257  50.558  1.00  0.00     0.143 A 
HETATM   21  C16 UNL     1      21.755   3.139  51.038  1.00  0.00     0.184 A 
HETATM   22  H13 UNL     1      25.072   2.664  53.553  1.00  0.00     0.167 HD
HETATM   23  H15 UNL     1      22.247   6.867  52.188  1.00  0.00     0.188 HD
ENDROOT
BRANCH   1  24
HETATM   24  O1  UNL     1      27.464  -2.747  52.611  1.00  0.00    -0.361 OA
HETATM   25  H1  UNL     1      28.217  -2.798  51.957  1.00  0.00     0.217 HD
ENDBRANCH   1  24
TORSDOF 1
ENDMDL
MODEL 3
REMARK VINA RESULT:      -7.9      3.246      5.264
REMARK  1 active torsions:
REMARK  status: ('A' for Active; 'I' for Inactive)
REMARK    1  A    between atoms: O1_1  and  C1_2 
ROOT
HETATM    1  C1  UNL     1      22.777  -1.292  54.937  1.00  0.00     0.066 A 
HETATM    2  C2  UNL     1      21.465  -1.487  54.566  1.00  0.00     0.039 A 
HETATM    3  C3  UNL     1      20.969  -0.823  53.435  1.00  0.00     0.033 A 
HETATM    4  C4  UNL     1      21.703   0.032  52.643  1.00  0.00     0.044 A 
HETATM    5  C5  UNL     1      23.008   0.258  52.971  1.00  0.00    -0.007 A 
HETATM    6  C6  UNL     1      23.487  -0.415  54.103  1.00  0.00     0.050 A 
HETATM    7  C7  UNL     1      24.087   1.054  52.419  1.00  0.00     0.010 C 
HETATM    8  C8  UNL     1      24.256   2.345  52.194  1.00  0.00    -0.026 C 
HETATM    9  C9  UNL     1      23.113   3.242  52.567  1.00  0.00     0.029 C 
HETATM   10  C10 UNL     1      22.655   4.019  51.394  1.00  0.00     0.025 C 
HETATM   11  C11 UNL     1      21.411   4.828  51.511  1.00  0.00     0.146 C 
HETATM   12  N1  UNL     1      20.211   3.985  51.607  1.00  0.00    -0.289 N 
HETATM   13  N2  UNL     1      20.458   2.763  52.297  1.00  0.00    -0.157 NA
HETATM   14  C12 UNL     1      20.188   1.771  51.542  1.00  0.00     0.158 C 
HETATM   15  N3  UNL     1      20.823   0.479  51.637  1.00  0.00    -0.338 N 
HETATM   16  C13 UNL     1      19.168   2.268  50.629  1.00  0.00     0.036 A 
HETATM   17  C14 UNL     1      18.618   1.865  49.512  1.00  0.00     0.122 A 
HETATM   18  N4  UNL     1      17.618   2.759  48.977  1.00  0.00    -0.289 N 
HETATM   19  N5  UNL     1      17.327   3.934  49.675  1.00  0.00    -0.189 NA
HETATM   20  C15 UNL     1      17.881   4.295  50.783  1.00  0.00     0.143 A 
HETATM   21  C16 UNL     1      18.886   3.509  51.470  1.00  0.00     0.184 A 
HETATM   22  H13 UNL     1      20.644  -0.256  50.924  1.00  0.00     0.167 HD
HETATM   23  H15 UNL     1      17.167   2.464  48.090  1.00  0.00     0.188 HD
ENDROOT
BRANCH   1  24
HETATM   24  O1  UNL     1      23.294  -1.921  56.032  1.00  0.00    -0.361 OA
HETATM   25  H1  UNL     1      22.933  -2.772  56.408  1.00  0.00     0.217 HD
ENDBRANCH   1  24
TORSDOF 1
ENDMDL
MODEL 4
REMARK VINA RESULT:      -7.9      2.051      3.701
REMARK  1 active torsions:
REMARK  status: ('A' for Active; 'I' for Inactive)
REMARK    1  A    between atoms: O1_1  and  C1_2 
ROOT
HETATM    1  C1  UNL     1      27.533   0.616  54.472  1.00  0.00     0.066 A 
HETATM    2  C2  UNL     1      26.365   0.057  54.942  1.00  0.00     0.039 A 
HETATM    3  C3  UNL     1      25.234   0.040  54.114  1.00  0.00     0.033 A 
HETATM    4  C4  UNL     1      25.191   0.550  52.835  1.00  0.00     0.044 A 
HETATM    5  C5  UNL     1      26.324   1.114  52.324  1.00  0.00    -0.007 A 
HETATM    6  C6  UNL     1      27.444   1.121  53.165  1.00  0.00     0.050 A 
HETATM    7  C7  UNL     1      26.688   1.739  51.068  1.00  0.00     0.010 C 
HETATM    8  C8  UNL     1      26.250   2.793  50.404  1.00  0.00    -0.026 C 
HETATM    9  C9  UNL     1      25.123   3.558  51.033  1.00  0.00     0.029 C 
HETATM   10  C10 UNL     1      23.963   3.627  50.117  1.00  0.00     0.025 C 
HETATM   11  C11 UNL     1      22.679   4.181  50.627  1.00  0.00     0.146 C 
HETATM   12  N1  UNL     1      22.042   3.287  51.603  1.00  0.00    -0.289 N 
HETATM   13  N2  UNL     1      22.992   2.573  52.389  1.00  0.00    -0.157 NA
HETATM   14  C12 UNL     1      22.826   1.317  52.246  1.00  0.00     0.158 C 
HETATM   15  N3  UNL     1      23.875   0.336  52.378  1.00  0.00    -0.338 N 
HETATM   16  C13 UNL     1      21.414   1.166  51.921  1.00  0.00     0.036 A 
HETATM   17  C14 UNL     1      20.644   0.214  51.460  1.00  0.00     0.122 A 
HETATM   18  N4  UNL     1      19.257   0.585  51.301  1.00  0.00    -0.289 N 
HETATM   19  N5  UNL     1      18.867   1.883  51.644  1.00  0.00    -0.189 NA
HETATM   20  C15 UNL     1      19.652   2.795  52.109  1.00  0.00     0.143 A 
HETATM   21  C16 UNL     1      21.066   2.587  52.352  1.00  0.00     0.184 A 
HETATM   22  H13 UNL     1      23.705  -0.661  52.138  1.00  0.00     0.167 HD
HETATM   23  H15 UNL     1      18.625  -0.151  50.935  1.00  0.00     0.188 HD
ENDROOT
BRANCH   1  24
HETATM   24  O1  UNL     1      28.654   0.650  55.249  1.00  0.00    -0.361 OA
HETATM   25  H1  UNL     1      29.490   0.144  55.043  1.00  0.00     0.217 HD
ENDBRANCH   1  24
TORSDOF 1
ENDMDL
MODEL 5
REMARK VINA RESULT:      -7.9      2.337      3.379
REMARK  1 active torsions:
REMARK  status: ('A' for Active; 'I' for Inactive)
REMARK    1  A    between atoms: O1_1  and  C1_2 
ROOT
HETATM    1  C1  UNL     1      26.031  -0.638  52.993  1.00  0.00     0.066 A 
HETATM    2  C2  UNL     1      26.600   0.243  52.100  1.00  0.00     0.039 A 
HETATM    3  C3  UNL     1      25.820   1.283  51.574  1.00  0.00     0.033 A 
HETATM    4  C4  UNL     1      24.496   1.503  51.883  1.00  0.00     0.044 A 
HETATM    5  C5  UNL     1      23.888   0.657  52.764  1.00  0.00    -0.007 A 
HETATM    6  C6  UNL     1      24.683  -0.375  53.280  1.00  0.00     0.050 A 
HETATM    7  C7  UNL     1      22.560   0.545  53.337  1.00  0.00     0.010 C 
HETATM    8  C8  UNL     1      21.352   0.371  52.833  1.00  0.00    -0.026 C 
HETATM    9  C9  UNL     1      21.262   0.261  51.339  1.00  0.00     0.029 C 
HETATM   10  C10 UNL     1      20.357   1.297  50.793  1.00  0.00     0.025 C 
HETATM   11  C11 UNL     1      20.279   1.474  49.317  1.00  0.00     0.146 C 
HETATM   12  N1  UNL     1      21.513   2.051  48.765  1.00  0.00    -0.289 N 
HETATM   13  N2  UNL     1      22.675   1.634  49.477  1.00  0.00    -0.157 NA
HETATM   14  C12 UNL     1      23.291   2.648  49.942  1.00  0.00     0.158 C 
HETATM   15  N3  UNL     1      24.106   2.630  51.133  1.00  0.00    -0.338 N 
HETATM   16  C13 UNL     1      22.958   3.734  49.030  1.00  0.00     0.036 A 
HETATM   17  C14 UNL     1      23.071   5.038  49.028  1.00  0.00     0.122 A 
HETATM   18  N4  UNL     1      22.559   5.684  47.842  1.00  0.00    -0.289 N 
HETATM   19  N5  UNL     1      22.010   4.890  46.831  1.00  0.00    -0.189 NA
HETATM   20  C15 UNL     1      21.926   3.603  46.861  1.00  0.00     0.143 A 
HETATM   21  C16 UNL     1      22.410   2.795  47.962  1.00  0.00     0.184 A 
HETATM   22  H13 UNL     1      24.492   3.511  51.527  1.00  0.00     0.167 HD
HETATM   23  H15 UNL     1      22.634   6.718  47.815  1.00  0.00     0.188 HD
ENDROOT
BRANCH   1  24
HETATM   24  O1  UNL     1      26.759  -1.661  53.526  1.00  0.00    -0.361 OA
HETATM   25  H1  UNL     1      26.426  -2.599  53.605  1.00  0.00     0.217 HD
ENDBRANCH   1  24
TORSDOF 1
ENDMDL
MODEL 6
REMARK VINA RESULT:      -7.8      3.419      6.388
REMARK  1 active torsions:
REMARK  status: ('A' for Active; 'I' for Inactive)
REMARK    1  A    between atoms: O1_1  and  C1_2 
ROOT
HETATM    1  C1  UNL     1      20.133   3.010  51.987  1.00  0.00     0.066 A 
HETATM    2  C2  UNL     1      21.391   3.401  51.585  1.00  0.00     0.039 A 
HETATM    3  C3  UNL     1      22.447   2.480  51.650  1.00  0.00     0.033 A 
HETATM    4  C4  UNL     1      22.328   1.182  52.096  1.00  0.00     0.044 A 
HETATM    5  C5  UNL     1      21.101   0.748  52.505  1.00  0.00    -0.007 A 
HETATM    6  C6  UNL     1      20.058   1.681  52.432  1.00  0.00     0.050 A 
HETATM    7  C7  UNL     1      20.567  -0.497  53.022  1.00  0.00     0.010 C 
HETATM    8  C8  UNL     1      20.827  -1.239  54.083  1.00  0.00    -0.026 C 
HETATM    9  C9  UNL     1      21.907  -0.741  54.998  1.00  0.00     0.029 C 
HETATM   10  C10 UNL     1      22.974  -1.756  55.147  1.00  0.00     0.025 C 
HETATM   11  C11 UNL     1      24.224  -1.382  55.864  1.00  0.00     0.146 C 
HETATM   12  N1  UNL     1      25.035  -0.428  55.097  1.00  0.00    -0.289 N 
HETATM   13  N2  UNL     1      24.239   0.466  54.323  1.00  0.00    -0.157 NA
HETATM   14  C12 UNL     1      24.535   0.360  53.088  1.00  0.00     0.158 C 
HETATM   15  N3  UNL     1      23.618   0.623  52.005  1.00  0.00    -0.338 N 
HETATM   16  C13 UNL     1      25.924  -0.077  53.077  1.00  0.00     0.036 A 
HETATM   17  C14 UNL     1      26.758  -0.563  52.192  1.00  0.00     0.122 A 
HETATM   18  N4  UNL     1      28.076  -0.856  52.705  1.00  0.00    -0.289 N 
HETATM   19  N5  UNL     1      28.342  -0.602  54.054  1.00  0.00    -0.189 NA
HETATM   20  C15 UNL     1      27.498  -0.110  54.896  1.00  0.00     0.143 A 
HETATM   21  C16 UNL     1      26.142   0.263  54.547  1.00  0.00     0.184 A 
HETATM   22  H13 UNL     1      23.881   0.411  51.022  1.00  0.00     0.167 HD
HETATM   23  H15 UNL     1      28.756  -1.244  52.025  1.00  0.00     0.188 HD
ENDROOT
BRANCH   1  24
HETATM   24  O1  UNL     1      19.082   3.879  51.937  1.00  0.00    -0.361 OA
HETATM   25  H1  UNL     1      18.315   3.789  51.304  1.00  0.00     0.217 HD
ENDBRANCH   1  24
TORSDOF 1
ENDMDL
MODEL 7
REMARK VINA RESULT:      -7.6      3.297      6.268
REMARK  1 active torsions:
REMARK  status: ('A' for Active; 'I' for Inactive)
REMARK    1  A    between atoms: O1_1  and  C1_2 
ROOT
HETATM    1  C1  UNL     1      21.351   4.948  50.436  1.00  0.00     0.066 A 
HETATM    2  C2  UNL     1      22.710   5.115  50.592  1.00  0.00     0.039 A 
HETATM    3  C3  UNL     1      23.521   3.985  50.773  1.00  0.00     0.033 A 
HETATM    4  C4  UNL     1      23.060   2.687  50.810  1.00  0.00     0.044 A 
HETATM    5  C5  UNL     1      21.722   2.471  50.660  1.00  0.00    -0.007 A 
HETATM    6  C6  UNL     1      20.928   3.611  50.479  1.00  0.00     0.050 A 
HETATM    7  C7  UNL     1      20.862   1.303  50.635  1.00  0.00     0.010 C 
HETATM    8  C8  UNL     1      20.595   0.340  51.498  1.00  0.00    -0.026 C 
HETATM    9  C9  UNL     1      21.307   0.407  52.816  1.00  0.00     0.029 C 
HETATM   10  C10 UNL     1      22.084  -0.831  53.054  1.00  0.00     0.025 C 
HETATM   11  C11 UNL     1      23.010  -0.883  54.218  1.00  0.00     0.146 C 
HETATM   12  N1  UNL     1      24.177  -0.010  54.035  1.00  0.00    -0.289 N 
HETATM   13  N2  UNL     1      23.867   1.165  53.292  1.00  0.00    -0.157 NA
HETATM   14  C12 UNL     1      24.589   1.225  52.244  1.00  0.00     0.158 C 
HETATM   15  N3  UNL     1      24.197   1.880  51.019  1.00  0.00    -0.338 N 
HETATM   16  C13 UNL     1      25.803   0.497  52.589  1.00  0.00     0.036 A 
HETATM   17  C14 UNL     1      26.831   0.008  51.944  1.00  0.00     0.122 A 
HETATM   18  N4  UNL     1      27.802  -0.661  52.777  1.00  0.00    -0.289 N 
HETATM   19  N5  UNL     1      27.572  -0.725  54.154  1.00  0.00    -0.189 NA
HETATM   20  C15 UNL     1      26.551  -0.220  54.760  1.00  0.00     0.143 A 
HETATM   21  C16 UNL     1      25.495   0.504  54.082  1.00  0.00     0.184 A 
HETATM   22  H13 UNL     1      24.778   1.799  50.162  1.00  0.00     0.167 HD
HETATM   23  H15 UNL     1      28.627  -1.060  52.291  1.00  0.00     0.188 HD
ENDROOT
BRANCH   1  24
HETATM   24  O1  UNL     1      20.531   6.023  50.257  1.00  0.00    -0.361 OA
HETATM   25  H1  UNL     1      20.719   6.767  49.618  1.00  0.00     0.217 HD
ENDBRANCH   1  24
TORSDOF 1
ENDMDL
MODEL 8
REMARK VINA RESULT:      -7.5      3.694      6.033
REMARK  1 active torsions:
REMARK  status: ('A' for Active; 'I' for Inactive)
REMARK    1  A    between atoms: O1_1  and  C1_2 
ROOT
HETATM    1  C1  UNL     1      24.238   5.624  49.174  1.00  0.00     0.066 A 
HETATM    2  C2  UNL     1      24.736   5.366  50.432  1.00  0.00     0.039 A 
HETATM    3  C3  UNL     1      24.567   4.089  50.985  1.00  0.00     0.033 A 
HETATM    4  C4  UNL     1      23.925   3.042  50.359  1.00  0.00     0.044 A 
HETATM    5  C5  UNL     1      23.414   3.249  49.111  1.00  0.00    -0.007 A 
HETATM    6  C6  UNL     1      23.594   4.531  48.575  1.00  0.00     0.050 A 
HETATM    7  C7  UNL     1      22.696   2.442  48.144  1.00  0.00     0.010 C 
HETATM    8  C8  UNL     1      21.544   1.797  48.158  1.00  0.00    -0.026 C 
HETATM    9  C9  UNL     1      20.752   1.873  49.430  1.00  0.00     0.029 C 
HETATM   10  C10 UNL     1      20.486   0.517  49.961  1.00  0.00     0.025 C 
HETATM   11  C11 UNL     1      19.876   0.384  51.313  1.00  0.00     0.146 C 
HETATM   12  N1  UNL     1      20.806   0.779  52.379  1.00  0.00    -0.289 N 
HETATM   13  N2  UNL     1      21.680   1.832  51.978  1.00  0.00    -0.157 NA
HETATM   14  C12 UNL     1      22.894   1.456  52.077  1.00  0.00     0.158 C 
HETATM   15  N3  UNL     1      23.973   1.963  51.265  1.00  0.00    -0.338 N 
HETATM   16  C13 UNL     1      22.885   0.451  53.132  1.00  0.00     0.036 A 
HETATM   17  C14 UNL     1      23.712  -0.457  53.582  1.00  0.00     0.122 A 
HETATM   18  N4  UNL     1      23.205  -1.239  54.686  1.00  0.00    -0.289 N 
HETATM   19  N5  UNL     1      21.921  -0.966  55.166  1.00  0.00    -0.189 NA
HETATM   20  C15 UNL     1      21.135  -0.053  54.704  1.00  0.00     0.143 A 
HETATM   21  C16 UNL     1      21.491   0.836  53.616  1.00  0.00     0.184 A 
HETATM   22  H13 UNL     1      24.920   1.539  51.313  1.00  0.00     0.167 HD
HETATM   23  H15 UNL     1      23.840  -1.967  55.062  1.00  0.00     0.188 HD
ENDROOT
BRANCH   1  24
HETATM   24  O1  UNL     1      24.384   6.855  48.603  1.00  0.00    -0.361 OA
HETATM   25  H1  UNL     1      24.855   7.015  47.738  1.00  0.00     0.217 HD
ENDBRANCH   1  24
TORSDOF 1
ENDMDL
MODEL 9
REMARK VINA RESULT:      -7.4      2.126      3.519
REMARK  1 active torsions:
REMARK  status: ('A' for Active; 'I' for Inactive)
REMARK    1  A    between atoms: O1_1  and  C1_2 
ROOT
HETATM    1  C1  UNL     1      25.174  -0.026  53.911  1.00  0.00     0.066 A 
HETATM    2  C2  UNL     1      25.760   1.194  53.654  1.00  0.00     0.039 A 
HETATM    3  C3  UNL     1      24.993   2.210  53.067  1.00  0.00     0.033 A 
HETATM    4  C4  UNL     1      23.666   2.087  52.715  1.00  0.00     0.044 A 
HETATM    5  C5  UNL     1      23.042   0.897  52.951  1.00  0.00    -0.007 A 
HETATM    6  C6  UNL     1      23.823  -0.106  53.539  1.00  0.00     0.050 A 
HETATM    7  C7  UNL     1      21.705   0.375  52.741  1.00  0.00     0.010 C 
HETATM    8  C8  UNL     1      20.944   0.196  51.677  1.00  0.00    -0.026 C 
HETATM    9  C9  UNL     1      21.531   0.608  50.359  1.00  0.00     0.029 C 
HETATM   10  C10 UNL     1      20.668   1.608  49.692  1.00  0.00     0.025 C 
HETATM   11  C11 UNL     1      21.169   2.280  48.462  1.00  0.00     0.146 C 
HETATM   12  N1  UNL     1      22.271   3.207  48.750  1.00  0.00    -0.289 N 
HETATM   13  N2  UNL     1      23.090   2.761  49.828  1.00  0.00    -0.157 NA
HETATM   14  C12 UNL     1      23.102   3.632  50.759  1.00  0.00     0.158 C 
HETATM   15  N3  UNL     1      23.299   3.327  52.156  1.00  0.00    -0.338 N 
HETATM   16  C13 UNL     1      22.863   4.900  50.084  1.00  0.00     0.036 A 
HETATM   17  C14 UNL     1      22.552   6.120  50.440  1.00  0.00     0.122 A 
HETATM   18  N4  UNL     1      22.415   7.051  49.345  1.00  0.00    -0.289 N 
HETATM   19  N5  UNL     1      22.622   6.588  48.042  1.00  0.00    -0.189 NA
HETATM   20  C15 UNL     1      22.940   5.378  47.727  1.00  0.00     0.143 A 
HETATM   21  C16 UNL     1      23.141   4.323  48.700  1.00  0.00     0.184 A 
HETATM   22  H13 UNL     1      23.185   4.062  52.882  1.00  0.00     0.167 HD
HETATM   23  H15 UNL     1      22.167   8.025  49.600  1.00  0.00     0.188 HD
ENDROOT
BRANCH   1  24
HETATM   24  O1  UNL     1      25.889  -1.038  54.482  1.00  0.00    -0.361 OA
HETATM   25  H1  UNL     1      25.581  -1.988  54.516  1.00  0.00     0.217 HD
ENDBRANCH   1  24
TORSDOF 1
ENDMDL
