MODEL 1
REMARK VINA RESULT:      -8.5      0.000      0.000
REMARK  6 active torsions:
REMARK  status: ('A' for Active; 'I' for Inactive)
REMARK    1  A    between atoms: N1_2  and  C3_4 
REMARK    2  A    between atoms: C3_4  and  C4_5 
REMARK    3  A    between atoms: C4_5  and  C5_6 
REMARK    4  A    between atoms: C5_6  and  C6_7 
REMARK       I    between atoms: C6_7  and  N2_9 
REMARK    5  A    between atoms: N2_9  and  C7_10 
REMARK    6  A    between atoms: C14_19  and  N5_20 
ROOT
HETATM    1  C7  UNL     1      23.069   1.845  50.803  1.00  0.00     0.035 A 
HETATM    2  C8  UNL     1      21.856   1.223  50.991  1.00  0.00     0.030 A 
HETATM    3  C9  UNL     1      21.569   0.324  51.994  1.00  0.00     0.016 A 
HETATM    4  C10 UNL     1      22.551  -0.005  52.899  1.00  0.00     0.000 A 
HETATM    5  C11 UNL     1      22.365  -0.885  53.917  1.00  0.00     0.073 A 
HETATM    6  C12 UNL     1      21.098  -1.498  54.066  1.00  0.00     0.102 C 
HETATM    7  N3  UNL     1      20.057  -2.000  54.192  1.00  0.00    -0.191 NA
HETATM    8  C13 UNL     1      23.421  -1.146  54.763  1.00  0.00     0.142 A 
HETATM    9  N4  UNL     1      24.628  -0.539  54.591  1.00  0.00    -0.241 NA
HETATM   10  C14 UNL     1      24.824   0.336  53.586  1.00  0.00     0.140 A 
HETATM   11  C20 UNL     1      23.774   0.602  52.734  1.00  0.00     0.024 A 
HETATM   12  C21 UNL     1      24.031   1.496  51.723  1.00  0.00     0.045 A 
ENDROOT
BRANCH  10  13
HETATM   13  N5  UNL     1      26.129   0.881  53.587  1.00  0.00    -0.336 N 
HETATM   14  C15 UNL     1      27.062  -0.222  53.540  1.00  0.00     0.112 A 
HETATM   15  C16 UNL     1      28.400  -0.113  53.510  1.00  0.00     0.026 A 
HETATM   16 BR1  UNL     1      29.679  -1.536  53.447  1.00  0.00    -0.050 Br
HETATM   17  C17 UNL     1      29.004   1.236  53.533  1.00  0.00     0.018 A 
HETATM   18  C18 UNL     1      28.138   2.233  53.582  1.00  0.00    -0.005 A 
HETATM   19  C19 UNL     1      26.654   2.209  53.618  1.00  0.00     0.157 A 
ENDBRANCH  10  13
BRANCH   1  20
HETATM   20  N2  UNL     1      23.396   2.771  49.788  1.00  0.00    -0.327 N 
HETATM   21  C6  UNL     1      23.081   4.144  49.680  1.00  0.00     0.222 C 
HETATM   22  O1  UNL     1      22.410   4.656  50.606  1.00  0.00    -0.273 OA
HETATM   23  H13 UNL     1      23.956   2.434  48.971  1.00  0.00     0.169 HD
BRANCH  21  24
HETATM   24  C5  UNL     1      23.519   4.958  48.522  1.00  0.00     0.105 C 
BRANCH  24  25
HETATM   25  C4  UNL     1      24.466   6.046  48.887  1.00  0.00     0.039 C 
BRANCH  25  26
HETATM   26  C3  UNL     1      25.656   5.613  49.691  1.00  0.00     0.271 C 
BRANCH  26  27
HETATM   27  N1  UNL     1      26.459   4.641  48.957  1.00  0.00     0.080 N 
HETATM   28  C1  UNL     1      26.777   3.496  49.790  1.00  0.00     0.309 C 
HETATM   29  C2  UNL     1      27.736   5.237  48.558  1.00  0.00     0.309 C 
ENDBRANCH  26  27
ENDBRANCH  25  26
ENDBRANCH  24  25
ENDBRANCH  21  24
ENDBRANCH   1  20
TORSDOF 6
ENDMDL
MODEL 2
REMARK VINA RESULT:      -8.3      2.242      3.540
REMARK  6 active torsions:
REMARK  status: ('A' for Active; 'I' for Inactive)
REMARK    1  A    between atoms: N1_2  and  C3_4 
REMARK    2  A    between atoms: C3_4  and  C4_5 
REMARK    3  A    between atoms: C4_5  and  C5_6 
REMARK    4  A    between atoms: C5_6  and  C6_7 
REMARK       I    between atoms: C6_7  and  N2_9 
REMARK    5  A    between atoms: N2_9  and  C7_10 
REMARK    6  A    between atoms: C14_19  and  N5_20 
ROOT
HETATM    1  C7  UNL     1      25.791   3.628  49.650  1.00  0.00     0.035 A 
HETATM    2  C8  UNL     1      24.466   3.588  49.280  1.00  0.00     0.030 A 
HETATM    3  C9  UNL     1      23.487   2.848  49.904  1.00  0.00     0.016 A 
HETATM    4  C10 UNL     1      23.824   2.071  50.987  1.00  0.00     0.000 A 
HETATM    5  C11 UNL     1      22.931   1.301  51.663  1.00  0.00     0.073 A 
HETATM    6  C12 UNL     1      21.580   1.296  51.243  1.00  0.00     0.102 C 
HETATM    7  N3  UNL     1      20.469   1.292  50.900  1.00  0.00    -0.191 NA
HETATM    8  C13 UNL     1      23.380   0.556  52.733  1.00  0.00     0.142 A 
HETATM    9  N4  UNL     1      24.688   0.585  53.111  1.00  0.00    -0.241 NA
HETATM   10  C14 UNL     1      25.583   1.344  52.449  1.00  0.00     0.140 A 
HETATM   11  C20 UNL     1      25.143   2.091  51.378  1.00  0.00     0.024 A 
HETATM   12  C21 UNL     1      26.098   2.841  50.736  1.00  0.00     0.045 A 
ENDROOT
BRANCH  10  13
HETATM   13  N5  UNL     1      26.880   1.264  53.005  1.00  0.00    -0.336 N 
HETATM   14  C15 UNL     1      27.310  -0.113  52.912  1.00  0.00     0.112 A 
HETATM   15  C16 UNL     1      28.497  -0.591  53.320  1.00  0.00     0.026 A 
HETATM   16 BR1  UNL     1      29.116  -2.400  53.220  1.00  0.00    -0.050 Br
HETATM   17  C17 UNL     1      29.469   0.343  53.926  1.00  0.00     0.018 A 
HETATM   18  C18 UNL     1      29.059   1.596  54.009  1.00  0.00    -0.005 A 
HETATM   19  C19 UNL     1      27.775   2.212  53.589  1.00  0.00     0.157 A 
ENDBRANCH  10  13
BRANCH   1  20
HETATM   20  N2  UNL     1      26.818   4.376  49.033  1.00  0.00    -0.327 N 
HETATM   21  C6  UNL     1      26.931   5.772  48.843  1.00  0.00     0.222 C 
HETATM   22  O1  UNL     1      25.998   6.490  49.272  1.00  0.00    -0.273 OA
HETATM   23  H13 UNL     1      27.641   3.862  48.643  1.00  0.00     0.169 HD
BRANCH  21  24
HETATM   24  C5  UNL     1      28.102   6.375  48.163  1.00  0.00     0.105 C 
BRANCH  24  25
HETATM   25  C4  UNL     1      29.315   5.513  48.195  1.00  0.00     0.039 C 
BRANCH  25  26
HETATM   26  C3  UNL     1      30.612   6.245  48.369  1.00  0.00     0.271 C 
BRANCH  26  27
HETATM   27  N1  UNL     1      31.718   5.313  48.558  1.00  0.00     0.080 N 
HETATM   28  C1  UNL     1      32.978   6.023  48.687  1.00  0.00     0.309 C 
HETATM   29  C2  UNL     1      31.849   4.437  47.391  1.00  0.00     0.309 C 
ENDBRANCH  26  27
ENDBRANCH  25  26
ENDBRANCH  24  25
ENDBRANCH  21  24
ENDBRANCH   1  20
TORSDOF 6
ENDMDL
MODEL 3
REMARK VINA RESULT:      -8.2      1.729      2.545
REMARK  6 active torsions:
REMARK  status: ('A' for Active; 'I' for Inactive)
REMARK    1  A    between atoms: N1_2  and  C3_4 
REMARK    2  A    between atoms: C3_4  and  C4_5 
REMARK    3  A    between atoms: C4_5  and  C5_6 
REMARK    4  A    between atoms: C5_6  and  C6_7 
REMARK       I    between atoms: C6_7  and  N2_9 
REMARK    5  A    between atoms: N2_9  and  C7_10 
REMARK    6  A    between atoms: C14_19  and  N5_20 
ROOT
HETATM    1  C7  UNL     1      24.721   3.056  50.136  1.00  0.00     0.035 A 
HETATM    2  C8  UNL     1      23.378   2.853  49.918  1.00  0.00     0.030 A 
HETATM    3  C9  UNL     1      22.573   2.000  50.640  1.00  0.00     0.016 A 
HETATM    4  C10 UNL     1      23.123   1.274  51.671  1.00  0.00     0.000 A 
HETATM    5  C11 UNL     1      22.413   0.404  52.435  1.00  0.00     0.073 A 
HETATM    6  C12 UNL     1      21.034   0.231  52.169  1.00  0.00     0.102 C 
HETATM    7  N3  UNL     1      19.900   0.090  51.953  1.00  0.00    -0.191 NA
HETATM    8  C13 UNL     1      23.067  -0.277  53.439  1.00  0.00     0.142 A 
HETATM    9  N4  UNL     1      24.396  -0.087  53.668  1.00  0.00    -0.241 NA
HETATM   10  C14 UNL     1      25.111   0.774  52.918  1.00  0.00     0.140 A 
HETATM   11  C20 UNL     1      24.465   1.458  51.911  1.00  0.00     0.024 A 
HETATM   12  C21 UNL     1      25.243   2.316  51.173  1.00  0.00     0.045 A 
ENDROOT
BRANCH  10  13
HETATM   13  N5  UNL     1      26.463   0.856  53.324  1.00  0.00    -0.336 N 
HETATM   14  C15 UNL     1      27.045  -0.458  53.165  1.00  0.00     0.112 A 
HETATM   15  C16 UNL     1      28.320  -0.785  53.431  1.00  0.00     0.026 A 
HETATM   16 BR1  UNL     1      29.143  -2.503  53.238  1.00  0.00    -0.050 Br
HETATM   17  C17 UNL     1      29.232   0.264  53.936  1.00  0.00     0.018 A 
HETATM   18  C18 UNL     1      28.683   1.457  54.081  1.00  0.00    -0.005 A 
HETATM   19  C19 UNL     1      27.294   1.908  53.816  1.00  0.00     0.157 A 
ENDBRANCH  10  13
BRANCH   1  20
HETATM   20  N2  UNL     1      25.573   3.922  49.416  1.00  0.00    -0.327 N 
HETATM   21  C6  UNL     1      25.765   5.316  49.546  1.00  0.00     0.222 C 
HETATM   22  O1  UNL     1      25.096   5.911  50.422  1.00  0.00    -0.273 OA
HETATM   23  H13 UNL     1      26.172   3.515  48.661  1.00  0.00     0.169 HD
BRANCH  21  24
HETATM   24  C5  UNL     1      26.717   6.057  48.684  1.00  0.00     0.105 C 
BRANCH  24  25
HETATM   25  C4  UNL     1      27.974   5.309  48.411  1.00  0.00     0.039 C 
BRANCH  25  26
HETATM   26  C3  UNL     1      29.153   6.159  48.040  1.00  0.00     0.271 C 
BRANCH  26  27
HETATM   27  N1  UNL     1      28.758   7.550  47.850  1.00  0.00     0.080 N 
HETATM   28  C1  UNL     1      28.982   7.970  46.479  1.00  0.00     0.309 C 
HETATM   29  C2  UNL     1      29.570   8.429  48.695  1.00  0.00     0.309 C 
ENDBRANCH  26  27
ENDBRANCH  25  26
ENDBRANCH  24  25
ENDBRANCH  21  24
ENDBRANCH   1  20
TORSDOF 6
ENDMDL
MODEL 4
REMARK VINA RESULT:      -8.0      3.057      6.369
REMARK  6 active torsions:
REMARK  status: ('A' for Active; 'I' for Inactive)
REMARK    1  A    between atoms: N1_2  and  C3_4 
REMARK    2  A    between atoms: C3_4  and  C4_5 
REMARK    3  A    between atoms: C4_5  and  C5_6 
REMARK    4  A    between atoms: C5_6  and  C6_7 
REMARK       I    between atoms: C6_7  and  N2_9 
REMARK    5  A    between atoms: N2_9  and  C7_10 
REMARK    6  A    between atoms: C14_19  and  N5_20 
ROOT
HETATM    1  C7  UNL     1      22.776  -0.041  52.729  1.00  0.00     0.035 A 
HETATM    2  C8  UNL     1      23.623  -0.667  53.615  1.00  0.00     0.030 A 
HETATM    3  C9  UNL     1      24.948  -0.350  53.810  1.00  0.00     0.016 A 
HETATM    4  C10 UNL     1      25.506   0.671  53.076  1.00  0.00     0.000 A 
HETATM    5  C11 UNL     1      26.805   1.053  53.193  1.00  0.00     0.073 A 
HETATM    6  C12 UNL     1      27.634   0.375  54.118  1.00  0.00     0.102 C 
HETATM    7  N3  UNL     1      28.316  -0.178  54.880  1.00  0.00    -0.191 NA
HETATM    8  C13 UNL     1      27.262   2.085  52.403  1.00  0.00     0.142 A 
HETATM    9  N4  UNL     1      26.436   2.716  51.521  1.00  0.00    -0.241 NA
HETATM   10  C14 UNL     1      25.147   2.347  51.397  1.00  0.00     0.140 A 
HETATM   11  C20 UNL     1      24.682   1.314  52.182  1.00  0.00     0.024 A 
HETATM   12  C21 UNL     1      23.362   0.975  52.009  1.00  0.00     0.045 A 
ENDROOT
BRANCH  10  13
HETATM   13  N5  UNL     1      24.445   3.134  50.455  1.00  0.00    -0.336 N 
HETATM   14  C15 UNL     1      24.482   4.503  50.918  1.00  0.00     0.112 A 
HETATM   15  C16 UNL     1      23.938   5.556  50.287  1.00  0.00     0.026 A 
HETATM   16 BR1  UNL     1      23.957   7.385  50.853  1.00  0.00    -0.050 Br
HETATM   17  C17 UNL     1      23.229   5.331  49.010  1.00  0.00     0.018 A 
HETATM   18  C18 UNL     1      23.199   4.074  48.604  1.00  0.00    -0.005 A 
HETATM   19  C19 UNL     1      23.767   2.854  49.230  1.00  0.00     0.157 A 
ENDBRANCH  10  13
BRANCH   1  20
HETATM   20  N2  UNL     1      21.414  -0.341  52.506  1.00  0.00    -0.327 N 
HETATM   21  C6  UNL     1      20.283  -0.056  53.304  1.00  0.00     0.222 C 
HETATM   22  O1  UNL     1      20.475   0.553  54.381  1.00  0.00    -0.273 OA
HETATM   23  H13 UNL     1      21.155  -0.851  51.630  1.00  0.00     0.169 HD
BRANCH  21  24
HETATM   24  C5  UNL     1      18.916  -0.460  52.894  1.00  0.00     0.105 C 
BRANCH  24  25
HETATM   25  C4  UNL     1      18.468   0.175  51.624  1.00  0.00     0.039 C 
BRANCH  25  26
HETATM   26  C3  UNL     1      18.387   1.672  51.653  1.00  0.00     0.271 C 
BRANCH  26  27
HETATM   27  N1  UNL     1      19.190   2.261  50.587  1.00  0.00     0.080 N 
HETATM   28  C1  UNL     1      19.754   1.231  49.734  1.00  0.00     0.309 C 
HETATM   29  C2  UNL     1      20.320   3.003  51.151  1.00  0.00     0.309 C 
ENDBRANCH  26  27
ENDBRANCH  25  26
ENDBRANCH  24  25
ENDBRANCH  21  24
ENDBRANCH   1  20
TORSDOF 6
ENDMDL
MODEL 5
REMARK VINA RESULT:      -7.8      3.347      5.457
REMARK  6 active torsions:
REMARK  status: ('A' for Active; 'I' for Inactive)
REMARK    1  A    between atoms: N1_2  and  C3_4 
REMARK    2  A    between atoms: C3_4  and  C4_5 
REMARK    3  A    between atoms: C4_5  and  C5_6 
REMARK    4  A    between atoms: C5_6  and  C6_7 
REMARK       I    between atoms: C6_7  and  N2_9 
REMARK    5  A    between atoms: N2_9  and  C7_10 
REMARK    6  A    between atoms: C14_19  and  N5_20 
ROOT
HETATM    1  C7  UNL     1      25.794   3.393  50.899  1.00  0.00     0.035 A 
HETATM    2  C8  UNL     1      26.837   2.543  51.187  1.00  0.00     0.030 A 
HETATM    3  C9  UNL     1      26.727   1.341  51.848  1.00  0.00     0.016 A 
HETATM    4  C10 UNL     1      25.487   0.922  52.272  1.00  0.00     0.000 A 
HETATM    5  C11 UNL     1      25.278  -0.244  52.936  1.00  0.00     0.073 A 
HETATM    6  C12 UNL     1      26.385  -1.082  53.207  1.00  0.00     0.102 C 
HETATM    7  N3  UNL     1      27.293  -1.773  53.430  1.00  0.00    -0.191 NA
HETATM    8  C13 UNL     1      23.993  -0.563  53.320  1.00  0.00     0.142 A 
HETATM    9  N4  UNL     1      22.949   0.267  53.043  1.00  0.00    -0.241 NA
HETATM   10  C14 UNL     1      23.144   1.426  52.384  1.00  0.00     0.140 A 
HETATM   11  C20 UNL     1      24.425   1.753  51.997  1.00  0.00     0.024 A 
HETATM   12  C21 UNL     1      24.567   2.948  51.335  1.00  0.00     0.045 A 
ENDROOT
BRANCH  10  13
HETATM   13  N5  UNL     1      21.940   2.135  52.166  1.00  0.00    -0.336 N 
HETATM   14  C15 UNL     1      20.916   1.167  51.846  1.00  0.00     0.112 A 
HETATM   15  C16 UNL     1      19.628   1.448  51.588  1.00  0.00     0.026 A 
HETATM   16 BR1  UNL     1      18.233   0.208  51.161  1.00  0.00    -0.050 Br
HETATM   17  C17 UNL     1      19.188   2.859  51.620  1.00  0.00     0.018 A 
HETATM   18  C18 UNL     1      20.137   3.732  51.908  1.00  0.00    -0.005 A 
HETATM   19  C19 UNL     1      21.576   3.516  52.204  1.00  0.00     0.157 A 
ENDBRANCH  10  13
BRANCH   1  20
HETATM   20  N2  UNL     1      25.873   4.631  50.223  1.00  0.00    -0.327 N 
HETATM   21  C6  UNL     1      26.738   5.039  49.183  1.00  0.00     0.222 C 
HETATM   22  O1  UNL     1      27.578   4.206  48.770  1.00  0.00    -0.273 OA
HETATM   23  H13 UNL     1      25.210   5.391  50.501  1.00  0.00     0.169 HD
BRANCH  21  24
HETATM   24  C5  UNL     1      26.667   6.399  48.597  1.00  0.00     0.105 C 
BRANCH  24  25
HETATM   25  C4  UNL     1      27.915   6.808  47.896  1.00  0.00     0.039 C 
BRANCH  25  26
HETATM   26  C3  UNL     1      28.801   7.740  48.667  1.00  0.00     0.271 C 
BRANCH  26  27
HETATM   27  N1  UNL     1      30.206   7.511  48.348  1.00  0.00     0.080 N 
HETATM   28  C1  UNL     1      30.579   6.132  48.608  1.00  0.00     0.309 C 
HETATM   29  C2  UNL     1      31.062   8.343  49.196  1.00  0.00     0.309 C 
ENDBRANCH  26  27
ENDBRANCH  25  26
ENDBRANCH  24  25
ENDBRANCH  21  24
ENDBRANCH   1  20
TORSDOF 6
ENDMDL
MODEL 6
REMARK VINA RESULT:      -7.7      3.303      5.552
REMARK  6 active torsions:
REMARK  status: ('A' for Active; 'I' for Inactive)
REMARK    1  A    between atoms: N1_2  and  C3_4 
REMARK    2  A    between atoms: C3_4  and  C4_5 
REMARK    3  A    between atoms: C4_5  and  C5_6 
REMARK    4  A    between atoms: C5_6  and  C6_7 
REMARK       I    between atoms: C6_7  and  N2_9 
REMARK    5  A    between atoms: N2_9  and  C7_10 
REMARK    6  A    between atoms: C14_19  and  N5_20 
ROOT
HETATM    1  C7  UNL     1      25.381   2.939  51.521  1.00  0.00     0.035 A 
HETATM    2  C8  UNL     1      26.062   2.340  52.556  1.00  0.00     0.030 A 
HETATM    3  C9  UNL     1      25.603   1.278  53.302  1.00  0.00     0.016 A 
HETATM    4  C10 UNL     1      24.366   0.746  53.020  1.00  0.00     0.000 A 
HETATM    5  C11 UNL     1      23.826  -0.297  53.703  1.00  0.00     0.073 A 
HETATM    6  C12 UNL     1      24.568  -0.877  54.760  1.00  0.00     0.102 C 
HETATM    7  N3  UNL     1      25.176  -1.356  55.626  1.00  0.00    -0.191 NA
HETATM    8  C13 UNL     1      22.575  -0.746  53.339  1.00  0.00     0.142 A 
HETATM    9  N4  UNL     1      21.888  -0.164  52.317  1.00  0.00    -0.241 NA
HETATM   10  C14 UNL     1      22.414   0.869  51.631  1.00  0.00     0.140 A 
HETATM   11  C20 UNL     1      23.664   1.326  51.989  1.00  0.00     0.024 A 
HETATM   12  C21 UNL     1      24.147   2.386  51.262  1.00  0.00     0.045 A 
ENDROOT
BRANCH  10  13
HETATM   13  N5  UNL     1      21.566   1.319  50.592  1.00  0.00    -0.336 N 
HETATM   14  C15 UNL     1      20.479   2.049  51.203  1.00  0.00     0.112 A 
HETATM   15  C16 UNL     1      19.472   2.648  50.545  1.00  0.00     0.026 A 
HETATM   16 BR1  UNL     1      18.010   3.626  51.301  1.00  0.00    -0.050 Br
HETATM   17  C17 UNL     1      19.441   2.567  49.069  1.00  0.00     0.018 A 
HETATM   18  C18 UNL     1      20.438   1.891  48.527  1.00  0.00    -0.005 A 
HETATM   19  C19 UNL     1      21.585   1.200  49.169  1.00  0.00     0.157 A 
ENDBRANCH  10  13
BRANCH   1  20
HETATM   20  N2  UNL     1      25.823   4.027  50.737  1.00  0.00    -0.327 N 
HETATM   21  C6  UNL     1      26.633   4.038  49.579  1.00  0.00     0.222 C 
HETATM   22  O1  UNL     1      27.043   2.934  49.152  1.00  0.00    -0.273 OA
HETATM   23  H13 UNL     1      25.530   4.992  51.017  1.00  0.00     0.169 HD
BRANCH  21  24
HETATM   24  C5  UNL     1      26.992   5.299  48.889  1.00  0.00     0.105 C 
BRANCH  24  25
HETATM   25  C4  UNL     1      28.386   5.312  48.366  1.00  0.00     0.039 C 
BRANCH  25  26
HETATM   26  C3  UNL     1      28.866   6.641  47.864  1.00  0.00     0.271 C 
BRANCH  26  27
HETATM   27  N1  UNL     1      27.890   7.690  48.140  1.00  0.00     0.080 N 
HETATM   28  C1  UNL     1      27.458   8.333  46.913  1.00  0.00     0.309 C 
HETATM   29  C2  UNL     1      28.491   8.736  48.972  1.00  0.00     0.309 C 
ENDBRANCH  26  27
ENDBRANCH  25  26
ENDBRANCH  24  25
ENDBRANCH  21  24
ENDBRANCH   1  20
TORSDOF 6
ENDMDL
MODEL 7
REMARK VINA RESULT:      -7.7      2.246      3.179
REMARK  6 active torsions:
REMARK  status: ('A' for Active; 'I' for Inactive)
REMARK    1  A    between atoms: N1_2  and  C3_4 
REMARK    2  A    between atoms: C3_4  and  C4_5 
REMARK    3  A    between atoms: C4_5  and  C5_6 
REMARK    4  A    between atoms: C5_6  and  C6_7 
REMARK       I    between atoms: C6_7  and  N2_9 
REMARK    5  A    between atoms: N2_9  and  C7_10 
REMARK    6  A    between atoms: C14_19  and  N5_20 
ROOT
HETATM    1  C7  UNL     1      25.527   2.802  50.404  1.00  0.00     0.035 A 
HETATM    2  C8  UNL     1      24.190   3.129  50.400  1.00  0.00     0.030 A 
HETATM    3  C9  UNL     1      23.221   2.529  51.172  1.00  0.00     0.016 A 
HETATM    4  C10 UNL     1      23.581   1.514  52.028  1.00  0.00     0.000 A 
HETATM    5  C11 UNL     1      22.697   0.857  52.824  1.00  0.00     0.073 A 
HETATM    6  C12 UNL     1      21.333   1.232  52.781  1.00  0.00     0.102 C 
HETATM    7  N3  UNL     1      20.212   1.539  52.750  1.00  0.00    -0.191 NA
HETATM    8  C13 UNL     1      23.166  -0.149  53.640  1.00  0.00     0.142 A 
HETATM    9  N4  UNL     1      24.486  -0.485  53.656  1.00  0.00    -0.241 NA
HETATM   10  C14 UNL     1      25.372   0.160  52.872  1.00  0.00     0.140 A 
HETATM   11  C20 UNL     1      24.912   1.167  52.052  1.00  0.00     0.024 A 
HETATM   12  C21 UNL     1      25.857   1.784  51.270  1.00  0.00     0.045 A 
ENDROOT
BRANCH  10  13
HETATM   13  N5  UNL     1      26.695  -0.309  53.049  1.00  0.00    -0.336 N 
HETATM   14  C15 UNL     1      27.461   0.763  53.643  1.00  0.00     0.112 A 
HETATM   15  C16 UNL     1      28.760   0.701  53.979  1.00  0.00     0.026 A 
HETATM   16 BR1  UNL     1      29.822   2.086  54.767  1.00  0.00    -0.050 Br
HETATM   17  C17 UNL     1      29.500  -0.554  53.730  1.00  0.00     0.018 A 
HETATM   18  C18 UNL     1      28.787  -1.521  53.181  1.00  0.00    -0.005 A 
HETATM   19  C19 UNL     1      27.359  -1.544  52.777  1.00  0.00     0.157 A 
ENDBRANCH  10  13
BRANCH   1  20
HETATM   20  N2  UNL     1      26.545   3.398  49.628  1.00  0.00    -0.327 N 
HETATM   21  C6  UNL     1      26.753   4.756  49.297  1.00  0.00     0.222 C 
HETATM   22  O1  UNL     1      25.931   5.590  49.742  1.00  0.00    -0.273 OA
HETATM   23  H13 UNL     1      27.279   2.779  49.213  1.00  0.00     0.169 HD
BRANCH  21  24
HETATM   24  C5  UNL     1      27.895   5.189  48.458  1.00  0.00     0.105 C 
BRANCH  24  25
HETATM   25  C4  UNL     1      27.891   6.648  48.160  1.00  0.00     0.039 C 
BRANCH  25  26
HETATM   26  C3  UNL     1      29.227   7.323  48.264  1.00  0.00     0.271 C 
BRANCH  26  27
HETATM   27  N1  UNL     1      29.137   8.543  49.059  1.00  0.00     0.080 N 
HETATM   28  C1  UNL     1      27.757   8.846  49.390  1.00  0.00     0.309 C 
HETATM   29  C2  UNL     1      29.645   9.685  48.296  1.00  0.00     0.309 C 
ENDBRANCH  26  27
ENDBRANCH  25  26
ENDBRANCH  24  25
ENDBRANCH  21  24
ENDBRANCH   1  20
TORSDOF 6
ENDMDL
MODEL 8
REMARK VINA RESULT:      -7.5      3.247      5.533
REMARK  6 active torsions:
REMARK  status: ('A' for Active; 'I' for Inactive)
REMARK    1  A    between atoms: N1_2  and  C3_4 
REMARK    2  A    between atoms: C3_4  and  C4_5 
REMARK    3  A    between atoms: C4_5  and  C5_6 
REMARK    4  A    between atoms: C5_6  and  C6_7 
REMARK       I    between atoms: C6_7  and  N2_9 
REMARK    5  A    between atoms: N2_9  and  C7_10 
REMARK    6  A    between atoms: C14_19  and  N5_20 
ROOT
HETATM    1  C7  UNL     1      25.231   3.036  51.447  1.00  0.00     0.035 A 
HETATM    2  C8  UNL     1      25.947   2.446  52.464  1.00  0.00     0.030 A 
HETATM    3  C9  UNL     1      25.530   1.366  53.209  1.00  0.00     0.016 A 
HETATM    4  C10 UNL     1      24.301   0.806  52.946  1.00  0.00     0.000 A 
HETATM    5  C11 UNL     1      23.801  -0.255  53.630  1.00  0.00     0.073 A 
HETATM    6  C12 UNL     1      24.577  -0.826  54.667  1.00  0.00     0.102 C 
HETATM    7  N3  UNL     1      25.214  -1.297  55.518  1.00  0.00    -0.191 NA
HETATM    8  C13 UNL     1      22.554  -0.733  53.286  1.00  0.00     0.142 A 
HETATM    9  N4  UNL     1      21.833  -0.160  52.282  1.00  0.00    -0.241 NA
HETATM   10  C14 UNL     1      22.319   0.892  51.596  1.00  0.00     0.140 A 
HETATM   11  C20 UNL     1      23.564   1.377  51.934  1.00  0.00     0.024 A 
HETATM   12  C21 UNL     1      24.007   2.455  51.207  1.00  0.00     0.045 A 
ENDROOT
BRANCH  10  13
HETATM   13  N5  UNL     1      21.441   1.329  50.578  1.00  0.00    -0.336 N 
HETATM   14  C15 UNL     1      20.338   2.011  51.217  1.00  0.00     0.112 A 
HETATM   15  C16 UNL     1      19.302   2.585  50.584  1.00  0.00     0.026 A 
HETATM   16 BR1  UNL     1      17.819   3.499  51.378  1.00  0.00    -0.050 Br
HETATM   17  C17 UNL     1      19.250   2.527  49.108  1.00  0.00     0.018 A 
HETATM   18  C18 UNL     1      20.262   1.895  48.539  1.00  0.00    -0.005 A 
HETATM   19  C19 UNL     1      21.442   1.234  49.152  1.00  0.00     0.157 A 
ENDBRANCH  10  13
BRANCH   1  20
HETATM   20  N2  UNL     1      25.630   4.142  50.664  1.00  0.00    -0.327 N 
HETATM   21  C6  UNL     1      26.508   4.197  49.558  1.00  0.00     0.222 C 
HETATM   22  O1  UNL     1      27.033   3.122  49.184  1.00  0.00    -0.273 OA
HETATM   23  H13 UNL     1      25.243   5.084  50.902  1.00  0.00     0.169 HD
BRANCH  21  24
HETATM   24  C5  UNL     1      26.805   5.470  48.859  1.00  0.00     0.105 C 
BRANCH  24  25
HETATM   25  C4  UNL     1      26.103   6.645  49.445  1.00  0.00     0.039 C 
BRANCH  25  26
HETATM   26  C3  UNL     1      24.981   7.195  48.616  1.00  0.00     0.271 C 
BRANCH  26  27
HETATM   27  N1  UNL     1      23.757   7.310  49.401  1.00  0.00     0.080 N 
HETATM   28  C1  UNL     1      24.058   7.485  50.810  1.00  0.00     0.309 C 
HETATM   29  C2  UNL     1      22.967   6.082  49.291  1.00  0.00     0.309 C 
ENDBRANCH  26  27
ENDBRANCH  25  26
ENDBRANCH  24  25
ENDBRANCH  21  24
ENDBRANCH   1  20
TORSDOF 6
ENDMDL
MODEL 9
REMARK VINA RESULT:      -7.2      3.491      8.392
REMARK  6 active torsions:
REMARK  status: ('A' for Active; 'I' for Inactive)
REMARK    1  A    between atoms: N1_2  and  C3_4 
REMARK    2  A    between atoms: C3_4  and  C4_5 
REMARK    3  A    between atoms: C4_5  and  C5_6 
REMARK    4  A    between atoms: C5_6  and  C6_7 
REMARK       I    between atoms: C6_7  and  N2_9 
REMARK    5  A    between atoms: N2_9  and  C7_10 
REMARK    6  A    between atoms: C14_19  and  N5_20 
ROOT
HETATM    1  C7  UNL     1      25.040   3.156  50.510  1.00  0.00     0.035 A 
HETATM    2  C8  UNL     1      26.371   3.045  50.178  1.00  0.00     0.030 A 
HETATM    3  C9  UNL     1      27.102   3.990  49.494  1.00  0.00     0.016 A 
HETATM    4  C10 UNL     1      26.485   5.152  49.092  1.00  0.00     0.000 A 
HETATM    5  C11 UNL     1      27.121   6.139  48.407  1.00  0.00     0.073 A 
HETATM    6  C12 UNL     1      28.490   5.976  48.091  1.00  0.00     0.102 C 
HETATM    7  N3  UNL     1      29.616   5.845  47.831  1.00  0.00    -0.191 NA
HETATM    8  C13 UNL     1      26.403   7.259  48.049  1.00  0.00     0.142 A 
HETATM    9  N4  UNL     1      25.085   7.384  48.370  1.00  0.00    -0.241 NA
HETATM   10  C14 UNL     1      24.444   6.413  49.049  1.00  0.00     0.140 A 
HETATM   11  C20 UNL     1      25.154   5.288  49.411  1.00  0.00     0.024 A 
HETATM   12  C21 UNL     1      24.450   4.327  50.094  1.00  0.00     0.045 A 
ENDROOT
BRANCH  10  13
HETATM   13  N5  UNL     1      23.093   6.735  49.313  1.00  0.00    -0.336 N 
HETATM   14  C15 UNL     1      22.340   6.475  48.107  1.00  0.00     0.112 A 
HETATM   15  C16 UNL     1      21.015   6.643  47.961  1.00  0.00     0.026 A 
HETATM   16 BR1  UNL     1      19.970   6.314  46.391  1.00  0.00    -0.050 Br
HETATM   17  C17 UNL     1      20.231   7.140  49.111  1.00  0.00     0.018 A 
HETATM   18  C18 UNL     1      20.934   7.378  50.203  1.00  0.00    -0.005 A 
HETATM   19  C19 UNL     1      22.390   7.225  50.456  1.00  0.00     0.157 A 
ENDBRANCH  10  13
BRANCH   1  20
HETATM   20  N2  UNL     1      24.262   2.207  51.210  1.00  0.00    -0.327 N 
HETATM   21  C6  UNL     1      23.917   2.155  52.579  1.00  0.00     0.222 C 
HETATM   22  O1  UNL     1      24.347   3.070  53.318  1.00  0.00    -0.273 OA
HETATM   23  H13 UNL     1      23.860   1.403  50.675  1.00  0.00     0.169 HD
BRANCH  21  24
HETATM   24  C5  UNL     1      23.080   1.063  53.132  1.00  0.00     0.105 C 
BRANCH  24  25
HETATM   25  C4  UNL     1      23.705  -0.282  53.009  1.00  0.00     0.039 C 
BRANCH  25  26
HETATM   26  C3  UNL     1      25.065  -0.412  53.627  1.00  0.00     0.271 C 
BRANCH  26  27
HETATM   27  N1  UNL     1      26.100  -0.502  52.603  1.00  0.00     0.080 N 
HETATM   28  C1  UNL     1      26.737  -1.806  52.622  1.00  0.00     0.309 C 
HETATM   29  C2  UNL     1      27.154   0.482  52.859  1.00  0.00     0.309 C 
ENDBRANCH  26  27
ENDBRANCH  25  26
ENDBRANCH  24  25
ENDBRANCH  21  24
ENDBRANCH   1  20
TORSDOF 6
ENDMDL
