MODEL 1
REMARK VINA RESULT:      -8.4      0.000      0.000
REMARK  1 active torsions:
REMARK  status: ('A' for Active; 'I' for Inactive)
REMARK    1  A    between atoms: N1_7  and  C7_8 
ROOT
HETATM    1  C7  UNL     1      25.513   2.024  52.011  1.00  0.00     0.143 A 
HETATM    2  N2  UNL     1      24.459   1.622  52.746  1.00  0.00    -0.223 NA
HETATM    3  C8  UNL     1      23.285   2.234  52.522  1.00  0.00     0.236 A 
HETATM    4  N3  UNL     1      23.113   3.214  51.614  1.00  0.00    -0.241 NA
HETATM    5  C9  UNL     1      24.158   3.637  50.863  1.00  0.00     0.072 A 
HETATM    6  C10 UNL     1      24.078   4.630  49.912  1.00  0.00     0.033 A 
HETATM    7  C11 UNL     1      25.180   5.010  49.183  1.00  0.00     0.009 A 
HETATM    8  C12 UNL     1      26.406   4.385  49.405  1.00  0.00    -0.061 A 
HETATM    9  C13 UNL     1      27.629   4.773  48.629  1.00  0.00     0.048 C 
HETATM   10  C14 UNL     1      26.462   3.393  50.362  1.00  0.00     0.024 A 
HETATM   11  C15 UNL     1      25.359   3.011  51.090  1.00  0.00     0.039 A 
ENDROOT
BRANCH   1  12
HETATM   12  N1  UNL     1      26.747   1.331  52.297  1.00  0.00    -0.340 N 
HETATM   13  C6  UNL     1      28.010   1.785  52.808  1.00  0.00     0.138 C 
HETATM   14  C4  UNL     1      28.444   1.178  54.091  1.00  0.00     0.023 C 
HETATM   15  C3  UNL     1      28.944  -0.208  53.993  1.00  0.00    -0.014 C 
HETATM   16  C5  UNL     1      29.555   2.021  54.686  1.00  0.00     0.016 C 
HETATM   17  C2  UNL     1      28.401  -1.158  53.244  1.00  0.00    -0.064 C 
HETATM   18  C1  UNL     1      29.073  -2.490  53.296  1.00  0.00     0.048 C 
HETATM   19  C17 UNL     1      27.241  -1.173  52.347  1.00  0.00     0.023 C 
HETATM   20  C16 UNL     1      26.570  -0.067  51.975  1.00  0.00     0.093 C 
ENDBRANCH   1  12
TORSDOF 1
ENDMDL
MODEL 2
REMARK VINA RESULT:      -8.2      2.168      4.708
REMARK  1 active torsions:
REMARK  status: ('A' for Active; 'I' for Inactive)
REMARK    1  A    between atoms: N1_7  and  C7_8 
ROOT
HETATM    1  C7  UNL     1      24.001   1.317  51.910  1.00  0.00     0.143 A 
HETATM    2  N2  UNL     1      24.292   2.239  50.973  1.00  0.00    -0.223 NA
HETATM    3  C8  UNL     1      23.270   2.715  50.243  1.00  0.00     0.236 A 
HETATM    4  N3  UNL     1      21.992   2.322  50.399  1.00  0.00    -0.241 NA
HETATM    5  C9  UNL     1      21.674   1.396  51.334  1.00  0.00     0.072 A 
HETATM    6  C10 UNL     1      20.397   0.933  51.566  1.00  0.00     0.033 A 
HETATM    7  C11 UNL     1      20.145  -0.010  52.534  1.00  0.00     0.009 A 
HETATM    8  C12 UNL     1      21.195  -0.514  53.300  1.00  0.00    -0.061 A 
HETATM    9  C13 UNL     1      20.957  -1.543  54.364  1.00  0.00     0.048 C 
HETATM   10  C14 UNL     1      22.465  -0.036  53.050  1.00  0.00     0.024 A 
HETATM   11  C15 UNL     1      22.717   0.908  52.082  1.00  0.00     0.039 A 
ENDROOT
BRANCH   1  12
HETATM   12  N1  UNL     1      25.139   0.844  52.662  1.00  0.00    -0.340 N 
HETATM   13  C6  UNL     1      25.608  -0.480  52.966  1.00  0.00     0.138 C 
HETATM   14  C4  UNL     1      26.963  -0.817  52.463  1.00  0.00     0.023 C 
HETATM   15  C3  UNL     1      28.080  -0.211  53.215  1.00  0.00    -0.014 C 
HETATM   16  C5  UNL     1      27.148  -2.321  52.507  1.00  0.00     0.016 C 
HETATM   17  C2  UNL     1      28.102   1.034  53.669  1.00  0.00    -0.064 C 
HETATM   18  C1  UNL     1      29.336   1.437  54.405  1.00  0.00     0.048 C 
HETATM   19  C17 UNL     1      27.133   2.133  53.597  1.00  0.00     0.023 C 
HETATM   20  C16 UNL     1      25.870   1.988  53.153  1.00  0.00     0.093 C 
ENDBRANCH   1  12
TORSDOF 1
ENDMDL
MODEL 3
REMARK VINA RESULT:      -8.2      2.723      4.703
REMARK  1 active torsions:
REMARK  status: ('A' for Active; 'I' for Inactive)
REMARK    1  A    between atoms: N1_7  and  C7_8 
ROOT
HETATM    1  C7  UNL     1      23.904  -0.397  53.845  1.00  0.00     0.143 A 
HETATM    2  N2  UNL     1      23.918  -1.096  54.996  1.00  0.00    -0.223 NA
HETATM    3  C8  UNL     1      22.740  -1.546  55.456  1.00  0.00     0.236 A 
HETATM    4  N3  UNL     1      21.564  -1.337  54.833  1.00  0.00    -0.241 NA
HETATM    5  C9  UNL     1      21.523  -0.637  53.675  1.00  0.00     0.072 A 
HETATM    6  C10 UNL     1      20.371  -0.373  52.968  1.00  0.00     0.033 A 
HETATM    7  C11 UNL     1      20.401   0.346  51.796  1.00  0.00     0.009 A 
HETATM    8  C12 UNL     1      21.617   0.821  51.306  1.00  0.00    -0.061 A 
HETATM    9  C13 UNL     1      21.688   1.607  50.032  1.00  0.00     0.048 C 
HETATM   10  C14 UNL     1      22.758   0.544  52.031  1.00  0.00     0.024 A 
HETATM   11  C15 UNL     1      22.728  -0.176  53.203  1.00  0.00     0.039 A 
ENDROOT
BRANCH   1  12
HETATM   12  N1  UNL     1      25.200   0.061  53.403  1.00  0.00    -0.340 N 
HETATM   13  C6  UNL     1      25.647   0.628  52.161  1.00  0.00     0.138 C 
HETATM   14  C4  UNL     1      26.213   1.997  52.243  1.00  0.00     0.023 C 
HETATM   15  C3  UNL     1      27.573   2.083  52.811  1.00  0.00    -0.014 C 
HETATM   16  C5  UNL     1      26.263   2.596  50.851  1.00  0.00     0.016 C 
HETATM   17  C2  UNL     1      28.001   1.391  53.858  1.00  0.00    -0.064 C 
HETATM   18  C1  UNL     1      29.418   1.634  54.262  1.00  0.00     0.048 C 
HETATM   19  C17 UNL     1      27.353   0.405  54.729  1.00  0.00     0.023 C 
HETATM   20  C16 UNL     1      26.144  -0.132  54.479  1.00  0.00     0.093 C 
ENDBRANCH   1  12
TORSDOF 1
ENDMDL
MODEL 4
REMARK VINA RESULT:      -8.0      2.353      6.289
REMARK  1 active torsions:
REMARK  status: ('A' for Active; 'I' for Inactive)
REMARK    1  A    between atoms: N1_7  and  C7_8 
ROOT
HETATM    1  C7  UNL     1      25.097   0.734  52.716  1.00  0.00     0.143 A 
HETATM    2  N2  UNL     1      26.380   0.439  53.002  1.00  0.00    -0.223 NA
HETATM    3  C8  UNL     1      26.602  -0.420  54.010  1.00  0.00     0.236 A 
HETATM    4  N3  UNL     1      25.623  -0.991  54.736  1.00  0.00    -0.241 NA
HETATM    5  C9  UNL     1      24.326  -0.710  54.469  1.00  0.00     0.072 A 
HETATM    6  C10 UNL     1      23.259  -1.245  55.157  1.00  0.00     0.033 A 
HETATM    7  C11 UNL     1      21.963  -0.916  54.832  1.00  0.00     0.009 A 
HETATM    8  C12 UNL     1      21.716  -0.025  53.788  1.00  0.00    -0.061 A 
HETATM    9  C13 UNL     1      20.317   0.356  53.407  1.00  0.00     0.048 C 
HETATM   10  C14 UNL     1      22.800   0.497  53.114  1.00  0.00     0.024 A 
HETATM   11  C15 UNL     1      24.096   0.168  53.438  1.00  0.00     0.039 A 
ENDROOT
BRANCH   1  12
HETATM   12  N1  UNL     1      24.922   1.662  51.625  1.00  0.00    -0.340 N 
HETATM   13  C6  UNL     1      23.748   2.154  50.958  1.00  0.00     0.138 C 
HETATM   14  C4  UNL     1      23.530   3.619  51.028  1.00  0.00     0.023 C 
HETATM   15  C3  UNL     1      24.405   4.426  50.154  1.00  0.00    -0.014 C 
HETATM   16  C5  UNL     1      22.096   3.926  50.645  1.00  0.00     0.016 C 
HETATM   17  C2  UNL     1      25.698   4.205  49.963  1.00  0.00    -0.064 C 
HETATM   18  C1  UNL     1      26.389   5.147  49.034  1.00  0.00     0.048 C 
HETATM   19  C17 UNL     1      26.620   3.194  50.491  1.00  0.00     0.023 C 
HETATM   20  C16 UNL     1      26.225   2.120  51.200  1.00  0.00     0.093 C 
ENDBRANCH   1  12
TORSDOF 1
ENDMDL
MODEL 5
REMARK VINA RESULT:      -7.9      2.850      6.998
REMARK  1 active torsions:
REMARK  status: ('A' for Active; 'I' for Inactive)
REMARK    1  A    between atoms: N1_7  and  C7_8 
ROOT
HETATM    1  C7  UNL     1      24.359   0.997  53.098  1.00  0.00     0.143 A 
HETATM    2  N2  UNL     1      25.655   0.903  53.453  1.00  0.00    -0.223 NA
HETATM    3  C8  UNL     1      25.981  -0.051  54.339  1.00  0.00     0.236 A 
HETATM    4  N3  UNL     1      25.091  -0.905  54.881  1.00  0.00    -0.241 NA
HETATM    5  C9  UNL     1      23.783  -0.830  54.541  1.00  0.00     0.072 A 
HETATM    6  C10 UNL     1      22.803  -1.658  55.043  1.00  0.00     0.033 A 
HETATM    7  C11 UNL     1      21.490  -1.527  54.653  1.00  0.00     0.009 A 
HETATM    8  C12 UNL     1      21.136  -0.540  53.734  1.00  0.00    -0.061 A 
HETATM    9  C13 UNL     1      19.715  -0.369  53.287  1.00  0.00     0.048 C 
HETATM   10  C14 UNL     1      22.134   0.277  53.246  1.00  0.00     0.024 A 
HETATM   11  C15 UNL     1      23.447   0.145  53.635  1.00  0.00     0.039 A 
ENDROOT
BRANCH   1  12
HETATM   12  N1  UNL     1      24.070   2.042  52.145  1.00  0.00    -0.340 N 
HETATM   13  C6  UNL     1      23.856   2.015  50.724  1.00  0.00     0.138 C 
HETATM   14  C4  UNL     1      22.530   2.493  50.262  1.00  0.00     0.023 C 
HETATM   15  C3  UNL     1      22.342   3.957  50.297  1.00  0.00    -0.014 C 
HETATM   16  C5  UNL     1      22.311   2.041  48.832  1.00  0.00     0.016 C 
HETATM   17  C2  UNL     1      22.753   4.751  51.276  1.00  0.00    -0.064 C 
HETATM   18  C1  UNL     1      22.458   6.204  51.104  1.00  0.00     0.048 C 
HETATM   19  C17 UNL     1      23.462   4.490  52.534  1.00  0.00     0.023 C 
HETATM   20  C16 UNL     1      24.008   3.301  52.851  1.00  0.00     0.093 C 
ENDBRANCH   1  12
TORSDOF 1
ENDMDL
MODEL 6
REMARK VINA RESULT:      -7.9      2.721      6.140
REMARK  1 active torsions:
REMARK  status: ('A' for Active; 'I' for Inactive)
REMARK    1  A    between atoms: N1_7  and  C7_8 
ROOT
HETATM    1  C7  UNL     1      25.944   1.049  53.274  1.00  0.00     0.143 A 
HETATM    2  N2  UNL     1      25.859   2.368  53.532  1.00  0.00    -0.223 NA
HETATM    3  C8  UNL     1      26.994   3.003  53.866  1.00  0.00     0.236 A 
HETATM    4  N3  UNL     1      28.193   2.396  53.954  1.00  0.00    -0.241 NA
HETATM    5  C9  UNL     1      28.304   1.070  53.699  1.00  0.00     0.072 A 
HETATM    6  C10 UNL     1      29.486   0.365  53.763  1.00  0.00     0.033 A 
HETATM    7  C11 UNL     1      29.528  -0.982  53.491  1.00  0.00     0.009 A 
HETATM    8  C12 UNL     1      28.358  -1.655  53.144  1.00  0.00    -0.061 A 
HETATM    9  C13 UNL     1      28.367  -3.124  52.841  1.00  0.00     0.048 C 
HETATM   10  C14 UNL     1      27.187  -0.928  53.086  1.00  0.00     0.024 A 
HETATM   11  C15 UNL     1      27.145   0.420  53.357  1.00  0.00     0.039 A 
ENDROOT
BRANCH   1  12
HETATM   12  N1  UNL     1      24.692   0.423  52.921  1.00  0.00    -0.340 N 
HETATM   13  C6  UNL     1      23.981  -0.692  53.485  1.00  0.00     0.138 C 
HETATM   14  C4  UNL     1      22.627  -0.395  54.013  1.00  0.00     0.023 C 
HETATM   15  C3  UNL     1      21.582  -0.203  52.988  1.00  0.00    -0.014 C 
HETATM   16  C5  UNL     1      22.183  -1.536  54.907  1.00  0.00     0.016 C 
HETATM   17  C2  UNL     1      21.744   0.467  51.856  1.00  0.00    -0.064 C 
HETATM   18  C1  UNL     1      20.550   0.535  50.963  1.00  0.00     0.048 C 
HETATM   19  C17 UNL     1      22.890   1.178  51.279  1.00  0.00     0.023 C 
HETATM   20  C16 UNL     1      24.137   1.119  51.784  1.00  0.00     0.093 C 
ENDBRANCH   1  12
TORSDOF 1
ENDMDL
MODEL 7
REMARK VINA RESULT:      -7.8      3.153      6.535
REMARK  1 active torsions:
REMARK  status: ('A' for Active; 'I' for Inactive)
REMARK    1  A    between atoms: N1_7  and  C7_8 
ROOT
HETATM    1  C7  UNL     1      21.729   0.429  52.856  1.00  0.00     0.143 A 
HETATM    2  N2  UNL     1      20.464   0.043  53.111  1.00  0.00    -0.223 NA
HETATM    3  C8  UNL     1      20.281  -0.839  54.107  1.00  0.00     0.236 A 
HETATM    4  N3  UNL     1      21.283  -1.346  54.851  1.00  0.00    -0.241 NA
HETATM    5  C9  UNL     1      22.563  -0.974  54.614  1.00  0.00     0.072 A 
HETATM    6  C10 UNL     1      23.650  -1.438  55.321  1.00  0.00     0.033 A 
HETATM    7  C11 UNL     1      24.925  -1.017  55.027  1.00  0.00     0.009 A 
HETATM    8  C12 UNL     1      25.132  -0.103  53.994  1.00  0.00    -0.061 A 
HETATM    9  C13 UNL     1      26.508   0.378  53.646  1.00  0.00     0.048 C 
HETATM   10  C14 UNL     1      24.028   0.348  53.301  1.00  0.00     0.024 A 
HETATM   11  C15 UNL     1      22.752  -0.072  53.595  1.00  0.00     0.039 A 
ENDROOT
BRANCH   1  12
HETATM   12  N1  UNL     1      21.862   1.376  51.774  1.00  0.00    -0.340 N 
HETATM   13  C6  UNL     1      22.331   2.733  51.736  1.00  0.00     0.138 C 
HETATM   14  C4  UNL     1      23.515   2.984  50.878  1.00  0.00     0.023 C 
HETATM   15  C3  UNL     1      23.247   3.000  49.426  1.00  0.00    -0.014 C 
HETATM   16  C5  UNL     1      24.117   4.327  51.244  1.00  0.00     0.016 C 
HETATM   17  C2  UNL     1      22.446   2.154  48.794  1.00  0.00    -0.064 C 
HETATM   18  C1  UNL     1      22.321   2.354  47.320  1.00  0.00     0.048 C 
HETATM   19  C17 UNL     1      21.630   1.026  49.256  1.00  0.00     0.023 C 
HETATM   20  C16 UNL     1      21.416   0.742  50.555  1.00  0.00     0.093 C 
ENDBRANCH   1  12
TORSDOF 1
ENDMDL
MODEL 8
REMARK VINA RESULT:      -7.3      3.887      6.289
REMARK  1 active torsions:
REMARK  status: ('A' for Active; 'I' for Inactive)
REMARK    1  A    between atoms: N1_7  and  C7_8 
ROOT
HETATM    1  C7  UNL     1      21.398   1.422  51.026  1.00  0.00     0.143 A 
HETATM    2  N2  UNL     1      21.819   2.224  50.030  1.00  0.00    -0.223 NA
HETATM    3  C8  UNL     1      20.943   2.495  49.049  1.00  0.00     0.236 A 
HETATM    4  N3  UNL     1      19.687   2.013  49.013  1.00  0.00    -0.241 NA
HETATM    5  C9  UNL     1      19.240   1.203  50.002  1.00  0.00     0.072 A 
HETATM    6  C10 UNL     1      17.974   0.662  50.050  1.00  0.00     0.033 A 
HETATM    7  C11 UNL     1      17.585  -0.153  51.086  1.00  0.00     0.009 A 
HETATM    8  C12 UNL     1      18.483  -0.445  52.112  1.00  0.00    -0.061 A 
HETATM    9  C13 UNL     1      18.094  -1.330  53.258  1.00  0.00     0.048 C 
HETATM   10  C14 UNL     1      19.745   0.108  52.043  1.00  0.00     0.024 A 
HETATM   11  C15 UNL     1      20.134   0.925  51.007  1.00  0.00     0.039 A 
ENDROOT
BRANCH   1  12
HETATM   12  N1  UNL     1      22.383   1.166  52.050  1.00  0.00    -0.340 N 
HETATM   13  C6  UNL     1      22.267   0.683  53.399  1.00  0.00     0.138 C 
HETATM   14  C4  UNL     1      22.973  -0.587  53.694  1.00  0.00     0.023 C 
HETATM   15  C3  UNL     1      24.440  -0.474  53.825  1.00  0.00    -0.014 C 
HETATM   16  C5  UNL     1      22.443  -1.159  54.994  1.00  0.00     0.016 C 
HETATM   17  C2  UNL     1      25.216   0.263  53.044  1.00  0.00    -0.064 C 
HETATM   18  C1  UNL     1      26.675   0.230  53.358  1.00  0.00     0.048 C 
HETATM   19  C17 UNL     1      24.931   1.134  51.898  1.00  0.00     0.023 C 
HETATM   20  C16 UNL     1      23.688   1.487  51.520  1.00  0.00     0.093 C 
ENDBRANCH   1  12
TORSDOF 1
ENDMDL
MODEL 9
REMARK VINA RESULT:      -7.3      5.269      7.850
REMARK  1 active torsions:
REMARK  status: ('A' for Active; 'I' for Inactive)
REMARK    1  A    between atoms: N1_7  and  C7_8 
ROOT
HETATM    1  C7  UNL     1      29.785   6.989  47.655  1.00  0.00     0.143 A 
HETATM    2  N2  UNL     1      30.089   8.162  47.068  1.00  0.00    -0.223 NA
HETATM    3  C8  UNL     1      29.068   8.986  46.778  1.00  0.00     0.236 A 
HETATM    4  N3  UNL     1      27.779   8.701  47.041  1.00  0.00    -0.241 NA
HETATM    5  C9  UNL     1      27.447   7.527  47.629  1.00  0.00     0.072 A 
HETATM    6  C10 UNL     1      26.158   7.150  47.936  1.00  0.00     0.033 A 
HETATM    7  C11 UNL     1      25.893   5.941  48.536  1.00  0.00     0.009 A 
HETATM    8  C12 UNL     1      26.941   5.075  48.842  1.00  0.00    -0.061 A 
HETATM    9  C13 UNL     1      26.688   3.750  49.496  1.00  0.00     0.048 C 
HETATM   10  C14 UNL     1      28.223   5.475  48.526  1.00  0.00     0.024 A 
HETATM   11  C15 UNL     1      28.489   6.684  47.927  1.00  0.00     0.039 A 
ENDROOT
BRANCH   1  12
HETATM   12  N1  UNL     1      30.922   6.147  47.942  1.00  0.00    -0.340 N 
HETATM   13  C6  UNL     1      31.216   4.781  47.608  1.00  0.00     0.138 C 
HETATM   14  C4  UNL     1      32.428   4.564  46.780  1.00  0.00     0.023 C 
HETATM   15  C3  UNL     1      33.712   4.701  47.498  1.00  0.00    -0.014 C 
HETATM   16  C5  UNL     1      32.383   3.168  46.191  1.00  0.00     0.016 C 
HETATM   17  C2  UNL     1      33.982   5.638  48.396  1.00  0.00    -0.064 C 
HETATM   18  C1  UNL     1      35.346   5.587  48.999  1.00  0.00     0.048 C 
HETATM   19  C17 UNL     1      33.193   6.749  48.939  1.00  0.00     0.023 C 
HETATM   20  C16 UNL     1      31.877   6.914  48.707  1.00  0.00     0.093 C 
ENDBRANCH   1  12
TORSDOF 1
ENDMDL
