MODEL 1
REMARK VINA RESULT:      -7.1      0.000      0.000
REMARK  10 active torsions:
REMARK  status: ('A' for Active; 'I' for Inactive)
REMARK    1  A    between atoms: C2_2  and  C3_3 
REMARK    2  A    between atoms: C2_2  and  N1_6 
REMARK    3  A    between atoms: C3_3  and  C4_4 
REMARK    4  A    between atoms: N1_6  and  C6_7 
REMARK    5  A    between atoms: C7_9  and  N3_10 
REMARK    6  A    between atoms: N3_10  and  C8_11 
REMARK    7  A    between atoms: C8_11  and  C9_12 
REMARK    8  A    between atoms: C10_13  and  C12_15 
REMARK    9  A    between atoms: C12_15  and  C13_16 
REMARK   10  A    between atoms: C15_19  and  C16_20 
ROOT
HETATM    1  C6  UNL     1      27.098   1.920  52.256  1.00  0.00     0.142 C 
HETATM    2  N2  UNL     1      26.284   0.998  51.867  1.00  0.00    -0.231 NA
HETATM    3  C7  UNL     1      26.056  -0.378  52.259  1.00  0.00     0.369 C 
HETATM    4  C14 UNL     1      27.266  -1.114  52.629  1.00  0.00     0.066 C 
HETATM    5  C15 UNL     1      28.339  -0.650  53.249  1.00  0.00     0.094 C 
HETATM    6  N4  UNL     1      28.646   0.673  53.737  1.00  0.00    -0.254 NA
HETATM    7  C17 UNL     1      28.109   1.789  53.308  1.00  0.00     0.167 C 
ENDROOT
BRANCH   3   8
HETATM    8  N3  UNL     1      24.993  -0.507  53.233  1.00  0.00     0.115 N 
HETATM    9  H12 UNL     1      24.418  -1.335  53.011  1.00  0.00     0.319 HD
BRANCH   8  10
HETATM   10  C8  UNL     1      24.171   0.675  53.345  1.00  0.00     0.300 C 
BRANCH  10  11
HETATM   11  C9  UNL     1      22.739   0.434  53.034  1.00  0.00     0.005 C 
HETATM   12  C10 UNL     1      21.898  -0.282  53.765  1.00  0.00    -0.084 C 
HETATM   13  C11 UNL     1      22.126  -1.003  55.020  1.00  0.00     0.043 C 
BRANCH  12  14
HETATM   14  C12 UNL     1      20.481  -0.482  53.398  1.00  0.00     0.064 C 
BRANCH  14  15
HETATM   15  C13 UNL     1      20.093   0.526  52.343  1.00  0.00     0.226 C 
HETATM   16  F1  UNL     1      19.571  -0.149  51.253  1.00  0.00    -0.255 F 
ENDBRANCH  14  15
ENDBRANCH  12  14
ENDBRANCH  10  11
ENDBRANCH   8  10
ENDBRANCH   3   8
BRANCH   1  17
HETATM   17  N1  UNL     1      26.977   3.180  51.572  1.00  0.00    -0.347 N 
HETATM   18  H10 UNL     1      27.750   3.867  51.751  1.00  0.00     0.167 HD
BRANCH  17  19
HETATM   19  C2  UNL     1      25.872   3.446  50.716  1.00  0.00    -0.011 C 
HETATM   20  C1  UNL     1      24.614   3.635  51.079  1.00  0.00     0.058 C 
BRANCH  19  21
HETATM   21  C3  UNL     1      26.125   3.523  49.254  1.00  0.00     0.052 C 
BRANCH  21  22
HETATM   22  C4  UNL     1      27.272   4.441  48.937  1.00  0.00     0.001 C 
HETATM   23  C5  UNL     1      26.714   5.846  48.737  1.00  0.00     0.005 C 
ENDBRANCH  21  22
ENDBRANCH  19  21
ENDBRANCH  17  19
ENDBRANCH   1  17
BRANCH   5  24
HETATM   24  C16 UNL     1      29.408  -1.626  53.490  1.00  0.00     0.289 C 
HETATM   25  O1  UNL     1      29.068  -2.853  53.451  1.00  0.00    -0.300 OA
ENDBRANCH   5  24
TORSDOF 10
ENDMDL
MODEL 2
REMARK VINA RESULT:      -6.9      2.757      5.065
REMARK  10 active torsions:
REMARK  status: ('A' for Active; 'I' for Inactive)
REMARK    1  A    between atoms: C2_2  and  C3_3 
REMARK    2  A    between atoms: C2_2  and  N1_6 
REMARK    3  A    between atoms: C3_3  and  C4_4 
REMARK    4  A    between atoms: N1_6  and  C6_7 
REMARK    5  A    between atoms: C7_9  and  N3_10 
REMARK    6  A    between atoms: N3_10  and  C8_11 
REMARK    7  A    between atoms: C8_11  and  C9_12 
REMARK    8  A    between atoms: C10_13  and  C12_15 
REMARK    9  A    between atoms: C12_15  and  C13_16 
REMARK   10  A    between atoms: C15_19  and  C16_20 
ROOT
HETATM    1  C6  UNL     1      25.732   2.353  52.482  1.00  0.00     0.142 C 
HETATM    2  N2  UNL     1      24.534   2.795  52.298  1.00  0.00    -0.231 NA
HETATM    3  C7  UNL     1      23.825   3.344  51.160  1.00  0.00     0.369 C 
HETATM    4  C14 UNL     1      24.644   4.173  50.274  1.00  0.00     0.066 C 
HETATM    5  C15 UNL     1      25.920   4.011  49.963  1.00  0.00     0.094 C 
HETATM    6  N4  UNL     1      26.871   3.008  50.380  1.00  0.00    -0.254 NA
HETATM    7  C17 UNL     1      26.791   2.287  51.473  1.00  0.00     0.167 C 
ENDROOT
BRANCH   3   8
HETATM    8  N3  UNL     1      23.058   2.342  50.452  1.00  0.00     0.115 N 
HETATM    9  H12 UNL     1      22.734   2.727  49.550  1.00  0.00     0.319 HD
BRANCH   8  10
HETATM   10  C8  UNL     1      21.949   1.821  51.216  1.00  0.00     0.300 C 
BRANCH  10  11
HETATM   11  C9  UNL     1      22.201   0.472  51.784  1.00  0.00     0.005 C 
HETATM   12  C10 UNL     1      21.705   0.007  52.921  1.00  0.00    -0.084 C 
HETATM   13  C11 UNL     1      20.818   0.653  53.892  1.00  0.00     0.043 C 
BRANCH  12  14
HETATM   14  C12 UNL     1      21.995  -1.349  53.431  1.00  0.00     0.064 C 
BRANCH  14  15
HETATM   15  C13 UNL     1      21.793  -1.371  54.928  1.00  0.00     0.226 C 
HETATM   16  F1  UNL     1      23.003  -1.657  55.536  1.00  0.00    -0.255 F 
ENDBRANCH  14  15
ENDBRANCH  12  14
ENDBRANCH  10  11
ENDBRANCH   8  10
ENDBRANCH   3   8
BRANCH   1  17
HETATM   17  N1  UNL     1      26.021   1.888  53.813  1.00  0.00    -0.347 N 
HETATM   18  H10 UNL     1      26.020   2.627  54.559  1.00  0.00     0.167 HD
BRANCH  17  19
HETATM   19  C2  UNL     1      26.286   0.514  54.068  1.00  0.00    -0.011 C 
HETATM   20  C1  UNL     1      25.580  -0.522  53.647  1.00  0.00     0.058 C 
BRANCH  19  21
HETATM   21  C3  UNL     1      27.474   0.175  54.894  1.00  0.00     0.052 C 
BRANCH  21  22
HETATM   22  C4  UNL     1      28.753   0.597  54.228  1.00  0.00     0.001 C 
HETATM   23  C5  UNL     1      29.358  -0.625  53.545  1.00  0.00     0.005 C 
ENDBRANCH  21  22
ENDBRANCH  19  21
ENDBRANCH  17  19
ENDBRANCH   1  17
BRANCH   5  24
HETATM   24  C16 UNL     1      26.483   5.005  49.042  1.00  0.00     0.289 C 
HETATM   25  O1  UNL     1      27.643   4.750  48.581  1.00  0.00    -0.300 OA
ENDBRANCH   5  24
TORSDOF 10
ENDMDL
MODEL 3
REMARK VINA RESULT:      -6.8      3.649      6.079
REMARK  10 active torsions:
REMARK  status: ('A' for Active; 'I' for Inactive)
REMARK    1  A    between atoms: C2_2  and  C3_3 
REMARK    2  A    between atoms: C2_2  and  N1_6 
REMARK    3  A    between atoms: C3_3  and  C4_4 
REMARK    4  A    between atoms: N1_6  and  C6_7 
REMARK    5  A    between atoms: C7_9  and  N3_10 
REMARK    6  A    between atoms: N3_10  and  C8_11 
REMARK    7  A    between atoms: C8_11  and  C9_12 
REMARK    8  A    between atoms: C10_13  and  C12_15 
REMARK    9  A    between atoms: C12_15  and  C13_16 
REMARK   10  A    between atoms: C15_19  and  C16_20 
ROOT
HETATM    1  C6  UNL     1      24.323   3.701  51.207  1.00  0.00     0.142 C 
HETATM    2  N2  UNL     1      24.734   2.980  52.194  1.00  0.00    -0.231 NA
HETATM    3  C7  UNL     1      24.195   1.837  52.903  1.00  0.00     0.369 C 
HETATM    4  C14 UNL     1      22.740   1.851  53.064  1.00  0.00     0.066 C 
HETATM    5  C15 UNL     1      21.836   2.311  52.214  1.00  0.00     0.094 C 
HETATM    6  N4  UNL     1      21.988   2.919  50.914  1.00  0.00    -0.254 NA
HETATM    7  C17 UNL     1      23.066   3.523  50.475  1.00  0.00     0.167 C 
ENDROOT
BRANCH   3   8
HETATM    8  N3  UNL     1      24.698   0.581  52.390  1.00  0.00     0.115 N 
HETATM    9  H12 UNL     1      24.602  -0.151  53.112  1.00  0.00     0.319 HD
BRANCH   8  10
HETATM   10  C8  UNL     1      26.058   0.659  51.913  1.00  0.00     0.300 C 
BRANCH  10  11
HETATM   11  C9  UNL     1      27.051   0.067  52.846  1.00  0.00     0.005 C 
HETATM   12  C10 UNL     1      28.008   0.728  53.480  1.00  0.00    -0.084 C 
HETATM   13  C11 UNL     1      28.345   2.153  53.443  1.00  0.00     0.043 C 
BRANCH  12  14
HETATM   14  C12 UNL     1      28.965   0.077  54.397  1.00  0.00     0.064 C 
BRANCH  14  15
HETATM   15  C13 UNL     1      29.999  -0.671  53.590  1.00  0.00     0.226 C 
HETATM   16  F1  UNL     1      29.537  -1.954  53.354  1.00  0.00    -0.255 F 
ENDBRANCH  14  15
ENDBRANCH  12  14
ENDBRANCH  10  11
ENDBRANCH   8  10
ENDBRANCH   3   8
BRANCH   1  17
HETATM   17  N1  UNL     1      25.202   4.770  50.813  1.00  0.00    -0.347 N 
HETATM   18  H10 UNL     1      25.128   5.648  51.384  1.00  0.00     0.167 HD
BRANCH  17  19
HETATM   19  C2  UNL     1      26.100   4.615  49.720  1.00  0.00    -0.011 C 
HETATM   20  C1  UNL     1      26.750   3.517  49.376  1.00  0.00     0.058 C 
BRANCH  19  21
HETATM   21  C3  UNL     1      26.356   5.798  48.857  1.00  0.00     0.052 C 
BRANCH  21  22
HETATM   22  C4  UNL     1      27.800   5.888  48.452  1.00  0.00     0.001 C 
HETATM   23  C5  UNL     1      27.993   7.183  47.670  1.00  0.00     0.005 C 
ENDBRANCH  21  22
ENDBRANCH  19  21
ENDBRANCH  17  19
ENDBRANCH   1  17
BRANCH   5  24
HETATM   24  C16 UNL     1      20.438   2.193  52.645  1.00  0.00     0.289 C 
HETATM   25  O1  UNL     1      19.690   3.196  52.406  1.00  0.00    -0.300 OA
ENDBRANCH   5  24
TORSDOF 10
ENDMDL
MODEL 4
REMARK VINA RESULT:      -6.7      3.830      6.934
REMARK  10 active torsions:
REMARK  status: ('A' for Active; 'I' for Inactive)
REMARK    1  A    between atoms: C2_2  and  C3_3 
REMARK    2  A    between atoms: C2_2  and  N1_6 
REMARK    3  A    between atoms: C3_3  and  C4_4 
REMARK    4  A    between atoms: N1_6  and  C6_7 
REMARK    5  A    between atoms: C7_9  and  N3_10 
REMARK    6  A    between atoms: N3_10  and  C8_11 
REMARK    7  A    between atoms: C8_11  and  C9_12 
REMARK    8  A    between atoms: C10_13  and  C12_15 
REMARK    9  A    between atoms: C12_15  and  C13_16 
REMARK   10  A    between atoms: C15_19  and  C16_20 
ROOT
HETATM    1  C6  UNL     1      23.430   3.814  50.614  1.00  0.00     0.142 C 
HETATM    2  N2  UNL     1      24.505   3.388  50.041  1.00  0.00    -0.231 NA
HETATM    3  C7  UNL     1      25.850   3.909  49.905  1.00  0.00     0.369 C 
HETATM    4  C14 UNL     1      25.928   5.363  49.757  1.00  0.00     0.066 C 
HETATM    5  C15 UNL     1      25.155   6.278  50.322  1.00  0.00     0.094 C 
HETATM    6  N4  UNL     1      24.037   6.139  51.224  1.00  0.00    -0.254 NA
HETATM    7  C17 UNL     1      23.287   5.071  51.353  1.00  0.00     0.167 C 
ENDROOT
BRANCH   3   8
HETATM    8  N3  UNL     1      26.748   3.392  50.914  1.00  0.00     0.115 N 
HETATM    9  H12 UNL     1      27.725   3.546  50.620  1.00  0.00     0.319 HD
BRANCH   8  10
HETATM   10  C8  UNL     1      26.518   2.002  51.229  1.00  0.00     0.300 C 
BRANCH  10  11
HETATM   11  C9  UNL     1      27.272   1.529  52.418  1.00  0.00     0.005 C 
HETATM   12  C10 UNL     1      27.334   0.278  52.848  1.00  0.00    -0.084 C 
HETATM   13  C11 UNL     1      26.710  -0.932  52.306  1.00  0.00     0.043 C 
BRANCH  12  14
HETATM   14  C12 UNL     1      28.105  -0.127  54.041  1.00  0.00     0.064 C 
BRANCH  14  15
HETATM   15  C13 UNL     1      29.580   0.025  53.756  1.00  0.00     0.226 C 
HETATM   16  F1  UNL     1      30.010  -1.075  53.034  1.00  0.00    -0.255 F 
ENDBRANCH  14  15
ENDBRANCH  12  14
ENDBRANCH  10  11
ENDBRANCH   8  10
ENDBRANCH   3   8
BRANCH   1  17
HETATM   17  N1  UNL     1      22.284   2.951  50.499  1.00  0.00    -0.347 N 
HETATM   18  H10 UNL     1      21.797   2.971  49.570  1.00  0.00     0.167 HD
BRANCH  17  19
HETATM   19  C2  UNL     1      21.867   2.137  51.589  1.00  0.00    -0.011 C 
HETATM   20  C1  UNL     1      20.880   2.385  52.433  1.00  0.00     0.058 C 
BRANCH  19  21
HETATM   21  C3  UNL     1      22.602   0.868  51.832  1.00  0.00     0.052 C 
BRANCH  21  22
HETATM   22  C4  UNL     1      23.427   0.935  53.086  1.00  0.00     0.001 C 
HETATM   23  C5  UNL     1      23.317  -0.410  53.797  1.00  0.00     0.005 C 
ENDBRANCH  21  22
ENDBRANCH  19  21
ENDBRANCH  17  19
ENDBRANCH   1  17
BRANCH   5  24
HETATM   24  C16 UNL     1      25.469   7.672  49.989  1.00  0.00     0.289 C 
HETATM   25  O1  UNL     1      26.700   7.941  49.801  1.00  0.00    -0.300 OA
ENDBRANCH   5  24
TORSDOF 10
ENDMDL
MODEL 5
REMARK VINA RESULT:      -6.7      3.107      6.011
REMARK  10 active torsions:
REMARK  status: ('A' for Active; 'I' for Inactive)
REMARK    1  A    between atoms: C2_2  and  C3_3 
REMARK    2  A    between atoms: C2_2  and  N1_6 
REMARK    3  A    between atoms: C3_3  and  C4_4 
REMARK    4  A    between atoms: N1_6  and  C6_7 
REMARK    5  A    between atoms: C7_9  and  N3_10 
REMARK    6  A    between atoms: N3_10  and  C8_11 
REMARK    7  A    between atoms: C8_11  and  C9_12 
REMARK    8  A    between atoms: C10_13  and  C12_15 
REMARK    9  A    between atoms: C12_15  and  C13_16 
REMARK   10  A    between atoms: C15_19  and  C16_20 
ROOT
HETATM    1  C6  UNL     1      25.715   0.413  52.955  1.00  0.00     0.142 C 
HETATM    2  N2  UNL     1      24.931   1.051  52.153  1.00  0.00    -0.231 NA
HETATM    3  C7  UNL     1      23.509   1.330  52.142  1.00  0.00     0.369 C 
HETATM    4  C14 UNL     1      22.672   0.248  52.662  1.00  0.00     0.066 C 
HETATM    5  C15 UNL     1      22.950  -0.589  53.649  1.00  0.00     0.094 C 
HETATM    6  N4  UNL     1      24.117  -0.698  54.491  1.00  0.00    -0.254 NA
HETATM    7  C17 UNL     1      25.318  -0.264  54.192  1.00  0.00     0.167 C 
ENDROOT
BRANCH   3   8
HETATM    8  N3  UNL     1      23.194   2.619  52.720  1.00  0.00     0.115 N 
HETATM    9  H12 UNL     1      22.706   2.486  53.620  1.00  0.00     0.319 HD
BRANCH   8  10
HETATM   10  C8  UNL     1      22.429   3.471  51.840  1.00  0.00     0.300 C 
BRANCH  10  11
HETATM   11  C9  UNL     1      23.232   4.550  51.211  1.00  0.00     0.005 C 
HETATM   12  C10 UNL     1      23.852   4.472  50.043  1.00  0.00    -0.084 C 
HETATM   13  C11 UNL     1      23.923   3.361  49.091  1.00  0.00     0.043 C 
BRANCH  12  14
HETATM   14  C12 UNL     1      24.637   5.586  49.472  1.00  0.00     0.064 C 
BRANCH  14  15
HETATM   15  C13 UNL     1      24.815   6.658  50.520  1.00  0.00     0.226 C 
HETATM   16  F1  UNL     1      26.102   7.159  50.431  1.00  0.00    -0.255 F 
ENDBRANCH  14  15
ENDBRANCH  12  14
ENDBRANCH  10  11
ENDBRANCH   8  10
ENDBRANCH   3   8
BRANCH   1  17
HETATM   17  N1  UNL     1      27.101   0.382  52.569  1.00  0.00    -0.347 N 
HETATM   18  H10 UNL     1      27.302  -0.081  51.648  1.00  0.00     0.167 HD
BRANCH  17  19
HETATM   19  C2  UNL     1      28.106   0.949  53.401  1.00  0.00    -0.011 C 
HETATM   20  C1  UNL     1      28.422   2.228  53.505  1.00  0.00     0.058 C 
BRANCH  19  21
HETATM   21  C3  UNL     1      28.904   0.030  54.254  1.00  0.00     0.052 C 
BRANCH  21  22
HETATM   22  C4  UNL     1      29.914  -0.739  53.449  1.00  0.00     0.001 C 
HETATM   23  C5  UNL     1      29.435  -2.183  53.344  1.00  0.00     0.005 C 
ENDBRANCH  21  22
ENDBRANCH  19  21
ENDBRANCH  17  19
ENDBRANCH   1  17
BRANCH   5  24
HETATM   24  C16 UNL     1      21.913  -1.581  53.955  1.00  0.00     0.289 C 
HETATM   25  O1  UNL     1      21.898  -2.030  55.147  1.00  0.00    -0.300 OA
ENDBRANCH   5  24
TORSDOF 10
ENDMDL
MODEL 6
REMARK VINA RESULT:      -6.7      2.386      5.272
REMARK  10 active torsions:
REMARK  status: ('A' for Active; 'I' for Inactive)
REMARK    1  A    between atoms: C2_2  and  C3_3 
REMARK    2  A    between atoms: C2_2  and  N1_6 
REMARK    3  A    between atoms: C3_3  and  C4_4 
REMARK    4  A    between atoms: N1_6  and  C6_7 
REMARK    5  A    between atoms: C7_9  and  N3_10 
REMARK    6  A    between atoms: N3_10  and  C8_11 
REMARK    7  A    between atoms: C8_11  and  C9_12 
REMARK    8  A    between atoms: C10_13  and  C12_15 
REMARK    9  A    between atoms: C12_15  and  C13_16 
REMARK   10  A    between atoms: C15_19  and  C16_20 
ROOT
HETATM    1  C6  UNL     1      24.401  -0.048  53.075  1.00  0.00     0.142 C 
HETATM    2  N2  UNL     1      24.319   1.229  53.241  1.00  0.00    -0.231 NA
HETATM    3  C7  UNL     1      25.286   2.309  53.254  1.00  0.00     0.369 C 
HETATM    4  C14 UNL     1      26.579   1.961  53.846  1.00  0.00     0.066 C 
HETATM    5  C15 UNL     1      27.213   0.801  53.783  1.00  0.00     0.094 C 
HETATM    6  N4  UNL     1      26.848  -0.438  53.139  1.00  0.00    -0.254 NA
HETATM    7  C17 UNL     1      25.628  -0.809  52.831  1.00  0.00     0.167 C 
ENDROOT
BRANCH   3   8
HETATM    8  N3  UNL     1      25.407   2.959  51.968  1.00  0.00     0.115 N 
HETATM    9  H12 UNL     1      26.112   3.711  52.024  1.00  0.00     0.319 HD
BRANCH   8  10
HETATM   10  C8  UNL     1      24.154   3.465  51.460  1.00  0.00     0.300 C 
BRANCH  10  11
HETATM   11  C9  UNL     1      23.567   2.629  50.382  1.00  0.00     0.005 C 
HETATM   12  C10 UNL     1      22.335   2.141  50.366  1.00  0.00    -0.084 C 
HETATM   13  C11 UNL     1      21.259   2.276  51.350  1.00  0.00     0.043 C 
BRANCH  12  14
HETATM   14  C12 UNL     1      21.812   1.313  49.259  1.00  0.00     0.064 C 
BRANCH  14  15
HETATM   15  C13 UNL     1      21.831   2.120  47.983  1.00  0.00     0.226 C 
HETATM   16  F1  UNL     1      22.883   1.685  47.196  1.00  0.00    -0.255 F 
ENDBRANCH  14  15
ENDBRANCH  12  14
ENDBRANCH  10  11
ENDBRANCH   8  10
ENDBRANCH   3   8
BRANCH   1  17
HETATM   17  N1  UNL     1      23.152  -0.760  53.141  1.00  0.00    -0.347 N 
HETATM   18  H10 UNL     1      22.712  -0.985  52.215  1.00  0.00     0.167 HD
BRANCH  17  19
HETATM   19  C2  UNL     1      22.580  -1.121  54.392  1.00  0.00    -0.011 C 
HETATM   20  C1  UNL     1      23.223  -1.336  55.527  1.00  0.00     0.058 C 
BRANCH  19  21
HETATM   21  C3  UNL     1      21.105  -1.284  54.462  1.00  0.00     0.052 C 
BRANCH  21  22
HETATM   22  C4  UNL     1      20.386  -0.045  54.010  1.00  0.00     0.001 C 
HETATM   23  C5  UNL     1      19.291  -0.461  53.033  1.00  0.00     0.005 C 
ENDBRANCH  21  22
ENDBRANCH  19  21
ENDBRANCH  17  19
ENDBRANCH   1  17
BRANCH   5  24
HETATM   24  C16 UNL     1      28.504   0.742  54.477  1.00  0.00     0.289 C 
HETATM   25  O1  UNL     1      28.843  -0.396  54.940  1.00  0.00    -0.300 OA
ENDBRANCH   5  24
TORSDOF 10
ENDMDL
MODEL 7
REMARK VINA RESULT:      -6.6      2.622      5.020
REMARK  10 active torsions:
REMARK  status: ('A' for Active; 'I' for Inactive)
REMARK    1  A    between atoms: C2_2  and  C3_3 
REMARK    2  A    between atoms: C2_2  and  N1_6 
REMARK    3  A    between atoms: C3_3  and  C4_4 
REMARK    4  A    between atoms: N1_6  and  C6_7 
REMARK    5  A    between atoms: C7_9  and  N3_10 
REMARK    6  A    between atoms: N3_10  and  C8_11 
REMARK    7  A    between atoms: C8_11  and  C9_12 
REMARK    8  A    between atoms: C10_13  and  C12_15 
REMARK    9  A    between atoms: C12_15  and  C13_16 
REMARK   10  A    between atoms: C15_19  and  C16_20 
ROOT
HETATM    1  C6  UNL     1      25.945   2.263  52.882  1.00  0.00     0.142 C 
HETATM    2  N2  UNL     1      24.688   2.506  52.722  1.00  0.00    -0.231 NA
HETATM    3  C7  UNL     1      23.868   2.873  51.586  1.00  0.00     0.369 C 
HETATM    4  C14 UNL     1      24.521   3.765  50.626  1.00  0.00     0.066 C 
HETATM    5  C15 UNL     1      25.797   3.782  50.274  1.00  0.00     0.094 C 
HETATM    6  N4  UNL     1      26.903   2.963  50.705  1.00  0.00    -0.254 NA
HETATM    7  C17 UNL     1      26.970   2.302  51.836  1.00  0.00     0.167 C 
ENDROOT
BRANCH   3   8
HETATM    8  N3  UNL     1      23.243   1.728  50.962  1.00  0.00     0.115 N 
HETATM    9  H12 UNL     1      22.593   2.045  50.226  1.00  0.00     0.319 HD
BRANCH   8  10
HETATM   10  C8  UNL     1      22.574   0.857  51.899  1.00  0.00     0.300 C 
BRANCH  10  11
HETATM   11  C9  UNL     1      21.282   0.324  51.397  1.00  0.00     0.005 C 
HETATM   12  C10 UNL     1      20.101   0.910  51.526  1.00  0.00    -0.084 C 
HETATM   13  C11 UNL     1      19.749   2.180  52.165  1.00  0.00     0.043 C 
BRANCH  12  14
HETATM   14  C12 UNL     1      18.850   0.324  51.002  1.00  0.00     0.064 C 
BRANCH  14  15
HETATM   15  C13 UNL     1      18.004  -0.156  52.157  1.00  0.00     0.226 C 
HETATM   16  F1  UNL     1      18.572  -1.305  52.678  1.00  0.00    -0.255 F 
ENDBRANCH  14  15
ENDBRANCH  12  14
ENDBRANCH  10  11
ENDBRANCH   8  10
ENDBRANCH   3   8
BRANCH   1  17
HETATM   17  N1  UNL     1      26.344   1.925  54.223  1.00  0.00    -0.347 N 
HETATM   18  H10 UNL     1      26.386   2.729  54.896  1.00  0.00     0.167 HD
BRANCH  17  19
HETATM   19  C2  UNL     1      26.653   0.583  54.579  1.00  0.00    -0.011 C 
HETATM   20  C1  UNL     1      25.793  -0.385  54.848  1.00  0.00     0.058 C 
BRANCH  19  21
HETATM   21  C3  UNL     1      28.085   0.199  54.670  1.00  0.00     0.052 C 
BRANCH  21  22
HETATM   22  C4  UNL     1      28.536  -0.560  53.454  1.00  0.00     0.001 C 
HETATM   23  C5  UNL     1      29.937  -1.098  53.724  1.00  0.00     0.005 C 
ENDBRANCH  21  22
ENDBRANCH  19  21
ENDBRANCH  17  19
ENDBRANCH   1  17
BRANCH   5  24
HETATM   24  C16 UNL     1      26.170   4.796  49.281  1.00  0.00     0.289 C 
HETATM   25  O1  UNL     1      27.329   4.676  48.764  1.00  0.00    -0.300 OA
ENDBRANCH   5  24
TORSDOF 10
ENDMDL
MODEL 8
REMARK VINA RESULT:      -6.6      2.013      2.711
REMARK  10 active torsions:
REMARK  status: ('A' for Active; 'I' for Inactive)
REMARK    1  A    between atoms: C2_2  and  C3_3 
REMARK    2  A    between atoms: C2_2  and  N1_6 
REMARK    3  A    between atoms: C3_3  and  C4_4 
REMARK    4  A    between atoms: N1_6  and  C6_7 
REMARK    5  A    between atoms: C7_9  and  N3_10 
REMARK    6  A    between atoms: N3_10  and  C8_11 
REMARK    7  A    between atoms: C8_11  and  C9_12 
REMARK    8  A    between atoms: C10_13  and  C12_15 
REMARK    9  A    between atoms: C12_15  and  C13_16 
REMARK   10  A    between atoms: C15_19  and  C16_20 
ROOT
HETATM    1  C6  UNL     1      24.815   2.230  52.531  1.00  0.00     0.142 C 
HETATM    2  N2  UNL     1      24.390   1.028  52.332  1.00  0.00    -0.231 NA
HETATM    3  C7  UNL     1      24.564  -0.232  53.025  1.00  0.00     0.369 C 
HETATM    4  C14 UNL     1      25.890  -0.424  53.615  1.00  0.00     0.066 C 
HETATM    5  C15 UNL     1      26.675   0.492  54.159  1.00  0.00     0.094 C 
HETATM    6  N4  UNL     1      26.484   1.911  54.337  1.00  0.00    -0.254 NA
HETATM    7  C17 UNL     1      25.677   2.667  53.632  1.00  0.00     0.167 C 
ENDROOT
BRANCH   3   8
HETATM    8  N3  UNL     1      23.486  -0.509  53.950  1.00  0.00     0.115 N 
HETATM    9  H12 UNL     1      23.853  -1.025  54.765  1.00  0.00     0.319 HD
BRANCH   8  10
HETATM   10  C8  UNL     1      22.380  -1.215  53.347  1.00  0.00     0.300 C 
BRANCH  10  11
HETATM   11  C9  UNL     1      21.142  -0.402  53.244  1.00  0.00     0.005 C 
HETATM   12  C10 UNL     1      20.720   0.232  52.159  1.00  0.00    -0.084 C 
HETATM   13  C11 UNL     1      21.322   0.310  50.826  1.00  0.00     0.043 C 
BRANCH  12  14
HETATM   14  C12 UNL     1      19.475   1.026  52.123  1.00  0.00     0.064 C 
BRANCH  14  15
HETATM   15  C13 UNL     1      18.483   0.353  51.204  1.00  0.00     0.226 C 
HETATM   16  F1  UNL     1      18.165  -0.889  51.725  1.00  0.00    -0.255 F 
ENDBRANCH  14  15
ENDBRANCH  12  14
ENDBRANCH  10  11
ENDBRANCH   8  10
ENDBRANCH   3   8
BRANCH   1  17
HETATM   17  N1  UNL     1      24.385   3.205  51.565  1.00  0.00    -0.347 N 
HETATM   18  H10 UNL     1      23.554   3.782  51.846  1.00  0.00     0.167 HD
BRANCH  17  19
HETATM   19  C2  UNL     1      25.062   3.354  50.323  1.00  0.00    -0.011 C 
HETATM   20  C1  UNL     1      26.342   3.126  50.083  1.00  0.00     0.058 C 
BRANCH  19  21
HETATM   21  C3  UNL     1      24.273   3.816  49.151  1.00  0.00     0.052 C 
BRANCH  21  22
HETATM   22  C4  UNL     1      23.163   2.860  48.817  1.00  0.00     0.001 C 
HETATM   23  C5  UNL     1      21.838   3.600  48.973  1.00  0.00     0.005 C 
ENDBRANCH  21  22
ENDBRANCH  19  21
ENDBRANCH  17  19
ENDBRANCH   1  17
BRANCH   5  24
HETATM   24  C16 UNL     1      27.961   0.006  54.674  1.00  0.00     0.289 C 
HETATM   25  O1  UNL     1      28.718   0.878  55.210  1.00  0.00    -0.300 OA
ENDBRANCH   5  24
TORSDOF 10
ENDMDL
MODEL 9
REMARK VINA RESULT:      -6.5      4.394      8.180
REMARK  10 active torsions:
REMARK  status: ('A' for Active; 'I' for Inactive)
REMARK    1  A    between atoms: C2_2  and  C3_3 
REMARK    2  A    between atoms: C2_2  and  N1_6 
REMARK    3  A    between atoms: C3_3  and  C4_4 
REMARK    4  A    between atoms: N1_6  and  C6_7 
REMARK    5  A    between atoms: C7_9  and  N3_10 
REMARK    6  A    between atoms: N3_10  and  C8_11 
REMARK    7  A    between atoms: C8_11  and  C9_12 
REMARK    8  A    between atoms: C10_13  and  C12_15 
REMARK    9  A    between atoms: C12_15  and  C13_16 
REMARK   10  A    between atoms: C15_19  and  C16_20 
ROOT
HETATM    1  C6  UNL     1      25.984   2.100  52.338  1.00  0.00     0.142 C 
HETATM    2  N2  UNL     1      26.186   2.368  51.092  1.00  0.00    -0.231 NA
HETATM    3  C7  UNL     1      25.600   3.303  50.153  1.00  0.00     0.369 C 
HETATM    4  C14 UNL     1      24.164   3.525  50.329  1.00  0.00     0.066 C 
HETATM    5  C15 UNL     1      23.482   3.551  51.463  1.00  0.00     0.094 C 
HETATM    6  N4  UNL     1      23.917   3.378  52.828  1.00  0.00    -0.254 NA
HETATM    7  C17 UNL     1      25.002   2.748  53.210  1.00  0.00     0.167 C 
ENDROOT
BRANCH   3   8
HETATM    8  N3  UNL     1      26.357   4.532  50.053  1.00  0.00     0.115 N 
HETATM    9  H12 UNL     1      25.714   5.339  50.099  1.00  0.00     0.319 HD
BRANCH   8  10
HETATM   10  C8  UNL     1      27.186   4.602  48.874  1.00  0.00     0.300 C 
BRANCH  10  11
HETATM   11  C9  UNL     1      27.543   5.988  48.479  1.00  0.00     0.005 C 
HETATM   12  C10 UNL     1      28.747   6.403  48.113  1.00  0.00    -0.084 C 
HETATM   13  C11 UNL     1      30.002   5.656  48.001  1.00  0.00     0.043 C 
BRANCH  12  14
HETATM   14  C12 UNL     1      29.035   7.801  47.730  1.00  0.00     0.064 C 
BRANCH  14  15
HETATM   15  C13 UNL     1      28.952   8.679  48.956  1.00  0.00     0.226 C 
HETATM   16  F1  UNL     1      30.215   8.790  49.512  1.00  0.00    -0.255 F 
ENDBRANCH  14  15
ENDBRANCH  12  14
ENDBRANCH  10  11
ENDBRANCH   8  10
ENDBRANCH   3   8
BRANCH   1  17
HETATM   17  N1  UNL     1      26.816   1.064  52.890  1.00  0.00    -0.347 N 
HETATM   18  H10 UNL     1      26.531   0.082  52.652  1.00  0.00     0.167 HD
BRANCH  17  19
HETATM   19  C2  UNL     1      27.941   1.382  53.700  1.00  0.00    -0.011 C 
HETATM   20  C1  UNL     1      28.633   2.510  53.692  1.00  0.00     0.058 C 
BRANCH  19  21
HETATM   21  C3  UNL     1      28.416   0.358  54.667  1.00  0.00     0.052 C 
BRANCH  21  22
HETATM   22  C4  UNL     1      28.757  -0.936  53.983  1.00  0.00     0.001 C 
HETATM   23  C5  UNL     1      30.170  -0.816  53.420  1.00  0.00     0.005 C 
ENDBRANCH  21  22
ENDBRANCH  19  21
ENDBRANCH  17  19
ENDBRANCH   1  17
BRANCH   5  24
HETATM   24  C16 UNL     1      22.041   3.797  51.334  1.00  0.00     0.289 C 
HETATM   25  O1  UNL     1      21.587   4.817  51.947  1.00  0.00    -0.300 OA
ENDBRANCH   5  24
TORSDOF 10
ENDMDL
