MODEL 1
REMARK VINA RESULT:      -6.2      0.000      0.000
REMARK  10 active torsions:
REMARK  status: ('A' for Active; 'I' for Inactive)
REMARK    1  A    between atoms: O1_2  and  C2_3 
REMARK    2  A    between atoms: C2_3  and  C3_4 
REMARK    3  A    between atoms: C3_4  and  O2_5 
REMARK    4  A    between atoms: O2_5  and  C4_6 
REMARK    5  A    between atoms: C5_7  and  O3_8 
REMARK    6  A    between atoms: O3_8  and  C6_9 
REMARK    7  A    between atoms: C6_9  and  C7_10 
REMARK    8  A    between atoms: C7_10  and  O4_11 
REMARK    9  A    between atoms: C10_14  and  N1_15 
REMARK   10  A    between atoms: N1_15  and  C11_16 
ROOT
HETATM    1  C11 UNL     1      28.358  -0.097  54.066  1.00  0.00     0.246 C 
HETATM    2  C12 UNL     1      28.975   1.143  54.511  1.00  0.00     0.078 C 
HETATM    3  N2  UNL     1      29.442   2.129  54.863  1.00  0.00    -0.196 NA
ENDROOT
BRANCH   1   4
HETATM    4  N1  UNL     1      27.195  -0.387  54.922  1.00  0.00    -0.356 N 
HETATM    5  H17 UNL     1      27.477  -0.661  55.916  1.00  0.00     0.162 HD
BRANCH   4   6
HETATM    6  C10 UNL     1      25.841  -0.292  54.411  1.00  0.00     0.159 A 
HETATM    7  C9  UNL     1      25.838   0.506  53.171  1.00  0.00     0.159 A 
HETATM    8  C5  UNL     1      24.514   0.742  52.567  1.00  0.00     0.087 A 
HETATM    9  C4  UNL     1      23.235   0.504  52.670  1.00  0.00     0.099 A 
HETATM   10  C15 UNL     1      22.179  -0.112  53.371  1.00  0.00     0.052 A 
HETATM   11  C14 UNL     1      22.316  -0.860  54.497  1.00  0.00     0.222 A 
HETATM   12  N4  UNL     1      22.890  -1.541  55.610  1.00  0.00    -0.268 NA
HETATM   13  C13 UNL     1      24.166  -1.458  55.760  1.00  0.00     0.241 A 
HETATM   14  N3  UNL     1      25.071  -0.855  55.072  1.00  0.00    -0.393 NA
BRANCH   8  15
HETATM   15  O3  UNL     1      24.813   1.546  51.446  1.00  0.00    -0.350 OA
BRANCH  15  16
HETATM   16  C6  UNL     1      25.330   2.832  51.475  1.00  0.00     0.201 C 
BRANCH  16  17
HETATM   17  C7  UNL     1      26.481   2.895  50.458  1.00  0.00     0.193 C 
BRANCH  17  18
HETATM   18  O4  UNL     1      26.482   4.102  49.755  1.00  0.00    -0.394 OA
HETATM   19  C8  UNL     1      25.316   4.829  50.058  1.00  0.00     0.201 C 
ENDBRANCH  17  18
ENDBRANCH  16  17
ENDBRANCH  15  16
ENDBRANCH   8  15
BRANCH   9  20
HETATM   20  O2  UNL     1      22.321   0.995  51.779  1.00  0.00    -0.346 OA
BRANCH  20  21
HETATM   21  C3  UNL     1      21.410   0.268  51.038  1.00  0.00     0.201 C 
BRANCH  21  22
HETATM   22  C2  UNL     1      20.305   1.071  50.399  1.00  0.00     0.193 C 
BRANCH  22  23
HETATM   23  O1  UNL     1      19.102   1.063  51.027  1.00  0.00    -0.394 OA
HETATM   24  C1  UNL     1      18.789  -0.067  51.759  1.00  0.00     0.201 C 
ENDBRANCH  22  23
ENDBRANCH  21  22
ENDBRANCH  20  21
ENDBRANCH   9  20
ENDBRANCH   4   6
ENDBRANCH   1   4
TORSDOF 10
ENDMDL
MODEL 2
REMARK VINA RESULT:      -6.2      2.534      4.441
REMARK  10 active torsions:
REMARK  status: ('A' for Active; 'I' for Inactive)
REMARK    1  A    between atoms: O1_2  and  C2_3 
REMARK    2  A    between atoms: C2_3  and  C3_4 
REMARK    3  A    between atoms: C3_4  and  O2_5 
REMARK    4  A    between atoms: O2_5  and  C4_6 
REMARK    5  A    between atoms: C5_7  and  O3_8 
REMARK    6  A    between atoms: O3_8  and  C6_9 
REMARK    7  A    between atoms: C6_9  and  C7_10 
REMARK    8  A    between atoms: C7_10  and  O4_11 
REMARK    9  A    between atoms: C10_14  and  N1_15 
REMARK   10  A    between atoms: N1_15  and  C11_16 
ROOT
HETATM    1  C11 UNL     1      26.142   3.818  49.853  1.00  0.00     0.246 C 
HETATM    2  C12 UNL     1      27.076   4.604  49.061  1.00  0.00     0.078 C 
HETATM    3  N2  UNL     1      27.816   5.234  48.454  1.00  0.00    -0.196 NA
ENDROOT
BRANCH   1   4
HETATM    4  N1  UNL     1      26.784   3.455  51.128  1.00  0.00    -0.356 N 
HETATM    5  H17 UNL     1      27.623   4.077  51.355  1.00  0.00     0.162 HD
BRANCH   4   6
HETATM    6  C10 UNL     1      26.284   2.362  51.940  1.00  0.00     0.159 A 
HETATM    7  C9  UNL     1      24.956   1.949  51.445  1.00  0.00     0.159 A 
HETATM    8  C5  UNL     1      24.292   0.883  52.216  1.00  0.00     0.087 A 
HETATM    9  C4  UNL     1      24.404   0.068  53.229  1.00  0.00     0.099 A 
HETATM   10  C15 UNL     1      25.175  -0.413  54.306  1.00  0.00     0.052 A 
HETATM   11  C14 UNL     1      26.414   0.031  54.643  1.00  0.00     0.222 A 
HETATM   12  N4  UNL     1      27.640   0.760  54.642  1.00  0.00    -0.268 NA
HETATM   13  C13 UNL     1      27.791   1.661  53.734  1.00  0.00     0.241 A 
HETATM   14  N3  UNL     1      27.020   2.053  52.781  1.00  0.00    -0.393 NA
BRANCH   8  15
HETATM   15  O3  UNL     1      23.056   0.731  51.550  1.00  0.00    -0.350 OA
BRANCH  15  16
HETATM   16  C6  UNL     1      22.574   1.530  50.526  1.00  0.00     0.201 C 
BRANCH  16  17
HETATM   17  C7  UNL     1      21.395   0.792  49.873  1.00  0.00     0.193 C 
BRANCH  17  18
HETATM   18  O4  UNL     1      21.477   0.817  48.479  1.00  0.00    -0.394 OA
HETATM   19  C8  UNL     1      22.231   1.933  48.069  1.00  0.00     0.201 C 
ENDBRANCH  17  18
ENDBRANCH  16  17
ENDBRANCH  15  16
ENDBRANCH   8  15
BRANCH   9  20
HETATM   20  O2  UNL     1      23.419  -0.815  53.576  1.00  0.00    -0.346 OA
BRANCH  20  21
HETATM   21  C3  UNL     1      22.699  -0.836  54.754  1.00  0.00     0.201 C 
BRANCH  21  22
HETATM   22  C2  UNL     1      21.203  -0.939  54.599  1.00  0.00     0.193 C 
BRANCH  22  23
HETATM   23  O1  UNL     1      20.567   0.139  54.076  1.00  0.00    -0.394 OA
HETATM   24  C1  UNL     1      19.671  -0.102  53.051  1.00  0.00     0.201 C 
ENDBRANCH  22  23
ENDBRANCH  21  22
ENDBRANCH  20  21
ENDBRANCH   9  20
ENDBRANCH   4   6
ENDBRANCH   1   4
TORSDOF 10
ENDMDL
MODEL 3
REMARK VINA RESULT:      -6.2      1.608      1.998
REMARK  10 active torsions:
REMARK  status: ('A' for Active; 'I' for Inactive)
REMARK    1  A    between atoms: O1_2  and  C2_3 
REMARK    2  A    between atoms: C2_3  and  C3_4 
REMARK    3  A    between atoms: C3_4  and  O2_5 
REMARK    4  A    between atoms: O2_5  and  C4_6 
REMARK    5  A    between atoms: C5_7  and  O3_8 
REMARK    6  A    between atoms: O3_8  and  C6_9 
REMARK    7  A    between atoms: C6_9  and  C7_10 
REMARK    8  A    between atoms: C7_10  and  O4_11 
REMARK    9  A    between atoms: C10_14  and  N1_15 
REMARK   10  A    between atoms: N1_15  and  C11_16 
ROOT
HETATM    1  C11 UNL     1      27.734  -0.043  53.505  1.00  0.00     0.246 C 
HETATM    2  C12 UNL     1      28.525   0.912  54.265  1.00  0.00     0.078 C 
HETATM    3  N2  UNL     1      29.132   1.673  54.871  1.00  0.00    -0.196 NA
ENDROOT
BRANCH   1   4
HETATM    4  N1  UNL     1      26.663  -0.571  54.368  1.00  0.00    -0.356 N 
HETATM    5  H17 UNL     1      27.045  -1.082  55.227  1.00  0.00     0.162 HD
BRANCH   4   6
HETATM    6  C10 UNL     1      25.264  -0.383  54.034  1.00  0.00     0.159 A 
HETATM    7  C9  UNL     1      25.155   0.462  52.831  1.00  0.00     0.159 A 
HETATM    8  C5  UNL     1      23.782   0.792  52.406  1.00  0.00     0.087 A 
HETATM    9  C4  UNL     1      22.514   0.619  52.660  1.00  0.00     0.099 A 
HETATM   10  C15 UNL     1      21.518   0.032  53.466  1.00  0.00     0.052 A 
HETATM   11  C14 UNL     1      21.750  -0.766  54.541  1.00  0.00     0.222 A 
HETATM   12  N4  UNL     1      22.416  -1.521  55.551  1.00  0.00    -0.268 NA
HETATM   13  C13 UNL     1      23.704  -1.512  55.543  1.00  0.00     0.241 A 
HETATM   14  N3  UNL     1      24.550  -0.930  54.767  1.00  0.00    -0.393 NA
BRANCH   8  15
HETATM   15  O3  UNL     1      23.987   1.623  51.283  1.00  0.00    -0.350 OA
BRANCH  15  16
HETATM   16  C6  UNL     1      24.764   2.770  51.244  1.00  0.00     0.201 C 
BRANCH  16  17
HETATM   17  C7  UNL     1      23.838   3.950  50.907  1.00  0.00     0.193 C 
BRANCH  17  18
HETATM   18  O4  UNL     1      23.021   4.290  51.988  1.00  0.00    -0.394 OA
HETATM   19  C8  UNL     1      21.752   4.677  51.519  1.00  0.00     0.201 C 
ENDBRANCH  17  18
ENDBRANCH  16  17
ENDBRANCH  15  16
ENDBRANCH   8  15
BRANCH   9  20
HETATM   20  O2  UNL     1      21.527   1.192  51.906  1.00  0.00    -0.346 OA
BRANCH  20  21
HETATM   21  C3  UNL     1      20.791   0.591  50.906  1.00  0.00     0.201 C 
BRANCH  21  22
HETATM   22  C2  UNL     1      20.735   1.342  49.599  1.00  0.00     0.193 C 
BRANCH  22  23
HETATM   23  O1  UNL     1      21.597   0.945  48.629  1.00  0.00    -0.394 OA
HETATM   24  C1  UNL     1      22.257   1.943  47.937  1.00  0.00     0.201 C 
ENDBRANCH  22  23
ENDBRANCH  21  22
ENDBRANCH  20  21
ENDBRANCH   9  20
ENDBRANCH   4   6
ENDBRANCH   1   4
TORSDOF 10
ENDMDL
MODEL 4
REMARK VINA RESULT:      -6.0      1.844      1.956
REMARK  10 active torsions:
REMARK  status: ('A' for Active; 'I' for Inactive)
REMARK    1  A    between atoms: O1_2  and  C2_3 
REMARK    2  A    between atoms: C2_3  and  C3_4 
REMARK    3  A    between atoms: C3_4  and  O2_5 
REMARK    4  A    between atoms: O2_5  and  C4_6 
REMARK    5  A    between atoms: C5_7  and  O3_8 
REMARK    6  A    between atoms: O3_8  and  C6_9 
REMARK    7  A    between atoms: C6_9  and  C7_10 
REMARK    8  A    between atoms: C7_10  and  O4_11 
REMARK    9  A    between atoms: C10_14  and  N1_15 
REMARK   10  A    between atoms: N1_15  and  C11_16 
ROOT
HETATM    1  C11 UNL     1      27.131   0.276  54.907  1.00  0.00     0.246 C 
HETATM    2  C12 UNL     1      28.469   0.118  54.357  1.00  0.00     0.078 C 
HETATM    3  N2  UNL     1      29.522  -0.027  53.927  1.00  0.00    -0.196 NA
ENDROOT
BRANCH   1   4
HETATM    4  N1  UNL     1      26.246  -0.738  54.309  1.00  0.00    -0.356 N 
HETATM    5  H17 UNL     1      26.741  -1.674  54.157  1.00  0.00     0.162 HD
BRANCH   4   6
HETATM    6  C10 UNL     1      24.865  -0.437  53.986  1.00  0.00     0.159 A 
HETATM    7  C9  UNL     1      24.819   0.515  52.860  1.00  0.00     0.159 A 
HETATM    8  C5  UNL     1      23.473   0.964  52.458  1.00  0.00     0.087 A 
HETATM    9  C4  UNL     1      22.195   0.848  52.691  1.00  0.00     0.099 A 
HETATM   10  C15 UNL     1      21.157   0.257  53.438  1.00  0.00     0.052 A 
HETATM   11  C14 UNL     1      21.328  -0.644  54.441  1.00  0.00     0.222 A 
HETATM   12  N4  UNL     1      21.937  -1.523  55.385  1.00  0.00    -0.268 NA
HETATM   13  C13 UNL     1      23.223  -1.592  55.383  1.00  0.00     0.241 A 
HETATM   14  N3  UNL     1      24.111  -0.999  54.665  1.00  0.00    -0.393 NA
BRANCH   8  15
HETATM   15  O3  UNL     1      23.740   1.875  51.413  1.00  0.00    -0.350 OA
BRANCH  15  16
HETATM   16  C6  UNL     1      24.964   2.461  51.129  1.00  0.00     0.201 C 
BRANCH  16  17
HETATM   17  C7  UNL     1      24.734   3.974  50.984  1.00  0.00     0.193 C 
BRANCH  17  18
HETATM   18  O4  UNL     1      23.687   4.418  51.794  1.00  0.00    -0.394 OA
HETATM   19  C8  UNL     1      23.090   5.554  51.218  1.00  0.00     0.201 C 
ENDBRANCH  17  18
ENDBRANCH  16  17
ENDBRANCH  15  16
ENDBRANCH   8  15
BRANCH   9  20
HETATM   20  O2  UNL     1      21.252   1.544  51.985  1.00  0.00    -0.346 OA
BRANCH  20  21
HETATM   21  C3  UNL     1      20.416   2.532  52.465  1.00  0.00     0.201 C 
BRANCH  21  22
HETATM   22  C2  UNL     1      19.233   2.862  51.591  1.00  0.00     0.193 C 
BRANCH  22  23
HETATM   23  O1  UNL     1      18.379   3.810  52.052  1.00  0.00    -0.394 OA
HETATM   24  C1  UNL     1      17.096   3.797  51.537  1.00  0.00     0.201 C 
ENDBRANCH  22  23
ENDBRANCH  21  22
ENDBRANCH  20  21
ENDBRANCH   9  20
ENDBRANCH   4   6
ENDBRANCH   1   4
TORSDOF 10
ENDMDL
MODEL 5
REMARK VINA RESULT:      -5.9      2.977      6.191
REMARK  10 active torsions:
REMARK  status: ('A' for Active; 'I' for Inactive)
REMARK    1  A    between atoms: O1_2  and  C2_3 
REMARK    2  A    between atoms: C2_3  and  C3_4 
REMARK    3  A    between atoms: C3_4  and  O2_5 
REMARK    4  A    between atoms: O2_5  and  C4_6 
REMARK    5  A    between atoms: C5_7  and  O3_8 
REMARK    6  A    between atoms: O3_8  and  C6_9 
REMARK    7  A    between atoms: C6_9  and  C7_10 
REMARK    8  A    between atoms: C7_10  and  O4_11 
REMARK    9  A    between atoms: C10_14  and  N1_15 
REMARK   10  A    between atoms: N1_15  and  C11_16 
ROOT
HETATM    1  C11 UNL     1      19.389   1.546  50.709  1.00  0.00     0.246 C 
HETATM    2  C12 UNL     1      18.755   2.663  51.393  1.00  0.00     0.078 C 
HETATM    3  N2  UNL     1      18.242   3.529  51.941  1.00  0.00    -0.196 NA
ENDROOT
BRANCH   1   4
HETATM    4  N1  UNL     1      19.563   0.437  51.662  1.00  0.00    -0.356 N 
HETATM    5  H17 UNL     1      18.673  -0.145  51.778  1.00  0.00     0.162 HD
BRANCH   4   6
HETATM    6  C10 UNL     1      20.828   0.213  52.336  1.00  0.00     0.159 A 
HETATM    7  C9  UNL     1      21.886   0.994  51.668  1.00  0.00     0.159 A 
HETATM    8  C5  UNL     1      23.246   0.816  52.208  1.00  0.00     0.087 A 
HETATM    9  C4  UNL     1      23.964   0.220  53.119  1.00  0.00     0.099 A 
HETATM   10  C15 UNL     1      24.023  -0.653  54.224  1.00  0.00     0.052 A 
HETATM   11  C14 UNL     1      22.958  -1.292  54.775  1.00  0.00     0.222 A 
HETATM   12  N4  UNL     1      21.629  -1.742  55.027  1.00  0.00    -0.268 NA
HETATM   13  C13 UNL     1      20.701  -1.309  54.246  1.00  0.00     0.241 A 
HETATM   14  N3  UNL     1      20.735  -0.512  53.236  1.00  0.00    -0.393 NA
BRANCH   8  15
HETATM   15  O3  UNL     1      24.033   1.634  51.367  1.00  0.00    -0.350 OA
BRANCH  15  16
HETATM   16  C6  UNL     1      23.746   2.937  50.990  1.00  0.00     0.201 C 
BRANCH  16  17
HETATM   17  C7  UNL     1      24.094   3.852  52.174  1.00  0.00     0.193 C 
BRANCH  17  18
HETATM   18  O4  UNL     1      23.029   4.692  52.508  1.00  0.00    -0.394 OA
HETATM   19  C8  UNL     1      22.064   4.663  51.484  1.00  0.00     0.201 C 
ENDBRANCH  17  18
ENDBRANCH  16  17
ENDBRANCH  15  16
ENDBRANCH   8  15
BRANCH   9  20
HETATM   20  O2  UNL     1      25.318   0.390  53.217  1.00  0.00    -0.346 OA
BRANCH  20  21
HETATM   21  C3  UNL     1      26.064   0.470  54.376  1.00  0.00     0.201 C 
BRANCH  21  22
HETATM   22  C2  UNL     1      27.559   0.520  54.184  1.00  0.00     0.193 C 
BRANCH  22  23
HETATM   23  O1  UNL     1      28.254  -0.599  54.512  1.00  0.00    -0.394 OA
HETATM   24  C1  UNL     1      29.327  -0.924  53.703  1.00  0.00     0.201 C 
ENDBRANCH  22  23
ENDBRANCH  21  22
ENDBRANCH  20  21
ENDBRANCH   9  20
ENDBRANCH   4   6
ENDBRANCH   1   4
TORSDOF 10
ENDMDL
MODEL 6
REMARK VINA RESULT:      -5.9      3.454      5.248
REMARK  10 active torsions:
REMARK  status: ('A' for Active; 'I' for Inactive)
REMARK    1  A    between atoms: O1_2  and  C2_3 
REMARK    2  A    between atoms: C2_3  and  C3_4 
REMARK    3  A    between atoms: C3_4  and  O2_5 
REMARK    4  A    between atoms: O2_5  and  C4_6 
REMARK    5  A    between atoms: C5_7  and  O3_8 
REMARK    6  A    between atoms: O3_8  and  C6_9 
REMARK    7  A    between atoms: C6_9  and  C7_10 
REMARK    8  A    between atoms: C7_10  and  O4_11 
REMARK    9  A    between atoms: C10_14  and  N1_15 
REMARK   10  A    between atoms: N1_15  and  C11_16 
ROOT
HETATM    1  C11 UNL     1      26.757   4.720  48.988  1.00  0.00     0.246 C 
HETATM    2  C12 UNL     1      28.096   5.061  48.530  1.00  0.00     0.078 C 
HETATM    3  N2  UNL     1      29.155   5.335  48.189  1.00  0.00    -0.196 NA
ENDROOT
BRANCH   1   4
HETATM    4  N1  UNL     1      26.862   3.938  50.231  1.00  0.00    -0.356 N 
HETATM    5  H17 UNL     1      27.825   4.023  50.688  1.00  0.00     0.162 HD
BRANCH   4   6
HETATM    6  C10 UNL     1      25.744   3.157  50.727  1.00  0.00     0.159 A 
HETATM    7  C9  UNL     1      26.196   2.307  51.845  1.00  0.00     0.159 A 
HETATM    8  C5  UNL     1      25.176   1.407  52.414  1.00  0.00     0.087 A 
HETATM    9  C4  UNL     1      23.930   1.028  52.348  1.00  0.00     0.099 A 
HETATM   10  C15 UNL     1      22.663   1.157  51.744  1.00  0.00     0.052 A 
HETATM   11  C14 UNL     1      22.361   2.012  50.732  1.00  0.00     0.222 A 
HETATM   12  N4  UNL     1      22.477   3.014  49.723  1.00  0.00    -0.268 NA
HETATM   13  C13 UNL     1      23.632   3.557  49.560  1.00  0.00     0.241 A 
HETATM   14  N3  UNL     1      24.758   3.369  50.154  1.00  0.00    -0.393 NA
BRANCH   8  15
HETATM   15  O3  UNL     1      25.890   0.706  53.411  1.00  0.00    -0.350 OA
BRANCH  15  16
HETATM   16  C6  UNL     1      27.220   0.322  53.349  1.00  0.00     0.201 C 
BRANCH  16  17
HETATM   17  C7  UNL     1      27.734   0.183  54.791  1.00  0.00     0.193 C 
BRANCH  17  18
HETATM   18  O4  UNL     1      29.092  -0.139  54.827  1.00  0.00    -0.394 OA
HETATM   19  C8  UNL     1      29.481  -0.693  53.593  1.00  0.00     0.201 C 
ENDBRANCH  17  18
ENDBRANCH  16  17
ENDBRANCH  15  16
ENDBRANCH   8  15
BRANCH   9  20
HETATM   20  O2  UNL     1      23.410   0.062  53.166  1.00  0.00    -0.346 OA
BRANCH  20  21
HETATM   21  C3  UNL     1      22.396  -0.825  52.864  1.00  0.00     0.201 C 
BRANCH  21  22
HETATM   22  C2  UNL     1      21.857  -1.616  54.029  1.00  0.00     0.193 C 
BRANCH  22  23
HETATM   23  O1  UNL     1      20.538  -1.468  54.310  1.00  0.00    -0.394 OA
HETATM   24  C1  UNL     1      19.807  -0.659  53.460  1.00  0.00     0.201 C 
ENDBRANCH  22  23
ENDBRANCH  21  22
ENDBRANCH  20  21
ENDBRANCH   9  20
ENDBRANCH   4   6
ENDBRANCH   1   4
TORSDOF 10
ENDMDL
MODEL 7
REMARK VINA RESULT:      -5.8      2.837      5.434
REMARK  10 active torsions:
REMARK  status: ('A' for Active; 'I' for Inactive)
REMARK    1  A    between atoms: O1_2  and  C2_3 
REMARK    2  A    between atoms: C2_3  and  C3_4 
REMARK    3  A    between atoms: C3_4  and  O2_5 
REMARK    4  A    between atoms: O2_5  and  C4_6 
REMARK    5  A    between atoms: C5_7  and  O3_8 
REMARK    6  A    between atoms: O3_8  and  C6_9 
REMARK    7  A    between atoms: C6_9  and  C7_10 
REMARK    8  A    between atoms: C7_10  and  O4_11 
REMARK    9  A    between atoms: C10_14  and  N1_15 
REMARK   10  A    between atoms: N1_15  and  C11_16 
ROOT
HETATM    1  C11 UNL     1      21.233  -1.093  53.894  1.00  0.00     0.246 C 
HETATM    2  C12 UNL     1      22.249  -1.375  54.896  1.00  0.00     0.078 C 
HETATM    3  N2  UNL     1      23.061  -1.606  55.671  1.00  0.00    -0.196 NA
ENDROOT
BRANCH   1   4
HETATM    4  N1  UNL     1      21.884  -0.534  52.697  1.00  0.00    -0.356 N 
HETATM    5  H17 UNL     1      22.243  -1.293  52.034  1.00  0.00     0.162 HD
BRANCH   4   6
HETATM    6  C10 UNL     1      21.994   0.898  52.498  1.00  0.00     0.159 A 
HETATM    7  C9  UNL     1      23.419   1.282  52.462  1.00  0.00     0.159 A 
HETATM    8  C5  UNL     1      23.687   2.725  52.327  1.00  0.00     0.087 A 
HETATM    9  C4  UNL     1      23.146   3.904  52.197  1.00  0.00     0.099 A 
HETATM   10  C15 UNL     1      21.980   4.688  52.088  1.00  0.00     0.052 A 
HETATM   11  C14 UNL     1      20.709   4.207  52.100  1.00  0.00     0.222 A 
HETATM   12  N4  UNL     1      19.597   3.315  52.157  1.00  0.00    -0.268 NA
HETATM   13  C13 UNL     1      19.852   2.062  52.301  1.00  0.00     0.241 A 
HETATM   14  N3  UNL     1      20.963   1.421  52.408  1.00  0.00    -0.393 NA
BRANCH   8  15
HETATM   15  O3  UNL     1      25.098   2.791  52.362  1.00  0.00    -0.350 OA
BRANCH  15  16
HETATM   16  C6  UNL     1      25.931   2.074  53.206  1.00  0.00     0.201 C 
BRANCH  16  17
HETATM   17  C7  UNL     1      27.189   1.694  52.409  1.00  0.00     0.193 C 
BRANCH  17  18
HETATM   18  O4  UNL     1      28.271   2.516  52.730  1.00  0.00    -0.394 OA
HETATM   19  C8  UNL     1      28.869   2.069  53.923  1.00  0.00     0.201 C 
ENDBRANCH  17  18
ENDBRANCH  16  17
ENDBRANCH  15  16
ENDBRANCH   8  15
BRANCH   9  20
HETATM   20  O2  UNL     1      23.890   5.050  52.109  1.00  0.00    -0.346 OA
BRANCH  20  21
HETATM   21  C3  UNL     1      24.091   5.824  50.984  1.00  0.00     0.201 C 
BRANCH  21  22
HETATM   22  C2  UNL     1      25.129   5.309  50.019  1.00  0.00     0.193 C 
BRANCH  22  23
HETATM   23  O1  UNL     1      24.671   4.657  48.920  1.00  0.00    -0.394 OA
HETATM   24  C1  UNL     1      23.412   5.005  48.470  1.00  0.00     0.201 C 
ENDBRANCH  22  23
ENDBRANCH  21  22
ENDBRANCH  20  21
ENDBRANCH   9  20
ENDBRANCH   4   6
ENDBRANCH   1   4
TORSDOF 10
ENDMDL
MODEL 8
REMARK VINA RESULT:      -5.7      3.730      7.617
REMARK  10 active torsions:
REMARK  status: ('A' for Active; 'I' for Inactive)
REMARK    1  A    between atoms: O1_2  and  C2_3 
REMARK    2  A    between atoms: C2_3  and  C3_4 
REMARK    3  A    between atoms: C3_4  and  O2_5 
REMARK    4  A    between atoms: O2_5  and  C4_6 
REMARK    5  A    between atoms: C5_7  and  O3_8 
REMARK    6  A    between atoms: O3_8  and  C6_9 
REMARK    7  A    between atoms: C6_9  and  C7_10 
REMARK    8  A    between atoms: C7_10  and  O4_11 
REMARK    9  A    between atoms: C10_14  and  N1_15 
REMARK   10  A    between atoms: N1_15  and  C11_16 
ROOT
HETATM    1  C11 UNL     1      21.154   2.874  49.099  1.00  0.00     0.246 C 
HETATM    2  C12 UNL     1      19.881   3.577  49.062  1.00  0.00     0.078 C 
HETATM    3  N2  UNL     1      18.872   4.121  49.049  1.00  0.00    -0.196 NA
ENDROOT
BRANCH   1   4
HETATM    4  N1  UNL     1      21.648   2.853  50.486  1.00  0.00    -0.356 N 
HETATM    5  H17 UNL     1      20.888   3.104  51.195  1.00  0.00     0.162 HD
BRANCH   4   6
HETATM    6  C10 UNL     1      23.027   2.520  50.791  1.00  0.00     0.159 A 
HETATM    7  C9  UNL     1      23.062   1.484  51.841  1.00  0.00     0.159 A 
HETATM    8  C5  UNL     1      24.406   1.087  52.300  1.00  0.00     0.087 A 
HETATM    9  C4  UNL     1      25.687   1.272  52.141  1.00  0.00     0.099 A 
HETATM   10  C15 UNL     1      26.732   1.933  51.465  1.00  0.00     0.052 A 
HETATM   11  C14 UNL     1      26.569   2.854  50.480  1.00  0.00     0.222 A 
HETATM   12  N4  UNL     1      25.967   3.731  49.529  1.00  0.00    -0.268 NA
HETATM   13  C13 UNL     1      24.681   3.759  49.483  1.00  0.00     0.241 A 
HETATM   14  N3  UNL     1      23.786   3.124  50.155  1.00  0.00    -0.393 NA
BRANCH   8  15
HETATM   15  O3  UNL     1      24.130   0.137  53.308  1.00  0.00    -0.350 OA
BRANCH  15  16
HETATM   16  C6  UNL     1      23.017  -0.686  53.376  1.00  0.00     0.201 C 
BRANCH  16  17
HETATM   17  C7  UNL     1      22.886  -1.176  54.827  1.00  0.00     0.193 C 
BRANCH  17  18
HETATM   18  O4  UNL     1      21.554  -1.418  55.171  1.00  0.00    -0.394 OA
HETATM   19  C8  UNL     1      20.745  -1.340  54.023  1.00  0.00     0.201 C 
ENDBRANCH  17  18
ENDBRANCH  16  17
ENDBRANCH  15  16
ENDBRANCH   8  15
BRANCH   9  20
HETATM   20  O2  UNL     1      26.625   0.606  52.882  1.00  0.00    -0.346 OA
BRANCH  20  21
HETATM   21  C3  UNL     1      27.582   1.164  53.705  1.00  0.00     0.201 C 
BRANCH  21  22
HETATM   22  C2  UNL     1      28.104   0.263  54.796  1.00  0.00     0.193 C 
BRANCH  22  23
HETATM   23  O1  UNL     1      28.736  -0.871  54.402  1.00  0.00    -0.394 OA
HETATM   24  C1  UNL     1      29.817  -0.719  53.554  1.00  0.00     0.201 C 
ENDBRANCH  22  23
ENDBRANCH  21  22
ENDBRANCH  20  21
ENDBRANCH   9  20
ENDBRANCH   4   6
ENDBRANCH   1   4
TORSDOF 10
ENDMDL
MODEL 9
REMARK VINA RESULT:      -5.4      3.851      5.776
REMARK  10 active torsions:
REMARK  status: ('A' for Active; 'I' for Inactive)
REMARK    1  A    between atoms: O1_2  and  C2_3 
REMARK    2  A    between atoms: C2_3  and  C3_4 
REMARK    3  A    between atoms: C3_4  and  O2_5 
REMARK    4  A    between atoms: O2_5  and  C4_6 
REMARK    5  A    between atoms: C5_7  and  O3_8 
REMARK    6  A    between atoms: O3_8  and  C6_9 
REMARK    7  A    between atoms: C6_9  and  C7_10 
REMARK    8  A    between atoms: C7_10  and  O4_11 
REMARK    9  A    between atoms: C10_14  and  N1_15 
REMARK   10  A    between atoms: N1_15  and  C11_16 
ROOT
HETATM    1  C11 UNL     1      23.924   6.935  50.710  1.00  0.00     0.246 C 
HETATM    2  C12 UNL     1      25.273   7.378  50.393  1.00  0.00     0.078 C 
HETATM    3  N2  UNL     1      26.339   7.733  50.163  1.00  0.00    -0.196 NA
ENDROOT
BRANCH   1   4
HETATM    4  N1  UNL     1      23.968   6.105  51.925  1.00  0.00    -0.356 N 
HETATM    5  H17 UNL     1      24.636   6.495  52.664  1.00  0.00     0.162 HD
BRANCH   4   6
HETATM    6  C10 UNL     1      23.167   4.901  52.046  1.00  0.00     0.159 A 
HETATM    7  C9  UNL     1      23.969   3.838  52.681  1.00  0.00     0.159 A 
HETATM    8  C5  UNL     1      23.303   2.530  52.813  1.00  0.00     0.087 A 
HETATM    9  C4  UNL     1      22.200   1.866  52.602  1.00  0.00     0.099 A 
HETATM   10  C15 UNL     1      20.874   1.858  52.124  1.00  0.00     0.052 A 
HETATM   11  C14 UNL     1      20.228   2.925  51.586  1.00  0.00     0.222 A 
HETATM   12  N4  UNL     1      19.944   4.239  51.108  1.00  0.00    -0.268 NA
HETATM   13  C13 UNL     1      20.887   5.112  51.185  1.00  0.00     0.241 A 
HETATM   14  N3  UNL     1      22.092   5.033  51.629  1.00  0.00    -0.393 NA
BRANCH   8  15
HETATM   15  O3  UNL     1      24.300   1.722  53.402  1.00  0.00    -0.350 OA
BRANCH  15  16
HETATM   16  C6  UNL     1      25.478   1.307  52.802  1.00  0.00     0.201 C 
BRANCH  16  17
HETATM   17  C7  UNL     1      26.643   1.756  53.698  1.00  0.00     0.193 C 
BRANCH  17  18
HETATM   18  O4  UNL     1      27.780   0.969  53.500  1.00  0.00    -0.394 OA
HETATM   19  C8  UNL     1      28.019   0.185  54.644  1.00  0.00     0.201 C 
ENDBRANCH  17  18
ENDBRANCH  16  17
ENDBRANCH  15  16
ENDBRANCH   8  15
BRANCH   9  20
HETATM   20  O2  UNL     1      22.062   0.544  52.925  1.00  0.00    -0.346 OA
BRANCH  20  21
HETATM   21  C3  UNL     1      21.335   0.017  53.973  1.00  0.00     0.201 C 
BRANCH  21  22
HETATM   22  C2  UNL     1      21.564  -1.448  54.250  1.00  0.00     0.193 C 
BRANCH  22  23
HETATM   23  O1  UNL     1      22.183  -1.760  55.416  1.00  0.00    -0.394 OA
HETATM   24  C1  UNL     1      23.518  -1.418  55.524  1.00  0.00     0.201 C 
ENDBRANCH  22  23
ENDBRANCH  21  22
ENDBRANCH  20  21
ENDBRANCH   9  20
ENDBRANCH   4   6
ENDBRANCH   1   4
TORSDOF 10
ENDMDL
