MODEL 1
REMARK VINA RESULT:      -8.4      0.000      0.000
REMARK  6 active torsions:
REMARK  status: ('A' for Active; 'I' for Inactive)
REMARK    1  A    between atoms: O1_2  and  C2_3 
REMARK    2  A    between atoms: C2_3  and  C3_4 
REMARK    3  A    between atoms: C3_4  and  O2_5 
REMARK    4  A    between atoms: O2_5  and  C4_6 
REMARK    5  A    between atoms: C8_12  and  N3_13 
REMARK    6  A    between atoms: N3_13  and  C9_14 
ROOT
HETATM    1  C4  UNL     1      20.157  -0.017  52.743  1.00  0.00     0.107 A 
HETATM    2  C5  UNL     1      20.520  -0.795  53.840  1.00  0.00     0.072 A 
HETATM    3  C6  UNL     1      21.832  -0.876  54.265  1.00  0.00     0.077 A 
HETATM    4  N1  UNL     1      22.272  -1.600  55.305  1.00  0.00    -0.241 NA
HETATM    5  C7  UNL     1      23.572  -1.620  55.644  1.00  0.00     0.236 A 
HETATM    6  N2  UNL     1      24.520  -0.914  54.959  1.00  0.00    -0.224 NA
HETATM    7  C8  UNL     1      24.136  -0.167  53.902  1.00  0.00     0.141 A 
HETATM    8  C16 UNL     1      22.801  -0.180  53.597  1.00  0.00     0.075 A 
HETATM    9  C17 UNL     1      22.461   0.593  52.512  1.00  0.00     0.121 A 
HETATM   10  C18 UNL     1      21.160   0.672  52.093  1.00  0.00     0.136 A 
HETATM   11  O3  UNL     1      20.699   1.430  50.998  1.00  0.00    -0.344 OA
HETATM   12  C19 UNL     1      21.619   2.319  50.346  1.00  0.00     0.202 C 
HETATM   13  C20 UNL     1      22.988   1.676  50.429  1.00  0.00     0.202 C 
HETATM   14  O4  UNL     1      23.333   1.342  51.751  1.00  0.00    -0.345 OA
ENDROOT
BRANCH   7  15
HETATM   15  N3  UNL     1      25.188   0.547  53.236  1.00  0.00    -0.359 N 
HETATM   16  H10 UNL     1      25.311   1.479  52.785  1.00  0.00     0.162 HD
BRANCH  15  17
HETATM   17  C9  UNL     1      26.478  -0.204  53.152  1.00  0.00     0.075 A 
HETATM   18  C10 UNL     1      26.588  -1.533  52.397  1.00  0.00     0.052 A 
HETATM   19  C11 UNL     1      27.708  -1.252  52.875  1.00  0.00     0.069 A 
HETATM   20  C12 UNL     1      28.615  -1.002  53.275  1.00  0.00    -0.164 A 
HETATM   21  C13 UNL     1      29.805  -0.644  53.818  1.00  0.00     0.107 A 
HETATM   22  C14 UNL     1      28.812   0.741  54.359  1.00  0.00    -0.017 A 
HETATM   23  C15 UNL     1      27.373   0.861  54.029  1.00  0.00     0.003 A 
ENDBRANCH  15  17
ENDBRANCH   7  15
BRANCH   1  24
HETATM   24  O2  UNL     1      18.817   0.032  52.353  1.00  0.00    -0.346 OA
BRANCH  24  25
HETATM   25  C3  UNL     1      17.923  -0.842  53.007  1.00  0.00     0.201 C 
BRANCH  25  26
HETATM   26  C2  UNL     1      16.554  -0.839  52.373  1.00  0.00     0.193 C 
BRANCH  26  27
HETATM   27  O1  UNL     1      15.624  -0.125  53.110  1.00  0.00    -0.394 OA
HETATM   28  C1  UNL     1      15.275   1.045  52.419  1.00  0.00     0.201 C 
ENDBRANCH  26  27
ENDBRANCH  25  26
ENDBRANCH  24  25
ENDBRANCH   1  24
TORSDOF 6
ENDMDL
MODEL 2
REMARK VINA RESULT:      -8.3      1.954      3.339
REMARK  6 active torsions:
REMARK  status: ('A' for Active; 'I' for Inactive)
REMARK    1  A    between atoms: O1_2  and  C2_3 
REMARK    2  A    between atoms: C2_3  and  C3_4 
REMARK    3  A    between atoms: C3_4  and  O2_5 
REMARK    4  A    between atoms: O2_5  and  C4_6 
REMARK    5  A    between atoms: C8_12  and  N3_13 
REMARK    6  A    between atoms: N3_13  and  C9_14 
ROOT
HETATM    1  C4  UNL     1      20.897   0.613  51.362  1.00  0.00     0.107 A 
HETATM    2  C5  UNL     1      21.704   1.475  50.625  1.00  0.00     0.072 A 
HETATM    3  C6  UNL     1      23.011   1.731  50.992  1.00  0.00     0.077 A 
HETATM    4  N1  UNL     1      23.858   2.548  50.346  1.00  0.00    -0.241 NA
HETATM    5  C7  UNL     1      25.114   2.737  50.780  1.00  0.00     0.236 A 
HETATM    6  N2  UNL     1      25.608   2.121  51.895  1.00  0.00    -0.224 NA
HETATM    7  C8  UNL     1      24.801   1.288  52.586  1.00  0.00     0.141 A 
HETATM    8  C16 UNL     1      23.530   1.127  52.104  1.00  0.00     0.075 A 
HETATM    9  C17 UNL     1      22.747   0.273  52.843  1.00  0.00     0.121 A 
HETATM   10  C18 UNL     1      21.452   0.020  52.477  1.00  0.00     0.136 A 
HETATM   11  O3  UNL     1      20.562  -0.834  53.159  1.00  0.00    -0.344 OA
HETATM   12  C19 UNL     1      21.073  -1.635  54.236  1.00  0.00     0.202 C 
HETATM   13  C20 UNL     1      22.169  -0.830  54.903  1.00  0.00     0.202 C 
HETATM   14  O4  UNL     1      23.140  -0.400  53.981  1.00  0.00    -0.345 OA
ENDROOT
BRANCH   7  15
HETATM   15  N3  UNL     1      25.391   0.675  53.743  1.00  0.00    -0.359 N 
HETATM   16  H10 UNL     1      25.203   0.639  54.767  1.00  0.00     0.162 HD
BRANCH  15  17
HETATM   17  C9  UNL     1      26.601  -0.152  53.446  1.00  0.00     0.075 A 
HETATM   18  C10 UNL     1      26.532  -1.383  52.536  1.00  0.00     0.052 A 
HETATM   19  C11 UNL     1      27.710  -1.244  52.931  1.00  0.00     0.069 A 
HETATM   20  C12 UNL     1      28.666  -1.112  53.266  1.00  0.00    -0.164 A 
HETATM   21  C13 UNL     1      29.925  -0.910  53.726  1.00  0.00     0.107 A 
HETATM   22  C14 UNL     1      29.105   0.467  54.517  1.00  0.00    -0.017 A 
HETATM   23  C15 UNL     1      27.657   0.730  54.347  1.00  0.00     0.003 A 
ENDBRANCH  15  17
ENDBRANCH   7  15
BRANCH   1  24
HETATM   24  O2  UNL     1      19.582   0.386  50.949  1.00  0.00    -0.346 OA
BRANCH  24  25
HETATM   25  C3  UNL     1      18.806   1.518  50.620  1.00  0.00     0.201 C 
BRANCH  25  26
HETATM   26  C2  UNL     1      18.253   2.207  51.844  1.00  0.00     0.193 C 
BRANCH  26  27
HETATM   27  O1  UNL     1      18.435   3.579  51.813  1.00  0.00    -0.394 OA
HETATM   28  C1  UNL     1      17.427   4.169  51.035  1.00  0.00     0.201 C 
ENDBRANCH  26  27
ENDBRANCH  25  26
ENDBRANCH  24  25
ENDBRANCH   1  24
TORSDOF 6
ENDMDL
MODEL 3
REMARK VINA RESULT:      -8.0      2.832      7.578
REMARK  6 active torsions:
REMARK  status: ('A' for Active; 'I' for Inactive)
REMARK    1  A    between atoms: O1_2  and  C2_3 
REMARK    2  A    between atoms: C2_3  and  C3_4 
REMARK    3  A    between atoms: C3_4  and  O2_5 
REMARK    4  A    between atoms: O2_5  and  C4_6 
REMARK    5  A    between atoms: C8_12  and  N3_13 
REMARK    6  A    between atoms: N3_13  and  C9_14 
ROOT
HETATM    1  C4  UNL     1      26.332  -0.113  52.738  1.00  0.00     0.107 A 
HETATM    2  C5  UNL     1      25.491  -0.828  53.587  1.00  0.00     0.072 A 
HETATM    3  C6  UNL     1      24.162  -0.486  53.744  1.00  0.00     0.077 A 
HETATM    4  N1  UNL     1      23.283  -1.114  54.540  1.00  0.00    -0.241 NA
HETATM    5  C7  UNL     1      22.006  -0.706  54.630  1.00  0.00     0.236 A 
HETATM    6  N2  UNL     1      21.525   0.362  53.928  1.00  0.00    -0.224 NA
HETATM    7  C8  UNL     1      22.364   1.032  53.111  1.00  0.00     0.141 A 
HETATM    8  C16 UNL     1      23.654   0.580  53.053  1.00  0.00     0.075 A 
HETATM    9  C17 UNL     1      24.469   1.297  52.210  1.00  0.00     0.121 A 
HETATM   10  C18 UNL     1      25.787   0.956  52.056  1.00  0.00     0.136 A 
HETATM   11  O3  UNL     1      26.710   1.619  51.223  1.00  0.00    -0.344 OA
HETATM   12  C19 UNL     1      26.223   2.639  50.338  1.00  0.00     0.202 C 
HETATM   13  C20 UNL     1      25.063   3.314  51.040  1.00  0.00     0.202 C 
HETATM   14  O4  UNL     1      24.090   2.388  51.457  1.00  0.00    -0.345 OA
ENDROOT
BRANCH   7  15
HETATM   15  N3  UNL     1      21.783   2.140  52.405  1.00  0.00    -0.359 N 
HETATM   16  H10 UNL     1      21.860   3.180  52.421  1.00  0.00     0.162 HD
BRANCH  15  17
HETATM   17  C9  UNL     1      20.806   1.744  51.344  1.00  0.00     0.075 A 
HETATM   18  C10 UNL     1      21.192   0.789  50.210  1.00  0.00     0.052 A 
HETATM   19  C11 UNL     1      19.997   1.125  50.060  1.00  0.00     0.069 A 
HETATM   20  C12 UNL     1      19.023   1.414  49.956  1.00  0.00    -0.164 A 
HETATM   21  C13 UNL     1      17.732   1.814  49.845  1.00  0.00     0.107 A 
HETATM   22  C14 UNL     1      18.185   2.706  51.327  1.00  0.00    -0.017 A 
HETATM   23  C15 UNL     1      19.540   2.624  51.917  1.00  0.00     0.003 A 
ENDBRANCH  15  17
ENDBRANCH   7  15
BRANCH   1  24
HETATM   24  O2  UNL     1      27.668  -0.499  52.613  1.00  0.00    -0.346 OA
BRANCH  24  25
HETATM   25  C3  UNL     1      28.396  -0.694  53.806  1.00  0.00     0.201 C 
BRANCH  25  26
HETATM   26  C2  UNL     1      29.416   0.394  54.038  1.00  0.00     0.193 C 
BRANCH  26  27
HETATM   27  O1  UNL     1      28.874   1.515  54.642  1.00  0.00    -0.394 OA
HETATM   28  C1  UNL     1      28.806   2.563  53.712  1.00  0.00     0.201 C 
ENDBRANCH  26  27
ENDBRANCH  25  26
ENDBRANCH  24  25
ENDBRANCH   1  24
TORSDOF 6
ENDMDL
MODEL 4
REMARK VINA RESULT:      -7.9      3.642      8.216
REMARK  6 active torsions:
REMARK  status: ('A' for Active; 'I' for Inactive)
REMARK    1  A    between atoms: O1_2  and  C2_3 
REMARK    2  A    between atoms: C2_3  and  C3_4 
REMARK    3  A    between atoms: C3_4  and  O2_5 
REMARK    4  A    between atoms: O2_5  and  C4_6 
REMARK    5  A    between atoms: C8_12  and  N3_13 
REMARK    6  A    between atoms: N3_13  and  C9_14 
ROOT
HETATM    1  C4  UNL     1      25.797   0.761  52.658  1.00  0.00     0.107 A 
HETATM    2  C5  UNL     1      26.705   1.542  51.947  1.00  0.00     0.072 A 
HETATM    3  C6  UNL     1      26.284   2.498  51.045  1.00  0.00     0.077 A 
HETATM    4  N1  UNL     1      27.085   3.291  50.316  1.00  0.00    -0.241 NA
HETATM    5  C7  UNL     1      26.583   4.195  49.459  1.00  0.00     0.236 A 
HETATM    6  N2  UNL     1      25.240   4.364  49.273  1.00  0.00    -0.224 NA
HETATM    7  C8  UNL     1      24.386   3.594  49.979  1.00  0.00     0.141 A 
HETATM    8  C16 UNL     1      24.945   2.689  50.839  1.00  0.00     0.075 A 
HETATM    9  C17 UNL     1      24.035   1.927  51.532  1.00  0.00     0.121 A 
HETATM   10  C18 UNL     1      24.454   0.979  52.427  1.00  0.00     0.136 A 
HETATM   11  O3  UNL     1      23.612   0.145  53.188  1.00  0.00    -0.344 OA
HETATM   12  C19 UNL     1      22.197   0.391  53.159  1.00  0.00     0.202 C 
HETATM   13  C20 UNL     1      21.868   0.907  51.774  1.00  0.00     0.202 C 
HETATM   14  O4  UNL     1      22.662   2.013  51.422  1.00  0.00    -0.345 OA
ENDROOT
BRANCH   7  15
HETATM   15  N3  UNL     1      22.991   3.833  49.731  1.00  0.00    -0.359 N 
HETATM   16  H10 UNL     1      22.168   4.175  50.271  1.00  0.00     0.162 HD
BRANCH  15  17
HETATM   17  C9  UNL     1      22.560   3.533  48.332  1.00  0.00     0.075 A 
HETATM   18  C10 UNL     1      22.491   2.097  47.800  1.00  0.00     0.052 A 
HETATM   19  C11 UNL     1      22.140   2.877  46.889  1.00  0.00     0.069 A 
HETATM   20  C12 UNL     1      21.856   3.533  46.159  1.00  0.00    -0.164 A 
HETATM   21  C13 UNL     1      21.484   4.427  45.210  1.00  0.00     0.107 A 
HETATM   22  C14 UNL     1      21.835   5.558  46.550  1.00  0.00    -0.017 A 
HETATM   23  C15 UNL     1      22.299   5.092  47.877  1.00  0.00     0.003 A 
ENDBRANCH  15  17
ENDBRANCH   7  15
BRANCH   1  24
HETATM   24  O2  UNL     1      26.273  -0.193  53.560  1.00  0.00    -0.346 OA
BRANCH  24  25
HETATM   25  C3  UNL     1      26.745   0.275  54.804  1.00  0.00     0.201 C 
BRANCH  25  26
HETATM   26  C2  UNL     1      28.231   0.064  54.968  1.00  0.00     0.193 C 
BRANCH  26  27
HETATM   27  O1  UNL     1      28.720  -0.944  54.156  1.00  0.00    -0.394 OA
HETATM   28  C1  UNL     1      29.888  -0.505  53.514  1.00  0.00     0.201 C 
ENDBRANCH  26  27
ENDBRANCH  25  26
ENDBRANCH  24  25
ENDBRANCH   1  24
TORSDOF 6
ENDMDL
MODEL 5
REMARK VINA RESULT:      -7.9      2.004      2.561
REMARK  6 active torsions:
REMARK  status: ('A' for Active; 'I' for Inactive)
REMARK    1  A    between atoms: O1_2  and  C2_3 
REMARK    2  A    between atoms: C2_3  and  C3_4 
REMARK    3  A    between atoms: C3_4  and  O2_5 
REMARK    4  A    between atoms: O2_5  and  C4_6 
REMARK    5  A    between atoms: C8_12  and  N3_13 
REMARK    6  A    between atoms: N3_13  and  C9_14 
ROOT
HETATM    1  C4  UNL     1      20.376   2.740  52.259  1.00  0.00     0.107 A 
HETATM    2  C5  UNL     1      20.319   1.659  53.135  1.00  0.00     0.072 A 
HETATM    3  C6  UNL     1      21.410   0.838  53.341  1.00  0.00     0.077 A 
HETATM    4  N1  UNL     1      21.444  -0.225  54.160  1.00  0.00    -0.241 NA
HETATM    5  C7  UNL     1      22.554  -0.969  54.294  1.00  0.00     0.236 A 
HETATM    6  N2  UNL     1      23.706  -0.699  53.613  1.00  0.00    -0.224 NA
HETATM    7  C8  UNL     1      23.732   0.358  52.774  1.00  0.00     0.141 A 
HETATM    8  C16 UNL     1      22.577   1.086  52.671  1.00  0.00     0.075 A 
HETATM    9  C17 UNL     1      22.651   2.148  51.803  1.00  0.00     0.121 A 
HETATM   10  C18 UNL     1      21.569   2.962  51.601  1.00  0.00     0.136 A 
HETATM   11  O3  UNL     1      21.533   4.075  50.737  1.00  0.00    -0.344 OA
HETATM   12  C19 UNL     1      22.759   4.505  50.125  1.00  0.00     0.202 C 
HETATM   13  C20 UNL     1      23.593   3.264  49.890  1.00  0.00     0.202 C 
HETATM   14  O4  UNL     1      23.759   2.511  51.066  1.00  0.00    -0.345 OA
ENDROOT
BRANCH   7  15
HETATM   15  N3  UNL     1      24.979   0.580  52.098  1.00  0.00    -0.359 N 
HETATM   16  H10 UNL     1      25.308   0.663  51.112  1.00  0.00     0.162 HD
BRANCH  15  17
HETATM   17  C9  UNL     1      26.148   0.752  53.013  1.00  0.00     0.075 A 
HETATM   18  C10 UNL     1      26.262   1.955  53.956  1.00  0.00     0.052 A 
HETATM   19  C11 UNL     1      27.267   1.228  54.113  1.00  0.00     0.069 A 
HETATM   20  C12 UNL     1      28.080   0.619  54.225  1.00  0.00    -0.164 A 
HETATM   21  C13 UNL     1      29.147  -0.208  54.351  1.00  0.00     0.107 A 
HETATM   22  C14 UNL     1      28.238  -1.099  53.096  1.00  0.00    -0.017 A 
HETATM   23  C15 UNL     1      26.941  -0.617  52.565  1.00  0.00     0.003 A 
ENDBRANCH  15  17
ENDBRANCH   7  15
BRANCH   1  24
HETATM   24  O2  UNL     1      19.246   3.542  52.086  1.00  0.00    -0.346 OA
BRANCH  24  25
HETATM   25  C3  UNL     1      18.281   3.102  51.155  1.00  0.00     0.201 C 
BRANCH  25  26
HETATM   26  C2  UNL     1      16.890   3.085  51.739  1.00  0.00     0.193 C 
BRANCH  26  27
HETATM   27  O1  UNL     1      16.619   4.203  52.510  1.00  0.00    -0.394 OA
HETATM   28  C1  UNL     1      15.300   4.138  52.984  1.00  0.00     0.201 C 
ENDBRANCH  26  27
ENDBRANCH  25  26
ENDBRANCH  24  25
ENDBRANCH   1  24
TORSDOF 6
ENDMDL
MODEL 6
REMARK VINA RESULT:      -7.8      2.376      2.983
REMARK  6 active torsions:
REMARK  status: ('A' for Active; 'I' for Inactive)
REMARK    1  A    between atoms: O1_2  and  C2_3 
REMARK    2  A    between atoms: C2_3  and  C3_4 
REMARK    3  A    between atoms: C3_4  and  O2_5 
REMARK    4  A    between atoms: O2_5  and  C4_6 
REMARK    5  A    between atoms: C8_12  and  N3_13 
REMARK    6  A    between atoms: N3_13  and  C9_14 
ROOT
HETATM    1  C4  UNL     1      21.531   1.204  50.302  1.00  0.00     0.107 A 
HETATM    2  C5  UNL     1      21.157   0.267  51.262  1.00  0.00     0.072 A 
HETATM    3  C6  UNL     1      21.984  -0.051  52.321  1.00  0.00     0.077 A 
HETATM    4  N1  UNL     1      21.709  -0.940  53.288  1.00  0.00    -0.241 NA
HETATM    5  C7  UNL     1      22.579  -1.185  54.281  1.00  0.00     0.236 A 
HETATM    6  N2  UNL     1      23.787  -0.555  54.371  1.00  0.00    -0.224 NA
HETATM    7  C8  UNL     1      24.119   0.350  53.427  1.00  0.00     0.141 A 
HETATM    8  C16 UNL     1      23.200   0.566  52.436  1.00  0.00     0.075 A 
HETATM    9  C17 UNL     1      23.585   1.493  51.497  1.00  0.00     0.121 A 
HETATM   10  C18 UNL     1      22.763   1.806  50.448  1.00  0.00     0.136 A 
HETATM   11  O3  UNL     1      23.056   2.737  49.431  1.00  0.00    -0.344 OA
HETATM   12  C19 UNL     1      24.233   3.549  49.564  1.00  0.00     0.202 C 
HETATM   13  C20 UNL     1      25.269   2.708  50.281  1.00  0.00     0.202 C 
HETATM   14  O4  UNL     1      24.778   2.185  51.490  1.00  0.00    -0.345 OA
ENDROOT
BRANCH   7  15
HETATM   15  N3  UNL     1      25.403   0.972  53.592  1.00  0.00    -0.359 N 
HETATM   16  H10 UNL     1      25.767   1.915  53.848  1.00  0.00     0.162 HD
BRANCH  15  17
HETATM   17  C9  UNL     1      26.561   0.057  53.351  1.00  0.00     0.075 A 
HETATM   18  C10 UNL     1      26.436  -1.181  52.456  1.00  0.00     0.052 A 
HETATM   19  C11 UNL     1      27.606  -1.120  52.892  1.00  0.00     0.069 A 
HETATM   20  C12 UNL     1      28.556  -1.050  53.261  1.00  0.00    -0.164 A 
HETATM   21  C13 UNL     1      29.810  -0.932  53.765  1.00  0.00     0.107 A 
HETATM   22  C14 UNL     1      29.061   0.512  54.508  1.00  0.00    -0.017 A 
HETATM   23  C15 UNL     1      27.644   0.875  54.280  1.00  0.00     0.003 A 
ENDBRANCH  15  17
ENDBRANCH   7  15
BRANCH   1  24
HETATM   24  O2  UNL     1      20.659   1.490  49.249  1.00  0.00    -0.346 OA
BRANCH  24  25
HETATM   25  C3  UNL     1      19.506   2.245  49.554  1.00  0.00     0.201 C 
BRANCH  25  26
HETATM   26  C2  UNL     1      19.639   3.687  49.130  1.00  0.00     0.193 C 
BRANCH  26  27
HETATM   27  O1  UNL     1      19.375   4.573  50.161  1.00  0.00    -0.394 OA
HETATM   28  C1  UNL     1      20.541   4.775  50.915  1.00  0.00     0.201 C 
ENDBRANCH  26  27
ENDBRANCH  25  26
ENDBRANCH  24  25
ENDBRANCH   1  24
TORSDOF 6
ENDMDL
MODEL 7
REMARK VINA RESULT:      -7.8      2.752      8.043
REMARK  6 active torsions:
REMARK  status: ('A' for Active; 'I' for Inactive)
REMARK    1  A    between atoms: O1_2  and  C2_3 
REMARK    2  A    between atoms: C2_3  and  C3_4 
REMARK    3  A    between atoms: C3_4  and  O2_5 
REMARK    4  A    between atoms: O2_5  and  C4_6 
REMARK    5  A    between atoms: C8_12  and  N3_13 
REMARK    6  A    between atoms: N3_13  and  C9_14 
ROOT
HETATM    1  C4  UNL     1      25.739  -0.141  53.275  1.00  0.00     0.107 A 
HETATM    2  C5  UNL     1      25.975   0.814  52.289  1.00  0.00     0.072 A 
HETATM    3  C6  UNL     1      24.968   1.637  51.826  1.00  0.00     0.077 A 
HETATM    4  N1  UNL     1      25.103   2.579  50.879  1.00  0.00    -0.241 NA
HETATM    5  C7  UNL     1      24.062   3.333  50.490  1.00  0.00     0.236 A 
HETATM    6  N2  UNL     1      22.813   3.193  51.024  1.00  0.00    -0.224 NA
HETATM    7  C8  UNL     1      22.617   2.261  51.980  1.00  0.00     0.141 A 
HETATM    8  C16 UNL     1      23.707   1.517  52.343  1.00  0.00     0.075 A 
HETATM    9  C17 UNL     1      23.457   0.580  53.316  1.00  0.00     0.121 A 
HETATM   10  C18 UNL     1      24.457  -0.235  53.775  1.00  0.00     0.136 A 
HETATM   11  O3  UNL     1      24.313  -1.227  54.765  1.00  0.00    -0.344 OA
HETATM   12  C19 UNL     1      23.068  -1.307  55.478  1.00  0.00     0.202 C 
HETATM   13  C20 UNL     1      21.979  -0.899  54.509  1.00  0.00     0.202 C 
HETATM   14  O4  UNL     1      22.238   0.353  53.922  1.00  0.00    -0.345 OA
ENDROOT
BRANCH   7  15
HETATM   15  N3  UNL     1      21.278   2.175  52.494  1.00  0.00    -0.359 N 
HETATM   16  H10 UNL     1      20.792   2.377  53.393  1.00  0.00     0.162 HD
BRANCH  15  17
HETATM   17  C9  UNL     1      20.275   1.676  51.504  1.00  0.00     0.075 A 
HETATM   18  C10 UNL     1      20.515   0.402  50.686  1.00  0.00     0.052 A 
HETATM   19  C11 UNL     1      19.404   0.877  50.368  1.00  0.00     0.069 A 
HETATM   20  C12 UNL     1      18.498   1.283  50.123  1.00  0.00    -0.164 A 
HETATM   21  C13 UNL     1      17.302   1.845  49.819  1.00  0.00     0.107 A 
HETATM   22  C14 UNL     1      17.866   3.014  51.049  1.00  0.00    -0.017 A 
HETATM   23  C15 UNL     1      19.170   2.872  51.737  1.00  0.00     0.003 A 
ENDBRANCH  15  17
ENDBRANCH   7  15
BRANCH   1  24
HETATM   24  O2  UNL     1      26.792  -0.950  53.710  1.00  0.00    -0.346 OA
BRANCH  24  25
HETATM   25  C3  UNL     1      28.098  -0.558  53.349  1.00  0.00     0.201 C 
BRANCH  25  26
HETATM   26  C2  UNL     1      28.907  -0.102  54.539  1.00  0.00     0.193 C 
BRANCH  26  27
HETATM   27  O1  UNL     1      28.583   1.181  54.946  1.00  0.00    -0.394 OA
HETATM   28  C1  UNL     1      28.942   2.096  53.944  1.00  0.00     0.201 C 
ENDBRANCH  26  27
ENDBRANCH  25  26
ENDBRANCH  24  25
ENDBRANCH   1  24
TORSDOF 6
ENDMDL
MODEL 8
REMARK VINA RESULT:      -7.5      2.262      7.586
REMARK  6 active torsions:
REMARK  status: ('A' for Active; 'I' for Inactive)
REMARK    1  A    between atoms: O1_2  and  C2_3 
REMARK    2  A    between atoms: C2_3  and  C3_4 
REMARK    3  A    between atoms: C3_4  and  O2_5 
REMARK    4  A    between atoms: O2_5  and  C4_6 
REMARK    5  A    between atoms: C8_12  and  N3_13 
REMARK    6  A    between atoms: N3_13  and  C9_14 
ROOT
HETATM    1  C4  UNL     1      25.381   0.993  52.221  1.00  0.00     0.107 A 
HETATM    2  C5  UNL     1      25.117  -0.008  53.153  1.00  0.00     0.072 A 
HETATM    3  C6  UNL     1      23.843  -0.224  53.640  1.00  0.00     0.077 A 
HETATM    4  N1  UNL     1      23.499  -1.159  54.538  1.00  0.00    -0.241 NA
HETATM    5  C7  UNL     1      22.229  -1.294  54.956  1.00  0.00     0.236 A 
HETATM    6  N2  UNL     1      21.218  -0.497  54.501  1.00  0.00    -0.224 NA
HETATM    7  C8  UNL     1      21.505   0.462  53.596  1.00  0.00     0.141 A 
HETATM    8  C16 UNL     1      22.812   0.561  53.201  1.00  0.00     0.075 A 
HETATM    9  C17 UNL     1      23.054   1.553  52.282  1.00  0.00     0.121 A 
HETATM   10  C18 UNL     1      24.318   1.765  51.800  1.00  0.00     0.136 A 
HETATM   11  O3  UNL     1      24.679   2.751  50.860  1.00  0.00    -0.344 OA
HETATM   12  C19 UNL     1      23.635   3.505  50.224  1.00  0.00     0.202 C 
HETATM   13  C20 UNL     1      22.520   3.654  51.237  1.00  0.00     0.202 C 
HETATM   14  O4  UNL     1      22.111   2.413  51.757  1.00  0.00    -0.345 OA
ENDROOT
BRANCH   7  15
HETATM   15  N3  UNL     1      20.389   1.257  53.164  1.00  0.00    -0.359 N 
HETATM   16  H10 UNL     1      20.124   2.265  53.167  1.00  0.00     0.162 HD
BRANCH  15  17
HETATM   17  C9  UNL     1      19.292   0.470  52.521  1.00  0.00     0.075 A 
HETATM   18  C10 UNL     1      18.719  -0.793  53.173  1.00  0.00     0.052 A 
HETATM   19  C11 UNL     1      18.120  -0.593  52.094  1.00  0.00     0.069 A 
HETATM   20  C12 UNL     1      17.643  -0.410  51.209  1.00  0.00    -0.164 A 
HETATM   21  C13 UNL     1      17.029  -0.143  50.030  1.00  0.00     0.107 A 
HETATM   22  C14 UNL     1      18.179   1.226  50.074  1.00  0.00    -0.017 A 
HETATM   23  C15 UNL     1      19.131   1.424  51.191  1.00  0.00     0.003 A 
ENDBRANCH  15  17
ENDBRANCH   7  15
BRANCH   1  24
HETATM   24  O2  UNL     1      26.687   1.172  51.759  1.00  0.00    -0.346 OA
BRANCH  24  25
HETATM   25  C3  UNL     1      27.727   1.046  52.703  1.00  0.00     0.201 C 
BRANCH  25  26
HETATM   26  C2  UNL     1      28.208   2.385  53.206  1.00  0.00     0.193 C 
BRANCH  26  27
HETATM   27  O1  UNL     1      28.827   2.301  54.441  1.00  0.00    -0.394 OA
HETATM   28  C1  UNL     1      29.079   0.956  54.750  1.00  0.00     0.201 C 
ENDBRANCH  26  27
ENDBRANCH  25  26
ENDBRANCH  24  25
ENDBRANCH   1  24
TORSDOF 6
ENDMDL
MODEL 9
REMARK VINA RESULT:      -7.2      2.723      7.740
REMARK  6 active torsions:
REMARK  status: ('A' for Active; 'I' for Inactive)
REMARK    1  A    between atoms: O1_2  and  C2_3 
REMARK    2  A    between atoms: C2_3  and  C3_4 
REMARK    3  A    between atoms: C3_4  and  O2_5 
REMARK    4  A    between atoms: O2_5  and  C4_6 
REMARK    5  A    between atoms: C8_12  and  N3_13 
REMARK    6  A    between atoms: N3_13  and  C9_14 
ROOT
HETATM    1  C4  UNL     1      25.956   1.025  52.540  1.00  0.00     0.107 A 
HETATM    2  C5  UNL     1      25.308   0.041  53.281  1.00  0.00     0.072 A 
HETATM    3  C6  UNL     1      23.940   0.064  53.472  1.00  0.00     0.077 A 
HETATM    4  N1  UNL     1      23.234  -0.837  54.173  1.00  0.00    -0.241 NA
HETATM    5  C7  UNL     1      21.902  -0.730  54.306  1.00  0.00     0.236 A 
HETATM    6  N2  UNL     1      21.186   0.290  53.747  1.00  0.00    -0.224 NA
HETATM    7  C8  UNL     1      21.844   1.227  53.031  1.00  0.00     0.141 A 
HETATM    8  C16 UNL     1      23.200   1.075  52.923  1.00  0.00     0.075 A 
HETATM    9  C17 UNL     1      23.823   2.055  52.188  1.00  0.00     0.121 A 
HETATM   10  C18 UNL     1      25.179   2.030  52.000  1.00  0.00     0.136 A 
HETATM   11  O3  UNL     1      25.920   2.979  51.268  1.00  0.00    -0.344 OA
HETATM   12  C19 UNL     1      25.206   3.976  50.521  1.00  0.00     0.202 C 
HETATM   13  C20 UNL     1      23.943   4.287  51.297  1.00  0.00     0.202 C 
HETATM   14  O4  UNL     1      23.202   3.127  51.582  1.00  0.00    -0.345 OA
ENDROOT
BRANCH   7  15
HETATM   15  N3  UNL     1      21.023   2.264  52.472  1.00  0.00    -0.359 N 
HETATM   16  H10 UNL     1      20.850   3.277  52.647  1.00  0.00     0.162 HD
BRANCH  15  17
HETATM   17  C9  UNL     1      20.178   1.822  51.321  1.00  0.00     0.075 A 
HETATM   18  C10 UNL     1      20.724   0.894  50.231  1.00  0.00     0.052 A 
HETATM   19  C11 UNL     1      19.534   1.166  49.963  1.00  0.00     0.069 A 
HETATM   20  C12 UNL     1      18.560   1.403  49.764  1.00  0.00    -0.164 A 
HETATM   21  C13 UNL     1      17.267   1.734  49.526  1.00  0.00     0.107 A 
HETATM   22  C14 UNL     1      17.523   2.642  51.045  1.00  0.00    -0.017 A 
HETATM   23  C15 UNL     1      18.816   2.630  51.766  1.00  0.00     0.003 A 
ENDBRANCH  15  17
ENDBRANCH   7  15
BRANCH   1  24
HETATM   24  O2  UNL     1      27.342   0.957  52.375  1.00  0.00    -0.346 OA
BRANCH  24  25
HETATM   25  C3  UNL     1      28.134   1.053  53.539  1.00  0.00     0.201 C 
BRANCH  25  26
HETATM   26  C2  UNL     1      29.172  -0.041  53.615  1.00  0.00     0.193 C 
BRANCH  26  27
HETATM   27  O1  UNL     1      28.633  -1.264  53.975  1.00  0.00    -0.394 OA
HETATM   28  C1  UNL     1      29.305  -2.291  53.294  1.00  0.00     0.201 C 
ENDBRANCH  26  27
ENDBRANCH  25  26
ENDBRANCH  24  25
ENDBRANCH   1  24
TORSDOF 6
ENDMDL
