MODEL 1
REMARK VINA RESULT:      -8.1      0.000      0.000
REMARK  0 active torsions:
REMARK  status: ('A' for Active; 'I' for Inactive)
ROOT
HETATM    1  C1  UNL     1      26.570  -0.858  52.216  1.00  0.00     0.046 C 
HETATM    2  C2  UNL     1      25.970  -0.310  53.473  1.00  0.00    -0.051 C 
HETATM    3  C3  UNL     1      24.776  -0.477  54.078  1.00  0.00    -0.050 C 
HETATM    4  C4  UNL     1      25.001  -0.521  55.550  1.00  0.00     0.006 C 
HETATM    5  C5  UNL     1      26.348  -0.362  55.682  1.00  0.00     0.003 C 
HETATM    6  C6  UNL     1      26.504   0.594  54.524  1.00  0.00     0.135 C 
HETATM    7  N1  UNL     1      27.838   1.013  54.266  1.00  0.00    -0.372 N 
HETATM    8  C7  UNL     1      27.609   1.744  53.035  1.00  0.00     0.225 C 
HETATM    9  N2  UNL     1      26.648   2.494  52.645  1.00  0.00    -0.171 NA
HETATM   10  N3  UNL     1      26.511   3.152  51.450  1.00  0.00    -0.288 N 
HETATM   11  C8  UNL     1      25.380   3.331  50.645  1.00  0.00     0.109 C 
HETATM   12  C9  UNL     1      24.171   3.117  50.187  1.00  0.00     0.019 C 
HETATM   13  C10 UNL     1      23.121   2.168  50.546  1.00  0.00     0.006 C 
HETATM   14  C11 UNL     1      22.772   1.155  51.357  1.00  0.00    -0.052 C 
HETATM   15  C12 UNL     1      21.480   0.437  51.353  1.00  0.00     0.303 C 
HETATM   16  N4  UNL     1      20.703   0.593  52.547  1.00  0.00     0.087 N 
HETATM   17  C13 UNL     1      21.513   0.492  53.719  1.00  0.00     0.270 C 
HETATM   18  C14 UNL     1      22.358  -0.763  53.601  1.00  0.00     0.039 C 
HETATM   19  C15 UNL     1      23.699  -0.512  53.016  1.00  0.00     0.024 C 
HETATM   20  C16 UNL     1      23.827   0.801  52.287  1.00  0.00     0.045 C 
HETATM   21  H7  UNL     1      28.824   0.993  54.598  1.00  0.00     0.161 HD
HETATM   22  H9  UNL     1      27.466   3.505  51.259  1.00  0.00     0.188 HD
HETATM   23  H15 UNL     1      20.212   1.499  52.513  1.00  0.00     0.316 HD
ENDROOT
TORSDOF 0
ENDMDL
MODEL 2
REMARK VINA RESULT:      -8.1      1.645      5.835
REMARK  0 active torsions:
REMARK  status: ('A' for Active; 'I' for Inactive)
ROOT
HETATM    1  C1  UNL     1      21.899   1.051  50.508  1.00  0.00     0.046 C 
HETATM    2  C2  UNL     1      22.315   2.229  51.331  1.00  0.00    -0.051 C 
HETATM    3  C3  UNL     1      23.515   2.742  51.675  1.00  0.00    -0.050 C 
HETATM    4  C4  UNL     1      23.410   4.228  51.653  1.00  0.00     0.006 C 
HETATM    5  C5  UNL     1      22.116   4.462  51.298  1.00  0.00     0.003 C 
HETATM    6  C6  UNL     1      21.537   3.280  52.038  1.00  0.00     0.135 C 
HETATM    7  N1  UNL     1      20.133   3.113  51.899  1.00  0.00    -0.372 N 
HETATM    8  C7  UNL     1      19.990   1.837  52.572  1.00  0.00     0.225 C 
HETATM    9  N2  UNL     1      20.565   1.338  53.601  1.00  0.00    -0.171 NA
HETATM   10  N3  UNL     1      20.369   0.107  54.174  1.00  0.00    -0.288 N 
HETATM   11  C8  UNL     1      21.295  -0.794  54.711  1.00  0.00     0.109 C 
HETATM   12  C9  UNL     1      22.464  -1.338  54.940  1.00  0.00     0.019 C 
HETATM   13  C10 UNL     1      23.817  -1.025  54.490  1.00  0.00     0.006 C 
HETATM   14  C11 UNL     1      24.576  -0.201  53.747  1.00  0.00    -0.052 C 
HETATM   15  C12 UNL     1      26.042  -0.279  53.574  1.00  0.00     0.303 C 
HETATM   16  N4  UNL     1      26.767   0.839  54.099  1.00  0.00     0.087 N 
HETATM   17  C13 UNL     1      26.128   2.077  53.782  1.00  0.00     0.270 C 
HETATM   18  C14 UNL     1      25.825   2.083  52.295  1.00  0.00     0.039 C 
HETATM   19  C15 UNL     1      24.459   1.598  51.975  1.00  0.00     0.024 C 
HETATM   20  C16 UNL     1      23.794   0.825  53.085  1.00  0.00     0.045 C 
HETATM   21  H7  UNL     1      19.251   3.525  51.529  1.00  0.00     0.161 HD
HETATM   22  H9  UNL     1      19.342  -0.020  54.123  1.00  0.00     0.188 HD
HETATM   23  H15 UNL     1      26.870   0.726  55.118  1.00  0.00     0.316 HD
ENDROOT
TORSDOF 0
ENDMDL
MODEL 3
REMARK VINA RESULT:      -7.9      1.874      4.476
REMARK  0 active torsions:
REMARK  status: ('A' for Active; 'I' for Inactive)
ROOT
HETATM    1  C1  UNL     1      24.198   3.780  52.825  1.00  0.00     0.046 C 
HETATM    2  C2  UNL     1      24.756   3.256  51.539  1.00  0.00    -0.051 C 
HETATM    3  C3  UNL     1      24.298   3.232  50.271  1.00  0.00    -0.050 C 
HETATM    4  C4  UNL     1      25.446   3.480  49.355  1.00  0.00     0.006 C 
HETATM    5  C5  UNL     1      26.511   3.620  50.192  1.00  0.00     0.003 C 
HETATM    6  C6  UNL     1      26.047   2.600  51.204  1.00  0.00     0.135 C 
HETATM    7  N1  UNL     1      26.896   2.444  52.333  1.00  0.00    -0.372 N 
HETATM    8  C7  UNL     1      26.064   1.554  53.119  1.00  0.00     0.225 C 
HETATM    9  N2  UNL     1      25.296   0.583  52.794  1.00  0.00    -0.171 NA
HETATM   10  N3  UNL     1      24.535  -0.213  53.612  1.00  0.00    -0.288 N 
HETATM   11  C8  UNL     1      23.239  -0.709  53.433  1.00  0.00     0.109 C 
HETATM   12  C9  UNL     1      22.036  -0.802  52.922  1.00  0.00     0.019 C 
HETATM   13  C10 UNL     1      21.335  -0.061  51.878  1.00  0.00     0.006 C 
HETATM   14  C11 UNL     1      21.415   0.937  50.981  1.00  0.00    -0.052 C 
HETATM   15  C12 UNL     1      20.349   1.366  50.051  1.00  0.00     0.303 C 
HETATM   16  N4  UNL     1      20.654   1.178  48.663  1.00  0.00     0.087 N 
HETATM   17  C13 UNL     1      21.994   1.571  48.362  1.00  0.00     0.270 C 
HETATM   18  C14 UNL     1      22.221   2.955  48.941  1.00  0.00     0.039 C 
HETATM   19  C15 UNL     1      22.815   2.929  50.301  1.00  0.00     0.024 C 
HETATM   20  C16 UNL     1      22.704   1.602  51.007  1.00  0.00     0.045 C 
HETATM   21  H7  UNL     1      27.806   2.705  52.767  1.00  0.00     0.161 HD
HETATM   22  H9  UNL     1      25.151  -0.376  54.428  1.00  0.00     0.188 HD
HETATM   23  H15 UNL     1      20.492   0.192  48.413  1.00  0.00     0.316 HD
ENDROOT
TORSDOF 0
ENDMDL
MODEL 4
REMARK VINA RESULT:      -7.8      1.989      5.241
REMARK  0 active torsions:
REMARK  status: ('A' for Active; 'I' for Inactive)
ROOT
HETATM    1  C1  UNL     1      20.477   2.684  52.718  1.00  0.00     0.046 C 
HETATM    2  C2  UNL     1      21.202   1.376  52.793  1.00  0.00    -0.051 C 
HETATM    3  C3  UNL     1      22.455   1.031  53.154  1.00  0.00    -0.050 C 
HETATM    4  C4  UNL     1      22.386  -0.256  53.901  1.00  0.00     0.006 C 
HETATM    5  C5  UNL     1      21.060  -0.566  53.903  1.00  0.00     0.003 C 
HETATM    6  C6  UNL     1      20.773  -0.021  52.525  1.00  0.00     0.135 C 
HETATM    7  N1  UNL     1      19.415  -0.111  52.114  1.00  0.00    -0.372 N 
HETATM    8  C7  UNL     1      19.505   0.639  50.876  1.00  0.00     0.225 C 
HETATM    9  N2  UNL     1      20.412   0.708  49.975  1.00  0.00    -0.171 NA
HETATM   10  N3  UNL     1      20.415   1.454  48.824  1.00  0.00    -0.288 N 
HETATM   11  C8  UNL     1      21.453   2.173  48.220  1.00  0.00     0.109 C 
HETATM   12  C9  UNL     1      22.608   2.782  48.121  1.00  0.00     0.019 C 
HETATM   13  C10 UNL     1      23.700   3.011  49.063  1.00  0.00     0.006 C 
HETATM   14  C11 UNL     1      24.143   2.813  50.317  1.00  0.00    -0.052 C 
HETATM   15  C12 UNL     1      25.435   3.272  50.870  1.00  0.00     0.303 C 
HETATM   16  N4  UNL     1      26.332   2.222  51.250  1.00  0.00     0.087 N 
HETATM   17  C13 UNL     1      25.651   1.172  51.939  1.00  0.00     0.270 C 
HETATM   18  C14 UNL     1      24.812   1.798  53.038  1.00  0.00     0.039 C 
HETATM   19  C15 UNL     1      23.414   2.073  52.621  1.00  0.00     0.024 C 
HETATM   20  C16 UNL     1      23.196   2.075  51.129  1.00  0.00     0.045 C 
HETATM   21  H7  UNL     1      18.469  -0.479  52.346  1.00  0.00     0.161 HD
HETATM   22  H9  UNL     1      19.441   1.369  48.481  1.00  0.00     0.188 HD
HETATM   23  H15 UNL     1      26.807   1.864  50.408  1.00  0.00     0.316 HD
ENDROOT
TORSDOF 0
ENDMDL
MODEL 5
REMARK VINA RESULT:      -7.7      1.583      4.015
REMARK  0 active torsions:
REMARK  status: ('A' for Active; 'I' for Inactive)
ROOT
HETATM    1  C1  UNL     1      25.140   3.050  53.972  1.00  0.00     0.046 C 
HETATM    2  C2  UNL     1      25.188   2.373  52.638  1.00  0.00    -0.051 C 
HETATM    3  C3  UNL     1      24.303   2.257  51.626  1.00  0.00    -0.050 C 
HETATM    4  C4  UNL     1      25.052   2.347  50.341  1.00  0.00     0.006 C 
HETATM    5  C5  UNL     1      26.349   2.501  50.725  1.00  0.00     0.003 C 
HETATM    6  C6  UNL     1      26.257   1.612  51.941  1.00  0.00     0.135 C 
HETATM    7  N1  UNL     1      27.451   1.513  52.706  1.00  0.00    -0.372 N 
HETATM    8  C7  UNL     1      26.936   0.753  53.829  1.00  0.00     0.225 C 
HETATM    9  N2  UNL     1      26.082  -0.197  53.906  1.00  0.00    -0.171 NA
HETATM   10  N3  UNL     1      25.647  -0.863  55.023  1.00  0.00    -0.288 N 
HETATM   11  C8  UNL     1      24.362  -1.295  55.372  1.00  0.00     0.109 C 
HETATM   12  C9  UNL     1      23.055  -1.363  55.334  1.00  0.00     0.019 C 
HETATM   13  C10 UNL     1      22.042  -0.683  54.532  1.00  0.00     0.006 C 
HETATM   14  C11 UNL     1      21.817   0.219  53.561  1.00  0.00    -0.052 C 
HETATM   15  C12 UNL     1      20.499   0.621  53.028  1.00  0.00     0.303 C 
HETATM   16  N4  UNL     1      20.281   0.285  51.652  1.00  0.00     0.087 N 
HETATM   17  C13 UNL     1      21.431   0.565  50.854  1.00  0.00     0.270 C 
HETATM   18  C14 UNL     1      21.882   1.981  51.158  1.00  0.00     0.039 C 
HETATM   19  C15 UNL     1      22.924   2.049  52.213  1.00  0.00     0.024 C 
HETATM   20  C16 UNL     1      23.044   0.803  53.054  1.00  0.00     0.045 C 
HETATM   21  H7  UNL     1      28.461   1.758  52.757  1.00  0.00     0.161 HD
HETATM   22  H9  UNL     1      26.512  -0.986  55.581  1.00  0.00     0.188 HD
HETATM   23  H15 UNL     1      20.017  -0.709  51.586  1.00  0.00     0.316 HD
ENDROOT
TORSDOF 0
ENDMDL
MODEL 6
REMARK VINA RESULT:      -7.5      1.778      4.713
REMARK  0 active torsions:
REMARK  status: ('A' for Active; 'I' for Inactive)
ROOT
HETATM    1  C1  UNL     1      22.394   2.863  52.966  1.00  0.00     0.046 C 
HETATM    2  C2  UNL     1      22.453   1.437  52.518  1.00  0.00    -0.051 C 
HETATM    3  C3  UNL     1      23.172   0.368  52.919  1.00  0.00    -0.050 C 
HETATM    4  C4  UNL     1      22.294  -0.834  52.860  1.00  0.00     0.006 C 
HETATM    5  C5  UNL     1      21.104  -0.350  52.405  1.00  0.00     0.003 C 
HETATM    6  C6  UNL     1      21.700   0.683  51.481  1.00  0.00     0.135 C 
HETATM    7  N1  UNL     1      20.755   1.489  50.791  1.00  0.00    -0.372 N 
HETATM    8  C7  UNL     1      21.670   2.428  50.172  1.00  0.00     0.225 C 
HETATM    9  N2  UNL     1      22.836   2.286  49.664  1.00  0.00    -0.171 NA
HETATM   10  N3  UNL     1      23.641   3.241  49.096  1.00  0.00    -0.288 N 
HETATM   11  C8  UNL     1      25.024   3.430  49.198  1.00  0.00     0.109 C 
HETATM   12  C9  UNL     1      26.232   3.302  49.687  1.00  0.00     0.019 C 
HETATM   13  C10 UNL     1      26.775   2.572  50.829  1.00  0.00     0.006 C 
HETATM   14  C11 UNL     1      26.492   1.762  51.864  1.00  0.00    -0.052 C 
HETATM   15  C12 UNL     1      27.458   1.229  52.847  1.00  0.00     0.303 C 
HETATM   16  N4  UNL     1      27.616  -0.195  52.821  1.00  0.00     0.087 N 
HETATM   17  C13 UNL     1      26.358  -0.861  52.700  1.00  0.00     0.270 C 
HETATM   18  C14 UNL     1      25.419  -0.286  53.744  1.00  0.00     0.039 C 
HETATM   19  C15 UNL     1      24.581   0.825  53.228  1.00  0.00     0.024 C 
HETATM   20  C16 UNL     1      25.080   1.441  51.945  1.00  0.00     0.045 C 
HETATM   21  H7  UNL     1      19.746   1.644  50.583  1.00  0.00     0.161 HD
HETATM   22  H9  UNL     1      22.977   3.820  48.551  1.00  0.00     0.188 HD
HETATM   23  H15 UNL     1      28.246  -0.450  52.047  1.00  0.00     0.316 HD
ENDROOT
TORSDOF 0
ENDMDL
MODEL 7
REMARK VINA RESULT:      -7.5      2.018      5.727
REMARK  0 active torsions:
REMARK  status: ('A' for Active; 'I' for Inactive)
ROOT
HETATM    1  C1  UNL     1      21.754   0.948  50.160  1.00  0.00     0.046 C 
HETATM    2  C2  UNL     1      21.668   2.193  50.985  1.00  0.00    -0.051 C 
HETATM    3  C3  UNL     1      22.038   3.473  50.772  1.00  0.00    -0.050 C 
HETATM    4  C4  UNL     1      21.003   4.363  51.367  1.00  0.00     0.006 C 
HETATM    5  C5  UNL     1      20.094   3.501  51.902  1.00  0.00     0.003 C 
HETATM    6  C6  UNL     1      21.102   2.463  52.333  1.00  0.00     0.135 C 
HETATM    7  N1  UNL     1      20.549   1.303  52.940  1.00  0.00    -0.372 N 
HETATM    8  C7  UNL     1      21.756   0.507  53.046  1.00  0.00     0.225 C 
HETATM    9  N2  UNL     1      22.970   0.815  53.312  1.00  0.00    -0.171 NA
HETATM   10  N3  UNL     1      24.062  -0.011  53.390  1.00  0.00    -0.288 N 
HETATM   11  C8  UNL     1      25.374   0.186  52.945  1.00  0.00     0.109 C 
HETATM   12  C9  UNL     1      26.356   0.728  52.269  1.00  0.00     0.019 C 
HETATM   13  C10 UNL     1      26.420   1.822  51.305  1.00  0.00     0.006 C 
HETATM   14  C11 UNL     1      25.719   2.756  50.638  1.00  0.00    -0.052 C 
HETATM   15  C12 UNL     1      26.263   3.735  49.673  1.00  0.00     0.303 C 
HETATM   16  N4  UNL     1      26.154   5.104  50.083  1.00  0.00     0.087 N 
HETATM   17  C13 UNL     1      24.877   5.381  50.659  1.00  0.00     0.270 C 
HETATM   18  C14 UNL     1      23.811   4.852  49.717  1.00  0.00     0.039 C 
HETATM   19  C15 UNL     1      23.368   3.475  50.050  1.00  0.00     0.024 C 
HETATM   20  C16 UNL     1      24.305   2.719  50.958  1.00  0.00     0.045 C 
HETATM   21  H7  UNL     1      19.683   0.853  53.303  1.00  0.00     0.161 HD
HETATM   22  H9  UNL     1      23.692  -0.852  53.869  1.00  0.00     0.188 HD
HETATM   23  H15 UNL     1      26.914   5.319  50.745  1.00  0.00     0.316 HD
ENDROOT
TORSDOF 0
ENDMDL
MODEL 8
REMARK VINA RESULT:      -7.0      2.697      5.946
REMARK  0 active torsions:
REMARK  status: ('A' for Active; 'I' for Inactive)
ROOT
HETATM    1  C1  UNL     1      19.353   3.292  51.576  1.00  0.00     0.046 C 
HETATM    2  C2  UNL     1      19.428   1.803  51.452  1.00  0.00    -0.051 C 
HETATM    3  C3  UNL     1      19.950   0.834  52.232  1.00  0.00    -0.050 C 
HETATM    4  C4  UNL     1      19.037  -0.343  52.187  1.00  0.00     0.006 C 
HETATM    5  C5  UNL     1      18.036   0.049  51.350  1.00  0.00     0.003 C 
HETATM    6  C6  UNL     1      18.914   0.858  50.427  1.00  0.00     0.135 C 
HETATM    7  N1  UNL     1      18.230   1.513  49.367  1.00  0.00    -0.372 N 
HETATM    8  C7  UNL     1      19.332   2.290  48.834  1.00  0.00     0.225 C 
HETATM    9  N2  UNL     1      20.577   2.030  48.689  1.00  0.00    -0.171 NA
HETATM   10  N3  UNL     1      21.560   2.834  48.172  1.00  0.00    -0.288 N 
HETATM   11  C8  UNL     1      22.882   3.024  48.591  1.00  0.00     0.109 C 
HETATM   12  C9  UNL     1      23.916   2.986  49.395  1.00  0.00     0.019 C 
HETATM   13  C10 UNL     1      24.102   2.505  50.760  1.00  0.00     0.006 C 
HETATM   14  C11 UNL     1      23.514   1.935  51.826  1.00  0.00    -0.052 C 
HETATM   15  C12 UNL     1      24.162   1.608  53.113  1.00  0.00     0.303 C 
HETATM   16  N4  UNL     1      24.226   0.208  53.414  1.00  0.00     0.087 N 
HETATM   17  C13 UNL     1      22.999  -0.453  53.104  1.00  0.00     0.270 C 
HETATM   18  C14 UNL     1      21.866   0.340  53.729  1.00  0.00     0.039 C 
HETATM   19  C15 UNL     1      21.262   1.328  52.801  1.00  0.00     0.024 C 
HETATM   20  C16 UNL     1      22.109   1.655  51.598  1.00  0.00     0.045 C 
HETATM   21  H7  UNL     1      17.319   1.633  48.877  1.00  0.00     0.161 HD
HETATM   22  H9  UNL     1      21.096   3.294  47.368  1.00  0.00     0.188 HD
HETATM   23  H15 UNL     1      25.013  -0.212  52.898  1.00  0.00     0.316 HD
ENDROOT
TORSDOF 0
ENDMDL
MODEL 9
REMARK VINA RESULT:      -6.9      4.046      8.082
REMARK  0 active torsions:
REMARK  status: ('A' for Active; 'I' for Inactive)
ROOT
HETATM    1  C1  UNL     1      22.515   5.185  47.746  1.00  0.00     0.046 C 
HETATM    2  C2  UNL     1      22.800   6.277  48.728  1.00  0.00    -0.051 C 
HETATM    3  C3  UNL     1      23.700   7.282  48.761  1.00  0.00    -0.050 C 
HETATM    4  C4  UNL     1      23.035   8.484  49.337  1.00  0.00     0.006 C 
HETATM    5  C5  UNL     1      21.769   8.062  49.608  1.00  0.00     0.003 C 
HETATM    6  C6  UNL     1      22.156   6.660  50.012  1.00  0.00     0.135 C 
HETATM    7  N1  UNL     1      21.069   5.813  50.358  1.00  0.00    -0.372 N 
HETATM    8  C7  UNL     1      21.795   4.566  50.507  1.00  0.00     0.225 C 
HETATM    9  N2  UNL     1      22.954   4.296  50.978  1.00  0.00    -0.171 NA
HETATM   10  N3  UNL     1      23.570   3.074  51.079  1.00  0.00    -0.288 N 
HETATM   11  C8  UNL     1      24.904   2.717  50.851  1.00  0.00     0.109 C 
HETATM   12  C9  UNL     1      26.130   2.830  50.404  1.00  0.00     0.019 C 
HETATM   13  C10 UNL     1      26.820   3.859  49.631  1.00  0.00     0.006 C 
HETATM   14  C11 UNL     1      26.707   5.052  49.023  1.00  0.00    -0.052 C 
HETATM   15  C12 UNL     1      27.777   5.769  48.298  1.00  0.00     0.303 C 
HETATM   16  N4  UNL     1      28.171   7.014  48.889  1.00  0.00     0.087 N 
HETATM   17  C13 UNL     1      27.040   7.772  49.321  1.00  0.00     0.270 C 
HETATM   18  C14 UNL     1      26.047   7.832  48.175  1.00  0.00     0.039 C 
HETATM   19  C15 UNL     1      25.020   6.762  48.235  1.00  0.00     0.024 C 
HETATM   20  C16 UNL     1      25.372   5.608  49.138  1.00  0.00     0.045 C 
HETATM   21  H7  UNL     1      20.044   5.756  50.529  1.00  0.00     0.161 HD
HETATM   22  H9  UNL     1      22.803   2.443  51.373  1.00  0.00     0.188 HD
HETATM   23  H15 UNL     1      28.813   6.826  49.673  1.00  0.00     0.316 HD
ENDROOT
TORSDOF 0
ENDMDL
