MODEL 1
REMARK VINA RESULT:      -8.7      0.000      0.000
REMARK  4 active torsions:
REMARK  status: ('A' for Active; 'I' for Inactive)
REMARK    1  A    between atoms: O1_2  and  C2_3 
REMARK    2  A    between atoms: C6_9  and  N3_10 
REMARK    3  A    between atoms: N3_10  and  C7_11 
REMARK    4  A    between atoms: C17_22  and  O2_23 
ROOT
HETATM    1  C2  UNL     1      21.381   0.669  51.818  1.00  0.00     0.103 A 
HETATM    2  C3  UNL     1      21.985   1.324  50.742  1.00  0.00     0.072 A 
HETATM    3  C4  UNL     1      23.191   1.974  50.853  1.00  0.00     0.075 A 
HETATM    4  N1  UNL     1      23.783   2.600  49.793  1.00  0.00    -0.241 NA
HETATM    5  C5  UNL     1      24.975   3.208  49.959  1.00  0.00     0.236 A 
HETATM    6  N2  UNL     1      25.646   3.240  51.134  1.00  0.00    -0.223 NA
HETATM    7  C6  UNL     1      25.099   2.632  52.220  1.00  0.00     0.143 A 
HETATM    8  C15 UNL     1      23.861   1.993  52.080  1.00  0.00     0.042 A 
HETATM    9  C16 UNL     1      23.287   1.350  53.170  1.00  0.00     0.057 A 
HETATM   10  C17 UNL     1      22.062   0.696  53.042  1.00  0.00     0.102 A 
ENDROOT
BRANCH   7  11
HETATM   11  N3  UNL     1      25.769   2.587  53.500  1.00  0.00    -0.324 N 
HETATM   12  H6  UNL     1      25.450   2.998  54.412  1.00  0.00     0.169 HD
BRANCH  11  13
HETATM   13  C7  UNL     1      27.041   1.923  53.644  1.00  0.00     0.141 A 
HETATM   14  N4  UNL     1      28.090   2.564  54.074  1.00  0.00    -0.241 NA
HETATM   15  C8  UNL     1      29.209   1.671  54.118  1.00  0.00     0.131 A 
HETATM   16  C9  UNL     1      28.892   0.458  53.717  1.00  0.00    -0.004 A 
HETATM   17  C10 UNL     1      29.464  -0.861  53.512  1.00  0.00     0.014 A 
HETATM   18  C14 UNL     1      27.460   0.561  53.388  1.00  0.00     0.033 A 
HETATM   19  C11 UNL     1      28.714  -1.837  53.069  1.00  0.00     0.002 A 
HETATM   20  C12 UNL     1      27.293  -1.605  52.781  1.00  0.00     0.013 A 
HETATM   21  C13 UNL     1      26.714  -0.428  52.935  1.00  0.00    -0.010 A 
ENDBRANCH  11  13
ENDBRANCH   7  11
BRANCH  10  22
HETATM   22  O2  UNL     1      21.417   0.030  54.066  1.00  0.00    -0.353 OA
HETATM   23  C18 UNL     1      21.987  -1.127  54.623  1.00  0.00     0.210 C 
ENDBRANCH  10  22
BRANCH   1  24
HETATM   24  O1  UNL     1      20.171   0.012  51.713  1.00  0.00    -0.353 OA
HETATM   25  C1  UNL     1      19.072   0.550  51.033  1.00  0.00     0.210 C 
ENDBRANCH   1  24
TORSDOF 4
ENDMDL
MODEL 2
REMARK VINA RESULT:      -8.6      1.963      3.434
REMARK  4 active torsions:
REMARK  status: ('A' for Active; 'I' for Inactive)
REMARK    1  A    between atoms: O1_2  and  C2_3 
REMARK    2  A    between atoms: C6_9  and  N3_10 
REMARK    3  A    between atoms: N3_10  and  C7_11 
REMARK    4  A    between atoms: C17_22  and  O2_23 
ROOT
HETATM    1  C2  UNL     1      19.860  -0.436  52.734  1.00  0.00     0.103 A 
HETATM    2  C3  UNL     1      20.406  -0.988  53.895  1.00  0.00     0.072 A 
HETATM    3  C4  UNL     1      21.749  -0.931  54.183  1.00  0.00     0.075 A 
HETATM    4  N1  UNL     1      22.273  -1.461  55.327  1.00  0.00    -0.241 NA
HETATM    5  C5  UNL     1      23.597  -1.361  55.562  1.00  0.00     0.236 A 
HETATM    6  N2  UNL     1      24.466  -0.753  54.721  1.00  0.00    -0.223 NA
HETATM    7  C6  UNL     1      23.995  -0.210  53.567  1.00  0.00     0.143 A 
HETATM    8  C15 UNL     1      22.624  -0.299  53.294  1.00  0.00     0.042 A 
HETATM    9  C16 UNL     1      22.113   0.262  52.130  1.00  0.00     0.057 A 
HETATM   10  C17 UNL     1      20.748   0.195  51.852  1.00  0.00     0.102 A 
ENDROOT
BRANCH   7  11
HETATM   11  N3  UNL     1      24.849   0.490  52.636  1.00  0.00    -0.324 N 
HETATM   12  H6  UNL     1      24.615   0.824  51.668  1.00  0.00     0.169 HD
BRANCH  11  13
HETATM   13  C7  UNL     1      26.212   0.812  52.983  1.00  0.00     0.141 A 
HETATM   14  N4  UNL     1      26.565   2.034  53.261  1.00  0.00    -0.241 NA
HETATM   15  C8  UNL     1      27.964   2.068  53.566  1.00  0.00     0.131 A 
HETATM   16  C9  UNL     1      28.519   0.877  53.484  1.00  0.00    -0.004 A 
HETATM   17  C10 UNL     1      29.793   0.199  53.643  1.00  0.00     0.014 A 
HETATM   18  C14 UNL     1      27.403  -0.004  53.099  1.00  0.00     0.033 A 
HETATM   19  C11 UNL     1      29.876  -1.092  53.448  1.00  0.00     0.002 A 
HETATM   20  C12 UNL     1      28.683  -1.860  53.070  1.00  0.00     0.013 A 
HETATM   21  C13 UNL     1      27.498  -1.304  52.898  1.00  0.00    -0.010 A 
ENDBRANCH  11  13
ENDBRANCH   7  11
BRANCH  10  22
HETATM   22  O2  UNL     1      20.150   0.723  50.725  1.00  0.00    -0.353 OA
HETATM   23  C18 UNL     1      20.939   1.157  49.647  1.00  0.00     0.210 C 
ENDBRANCH  10  22
BRANCH   1  24
HETATM   24  O1  UNL     1      18.512  -0.487  52.440  1.00  0.00    -0.353 OA
HETATM   25  C1  UNL     1      17.604  -1.261  53.174  1.00  0.00     0.210 C 
ENDBRANCH   1  24
TORSDOF 4
ENDMDL
MODEL 3
REMARK VINA RESULT:      -7.8      2.257      6.145
REMARK  4 active torsions:
REMARK  status: ('A' for Active; 'I' for Inactive)
REMARK    1  A    between atoms: O1_2  and  C2_3 
REMARK    2  A    between atoms: C6_9  and  N3_10 
REMARK    3  A    between atoms: N3_10  and  C7_11 
REMARK    4  A    between atoms: C17_22  and  O2_23 
ROOT
HETATM    1  C2  UNL     1      27.133  -0.177  53.408  1.00  0.00     0.103 A 
HETATM    2  C3  UNL     1      27.451   0.679  52.350  1.00  0.00     0.072 A 
HETATM    3  C4  UNL     1      26.585   1.641  51.890  1.00  0.00     0.075 A 
HETATM    4  N1  UNL     1      26.908   2.484  50.865  1.00  0.00    -0.241 NA
HETATM    5  C5  UNL     1      26.023   3.419  50.467  1.00  0.00     0.236 A 
HETATM    6  N2  UNL     1      24.803   3.588  51.029  1.00  0.00    -0.223 NA
HETATM    7  C6  UNL     1      24.432   2.773  52.052  1.00  0.00     0.143 A 
HETATM    8  C15 UNL     1      25.330   1.791  52.488  1.00  0.00     0.042 A 
HETATM    9  C16 UNL     1      24.983   0.956  53.543  1.00  0.00     0.057 A 
HETATM   10  C17 UNL     1      25.873  -0.017  53.998  1.00  0.00     0.102 A 
ENDROOT
BRANCH   7  11
HETATM   11  N3  UNL     1      23.165   2.913  52.732  1.00  0.00    -0.324 N 
HETATM   12  H6  UNL     1      22.960   3.437  53.618  1.00  0.00     0.169 HD
BRANCH  11  13
HETATM   13  C7  UNL     1      21.974   2.287  52.210  1.00  0.00     0.141 A 
HETATM   14  N4  UNL     1      21.442   2.682  51.090  1.00  0.00    -0.241 NA
HETATM   15  C8  UNL     1      20.278   1.896  50.811  1.00  0.00     0.131 A 
HETATM   16  C9  UNL     1      20.052   0.997  51.746  1.00  0.00    -0.004 A 
HETATM   17  C10 UNL     1      19.130  -0.066  52.107  1.00  0.00     0.014 A 
HETATM   18  C14 UNL     1      21.149   1.206  52.707  1.00  0.00     0.033 A 
HETATM   19  C11 UNL     1      19.316  -0.746  53.210  1.00  0.00     0.002 A 
HETATM   20  C12 UNL     1      20.455  -0.441  54.083  1.00  0.00     0.013 A 
HETATM   21  C13 UNL     1      21.323   0.519  53.819  1.00  0.00    -0.010 A 
ENDBRANCH  11  13
ENDBRANCH   7  11
BRANCH  10  22
HETATM   22  O2  UNL     1      25.617  -0.889  55.038  1.00  0.00    -0.353 OA
HETATM   23  C18 UNL     1      24.294  -1.228  55.364  1.00  0.00     0.210 C 
ENDBRANCH  10  22
BRANCH   1  24
HETATM   24  O1  UNL     1      28.000  -1.145  53.877  1.00  0.00    -0.353 OA
HETATM   25  C1  UNL     1      29.354  -1.187  53.523  1.00  0.00     0.210 C 
ENDBRANCH   1  24
TORSDOF 4
ENDMDL
MODEL 4
REMARK VINA RESULT:      -7.6      2.637      5.429
REMARK  4 active torsions:
REMARK  status: ('A' for Active; 'I' for Inactive)
REMARK    1  A    between atoms: O1_2  and  C2_3 
REMARK    2  A    between atoms: C6_9  and  N3_10 
REMARK    3  A    between atoms: N3_10  and  C7_11 
REMARK    4  A    between atoms: C17_22  and  O2_23 
ROOT
HETATM    1  C2  UNL     1      22.694   0.310  52.960  1.00  0.00     0.103 A 
HETATM    2  C3  UNL     1      24.008   0.358  53.429  1.00  0.00     0.072 A 
HETATM    3  C4  UNL     1      24.997   1.067  52.791  1.00  0.00     0.075 A 
HETATM    4  N1  UNL     1      26.277   1.122  53.264  1.00  0.00    -0.241 NA
HETATM    5  C5  UNL     1      27.202   1.846  52.603  1.00  0.00     0.236 A 
HETATM    6  N2  UNL     1      26.943   2.544  51.472  1.00  0.00    -0.223 NA
HETATM    7  C6  UNL     1      25.684   2.521  50.959  1.00  0.00     0.143 A 
HETATM    8  C15 UNL     1      24.701   1.777  51.623  1.00  0.00     0.042 A 
HETATM    9  C16 UNL     1      23.403   1.749  51.129  1.00  0.00     0.057 A 
HETATM   10  C17 UNL     1      22.410   1.025  51.789  1.00  0.00     0.102 A 
ENDROOT
BRANCH   7  11
HETATM   11  N3  UNL     1      25.316   3.270  49.779  1.00  0.00    -0.324 N 
HETATM   12  H6  UNL     1      24.844   2.917  48.910  1.00  0.00     0.169 HD
BRANCH  11  13
HETATM   13  C7  UNL     1      25.594   4.683  49.685  1.00  0.00     0.141 A 
HETATM   14  N4  UNL     1      24.757   5.566  50.149  1.00  0.00    -0.241 NA
HETATM   15  C8  UNL     1      25.278   6.881  49.923  1.00  0.00     0.131 A 
HETATM   16  C9  UNL     1      26.445   6.854  49.313  1.00  0.00    -0.004 A 
HETATM   17  C10 UNL     1      27.485   7.730  48.802  1.00  0.00     0.014 A 
HETATM   18  C14 UNL     1      26.710   5.417  49.127  1.00  0.00     0.033 A 
HETATM   19  C11 UNL     1      28.548   7.220  48.234  1.00  0.00     0.002 A 
HETATM   20  C12 UNL     1      28.695   5.764  48.114  1.00  0.00     0.013 A 
HETATM   21  C13 UNL     1      27.782   4.913  48.547  1.00  0.00    -0.010 A 
ENDBRANCH  11  13
ENDBRANCH   7  11
BRANCH  10  22
HETATM   22  O2  UNL     1      21.095   0.940  51.375  1.00  0.00    -0.353 OA
HETATM   23  C18 UNL     1      20.253   2.060  51.472  1.00  0.00     0.210 C 
ENDBRANCH  10  22
BRANCH   1  24
HETATM   24  O1  UNL     1      21.693  -0.398  53.598  1.00  0.00    -0.353 OA
HETATM   25  C1  UNL     1      21.936  -1.227  54.700  1.00  0.00     0.210 C 
ENDBRANCH   1  24
TORSDOF 4
ENDMDL
MODEL 5
REMARK VINA RESULT:      -7.5      2.204      3.751
REMARK  4 active torsions:
REMARK  status: ('A' for Active; 'I' for Inactive)
REMARK    1  A    between atoms: O1_2  and  C2_3 
REMARK    2  A    between atoms: C6_9  and  N3_10 
REMARK    3  A    between atoms: N3_10  and  C7_11 
REMARK    4  A    between atoms: C17_22  and  O2_23 
ROOT
HETATM    1  C2  UNL     1      20.415   0.669  51.229  1.00  0.00     0.103 A 
HETATM    2  C3  UNL     1      20.256  -0.157  52.344  1.00  0.00     0.072 A 
HETATM    3  C4  UNL     1      21.292  -0.463  53.193  1.00  0.00     0.075 A 
HETATM    4  N1  UNL     1      21.126  -1.260  54.289  1.00  0.00    -0.241 NA
HETATM    5  C5  UNL     1      22.177  -1.513  55.095  1.00  0.00     0.236 A 
HETATM    6  N2  UNL     1      23.419  -1.016  54.889  1.00  0.00    -0.223 NA
HETATM    7  C6  UNL     1      23.638  -0.218  53.811  1.00  0.00     0.143 A 
HETATM    8  C15 UNL     1      22.566   0.062  52.954  1.00  0.00     0.042 A 
HETATM    9  C16 UNL     1      22.758   0.888  51.854  1.00  0.00     0.057 A 
HETATM   10  C17 UNL     1      21.696   1.189  51.000  1.00  0.00     0.102 A 
ENDROOT
BRANCH   7  11
HETATM   11  N3  UNL     1      24.924   0.384  53.542  1.00  0.00    -0.324 N 
HETATM   12  H6  UNL     1      25.162   1.406  53.491  1.00  0.00     0.169 HD
BRANCH  11  13
HETATM   13  C7  UNL     1      26.085  -0.435  53.294  1.00  0.00     0.141 A 
HETATM   14  N4  UNL     1      25.971  -1.624  52.777  1.00  0.00    -0.241 NA
HETATM   15  C8  UNL     1      27.271  -2.211  52.642  1.00  0.00     0.131 A 
HETATM   16  C9  UNL     1      28.223  -1.411  53.071  1.00  0.00    -0.004 A 
HETATM   17  C10 UNL     1      29.665  -1.338  53.232  1.00  0.00     0.014 A 
HETATM   18  C14 UNL     1      27.497  -0.210  53.519  1.00  0.00     0.033 A 
HETATM   19  C11 UNL     1      30.213  -0.262  53.738  1.00  0.00     0.002 A 
HETATM   20  C12 UNL     1      29.375   0.873  54.143  1.00  0.00     0.013 A 
HETATM   21  C13 UNL     1      28.058   0.867  54.034  1.00  0.00    -0.010 A 
ENDBRANCH  11  13
ENDBRANCH   7  11
BRANCH  10  22
HETATM   22  O2  UNL     1      21.790   2.000  49.886  1.00  0.00    -0.353 OA
HETATM   23  C18 UNL     1      21.896   3.392  50.035  1.00  0.00     0.210 C 
ENDBRANCH  10  22
BRANCH   1  24
HETATM   24  O1  UNL     1      19.378   0.983  50.372  1.00  0.00    -0.353 OA
HETATM   25  C1  UNL     1      18.042   1.042  50.789  1.00  0.00     0.210 C 
ENDBRANCH   1  24
TORSDOF 4
ENDMDL
MODEL 6
REMARK VINA RESULT:      -7.5      2.078      3.167
REMARK  4 active torsions:
REMARK  status: ('A' for Active; 'I' for Inactive)
REMARK    1  A    between atoms: O1_2  and  C2_3 
REMARK    2  A    between atoms: C6_9  and  N3_10 
REMARK    3  A    between atoms: N3_10  and  C7_11 
REMARK    4  A    between atoms: C17_22  and  O2_23 
ROOT
HETATM    1  C2  UNL     1      21.828   1.993  50.024  1.00  0.00     0.103 A 
HETATM    2  C3  UNL     1      21.533   0.957  50.913  1.00  0.00     0.072 A 
HETATM    3  C4  UNL     1      22.374   0.600  51.940  1.00  0.00     0.075 A 
HETATM    4  N1  UNL     1      22.072  -0.405  52.815  1.00  0.00    -0.241 NA
HETATM    5  C5  UNL     1      22.930  -0.700  53.812  1.00  0.00     0.236 A 
HETATM    6  N2  UNL     1      24.100  -0.051  54.015  1.00  0.00    -0.223 NA
HETATM    7  C6  UNL     1      24.448   0.957  53.171  1.00  0.00     0.143 A 
HETATM    8  C15 UNL     1      23.579   1.286  52.124  1.00  0.00     0.042 A 
HETATM    9  C16 UNL     1      23.902   2.323  51.257  1.00  0.00     0.057 A 
HETATM   10  C17 UNL     1      23.038   2.673  50.219  1.00  0.00     0.102 A 
ENDROOT
BRANCH   7  11
HETATM   11  N3  UNL     1      25.660   1.725  53.341  1.00  0.00    -0.324 N 
HETATM   12  H6  UNL     1      25.776   2.768  53.299  1.00  0.00     0.169 HD
BRANCH  11  13
HETATM   13  C7  UNL     1      26.919   1.070  53.598  1.00  0.00     0.141 A 
HETATM   14  N4  UNL     1      27.878   1.680  54.234  1.00  0.00    -0.241 NA
HETATM   15  C8  UNL     1      29.006   0.805  54.348  1.00  0.00     0.131 A 
HETATM   16  C9  UNL     1      28.785  -0.365  53.788  1.00  0.00    -0.004 A 
HETATM   17  C10 UNL     1      29.419  -1.647  53.537  1.00  0.00     0.014 A 
HETATM   18  C14 UNL     1      27.410  -0.252  53.271  1.00  0.00     0.033 A 
HETATM   19  C11 UNL     1      28.767  -2.586  52.899  1.00  0.00     0.002 A 
HETATM   20  C12 UNL     1      27.394  -2.348  52.436  1.00  0.00     0.013 A 
HETATM   21  C13 UNL     1      26.764  -1.202  52.622  1.00  0.00    -0.010 A 
ENDBRANCH  11  13
ENDBRANCH   7  11
BRANCH  10  22
HETATM   22  O2  UNL     1      23.273   3.687  49.311  1.00  0.00    -0.353 OA
HETATM   23  C18 UNL     1      22.957   5.015  49.641  1.00  0.00     0.210 C 
ENDBRANCH  10  22
BRANCH   1  24
HETATM   24  O1  UNL     1      20.987   2.359  48.992  1.00  0.00    -0.353 OA
HETATM   25  C1  UNL     1      19.644   2.703  49.193  1.00  0.00     0.210 C 
ENDBRANCH   1  24
TORSDOF 4
ENDMDL
MODEL 7
REMARK VINA RESULT:      -7.4      4.512      6.457
REMARK  4 active torsions:
REMARK  status: ('A' for Active; 'I' for Inactive)
REMARK    1  A    between atoms: O1_2  and  C2_3 
REMARK    2  A    between atoms: C6_9  and  N3_10 
REMARK    3  A    between atoms: N3_10  and  C7_11 
REMARK    4  A    between atoms: C17_22  and  O2_23 
ROOT
HETATM    1  C2  UNL     1      27.238   6.952  48.083  1.00  0.00     0.103 A 
HETATM    2  C3  UNL     1      25.954   6.990  48.631  1.00  0.00     0.072 A 
HETATM    3  C4  UNL     1      25.410   5.931  49.317  1.00  0.00     0.075 A 
HETATM    4  N1  UNL     1      24.159   5.980  49.862  1.00  0.00    -0.241 NA
HETATM    5  C5  UNL     1      23.684   4.914  50.538  1.00  0.00     0.236 A 
HETATM    6  N2  UNL     1      24.381   3.768  50.721  1.00  0.00    -0.223 NA
HETATM    7  C6  UNL     1      25.631   3.668  50.197  1.00  0.00     0.143 A 
HETATM    8  C15 UNL     1      26.152   4.757  49.488  1.00  0.00     0.042 A 
HETATM    9  C16 UNL     1      27.433   4.688  48.956  1.00  0.00     0.057 A 
HETATM   10  C17 UNL     1      27.972   5.772  48.261  1.00  0.00     0.102 A 
ENDROOT
BRANCH   7  11
HETATM   11  N3  UNL     1      26.455   2.495  50.380  1.00  0.00    -0.324 N 
HETATM   12  H6  UNL     1      26.867   1.872  49.642  1.00  0.00     0.169 HD
BRANCH  11  13
HETATM   13  C7  UNL     1      26.806   2.039  51.703  1.00  0.00     0.141 A 
HETATM   14  N4  UNL     1      27.897   2.444  52.288  1.00  0.00    -0.241 NA
HETATM   15  C8  UNL     1      27.997   1.839  53.582  1.00  0.00     0.131 A 
HETATM   16  C9  UNL     1      26.981   1.042  53.837  1.00  0.00    -0.004 A 
HETATM   17  C10 UNL     1      26.450   0.164  54.865  1.00  0.00     0.014 A 
HETATM   18  C14 UNL     1      26.151   1.134  52.624  1.00  0.00     0.033 A 
HETATM   19  C11 UNL     1      25.320  -0.465  54.667  1.00  0.00     0.002 A 
HETATM   20  C12 UNL     1      24.584  -0.285  53.410  1.00  0.00     0.013 A 
HETATM   21  C13 UNL     1      25.016   0.489  52.432  1.00  0.00    -0.010 A 
ENDBRANCH  11  13
ENDBRANCH   7  11
BRANCH  10  22
HETATM   22  O2  UNL     1      29.233   5.795  47.700  1.00  0.00    -0.353 OA
HETATM   23  C18 UNL     1      30.358   6.037  48.506  1.00  0.00     0.210 C 
ENDBRANCH  10  22
BRANCH   1  24
HETATM   24  O1  UNL     1      27.793   8.014  47.395  1.00  0.00    -0.353 OA
HETATM   25  C1  UNL     1      27.791   9.323  47.891  1.00  0.00     0.210 C 
ENDBRANCH   1  24
TORSDOF 4
ENDMDL
MODEL 8
REMARK VINA RESULT:      -7.2      3.131      6.571
REMARK  4 active torsions:
REMARK  status: ('A' for Active; 'I' for Inactive)
REMARK    1  A    between atoms: O1_2  and  C2_3 
REMARK    2  A    between atoms: C6_9  and  N3_10 
REMARK    3  A    between atoms: N3_10  and  C7_11 
REMARK    4  A    between atoms: C17_22  and  O2_23 
ROOT
HETATM    1  C2  UNL     1      26.045  -0.442  53.812  1.00  0.00     0.103 A 
HETATM    2  C3  UNL     1      25.000  -0.920  54.606  1.00  0.00     0.072 A 
HETATM    3  C4  UNL     1      23.678  -0.711  54.296  1.00  0.00     0.075 A 
HETATM    4  N1  UNL     1      22.662  -1.194  55.069  1.00  0.00    -0.241 NA
HETATM    5  C5  UNL     1      21.383  -0.969  54.706  1.00  0.00     0.236 A 
HETATM    6  N2  UNL     1      21.026  -0.281  53.596  1.00  0.00    -0.223 NA
HETATM    7  C6  UNL     1      22.001   0.222  52.792  1.00  0.00     0.143 A 
HETATM    8  C15 UNL     1      23.339   0.007  53.144  1.00  0.00     0.042 A 
HETATM    9  C16 UNL     1      24.355   0.495  52.332  1.00  0.00     0.057 A 
HETATM   10  C17 UNL     1      25.692   0.274  52.661  1.00  0.00     0.102 A 
ENDROOT
BRANCH   7  11
HETATM   11  N3  UNL     1      21.705   0.934  51.570  1.00  0.00    -0.324 N 
HETATM   12  H6  UNL     1      21.408   0.535  50.645  1.00  0.00     0.169 HD
BRANCH  11  13
HETATM   13  C7  UNL     1      21.808   2.371  51.509  1.00  0.00     0.141 A 
HETATM   14  N4  UNL     1      21.102   3.130  52.297  1.00  0.00    -0.241 NA
HETATM   15  C8  UNL     1      21.396   4.505  52.024  1.00  0.00     0.131 A 
HETATM   16  C9  UNL     1      22.285   4.640  51.062  1.00  0.00    -0.004 A 
HETATM   17  C10 UNL     1      23.008   5.652  50.312  1.00  0.00     0.014 A 
HETATM   18  C14 UNL     1      22.599   3.254  50.678  1.00  0.00     0.033 A 
HETATM   19  C11 UNL     1      23.858   5.294  49.383  1.00  0.00     0.002 A 
HETATM   20  C12 UNL     1      24.085   3.872  49.097  1.00  0.00     0.013 A 
HETATM   21  C13 UNL     1      23.452   2.904  49.735  1.00  0.00    -0.010 A 
ENDBRANCH  11  13
ENDBRANCH   7  11
BRANCH  10  22
HETATM   22  O2  UNL     1      26.767   0.719  51.916  1.00  0.00    -0.353 OA
HETATM   23  C18 UNL     1      26.786   2.033  51.422  1.00  0.00     0.210 C 
ENDBRANCH  10  22
BRANCH   1  24
HETATM   24  O1  UNL     1      27.376  -0.652  54.116  1.00  0.00    -0.353 OA
HETATM   25  C1  UNL     1      28.130   0.247  54.880  1.00  0.00     0.210 C 
ENDBRANCH   1  24
TORSDOF 4
ENDMDL
MODEL 9
REMARK VINA RESULT:      -7.1      3.015      7.520
REMARK  4 active torsions:
REMARK  status: ('A' for Active; 'I' for Inactive)
REMARK    1  A    between atoms: O1_2  and  C2_3 
REMARK    2  A    between atoms: C6_9  and  N3_10 
REMARK    3  A    between atoms: N3_10  and  C7_11 
REMARK    4  A    between atoms: C17_22  and  O2_23 
ROOT
HETATM    1  C2  UNL     1      26.872   0.469  54.036  1.00  0.00     0.103 A 
HETATM    2  C3  UNL     1      26.043  -0.263  54.890  1.00  0.00     0.072 A 
HETATM    3  C4  UNL     1      24.714  -0.485  54.622  1.00  0.00     0.075 A 
HETATM    4  N1  UNL     1      23.913  -1.213  55.454  1.00  0.00    -0.241 NA
HETATM    5  C5  UNL     1      22.619  -1.411  55.131  1.00  0.00     0.236 A 
HETATM    6  N2  UNL     1      22.043  -0.925  54.006  1.00  0.00    -0.223 NA
HETATM    7  C6  UNL     1      22.797  -0.192  53.145  1.00  0.00     0.143 A 
HETATM    8  C15 UNL     1      24.144   0.031  53.454  1.00  0.00     0.042 A 
HETATM    9  C16 UNL     1      24.941   0.763  52.583  1.00  0.00     0.057 A 
HETATM   10  C17 UNL     1      26.289   0.980  52.869  1.00  0.00     0.102 A 
ENDROOT
BRANCH   7  11
HETATM   11  N3  UNL     1      22.268   0.328  51.904  1.00  0.00    -0.324 N 
HETATM   12  H6  UNL     1      22.543   0.068  50.925  1.00  0.00     0.169 HD
BRANCH  11  13
HETATM   13  C7  UNL     1      21.238   1.337  51.906  1.00  0.00     0.141 A 
HETATM   14  N4  UNL     1      21.516   2.583  52.162  1.00  0.00    -0.241 NA
HETATM   15  C8  UNL     1      20.315   3.362  52.099  1.00  0.00     0.131 A 
HETATM   16  C9  UNL     1      19.262   2.628  51.809  1.00  0.00    -0.004 A 
HETATM   17  C10 UNL     1      17.829   2.724  51.594  1.00  0.00     0.014 A 
HETATM   18  C14 UNL     1      19.811   1.268  51.667  1.00  0.00     0.033 A 
HETATM   19  C11 UNL     1      17.139   1.651  51.301  1.00  0.00     0.002 A 
HETATM   20  C12 UNL     1      17.808   0.350  51.184  1.00  0.00     0.013 A 
HETATM   21  C13 UNL     1      19.105   0.192  51.377  1.00  0.00    -0.010 A 
ENDBRANCH  11  13
ENDBRANCH   7  11
BRANCH  10  22
HETATM   22  O2  UNL     1      27.158   1.692  52.065  1.00  0.00    -0.353 OA
HETATM   23  C18 UNL     1      26.656   2.557  51.079  1.00  0.00     0.210 C 
ENDBRANCH  10  22
BRANCH   1  24
HETATM   24  O1  UNL     1      28.210   0.693  54.298  1.00  0.00    -0.353 OA
HETATM   25  C1  UNL     1      29.188  -0.297  54.147  1.00  0.00     0.210 C 
ENDBRANCH   1  24
TORSDOF 4
ENDMDL
