MODEL 1
REMARK VINA RESULT:      -8.5      0.000      0.000
REMARK  6 active torsions:
REMARK  status: ('A' for Active; 'I' for Inactive)
REMARK    1  A    between atoms: C5_5  and  N1_6 
REMARK    2  A    between atoms: N1_6  and  C6_7 
REMARK    3  A    between atoms: C12_16  and  N5_17 
REMARK    4  A    between atoms: N5_17  and  C13_18 
REMARK    5  A    between atoms: C13_18  and  C14_19 
REMARK    6  A    between atoms: C14_19  and  C15_20 
ROOT
HETATM    1  C6  UNL     1      22.166   0.103  52.663  1.00  0.00     0.069 A 
HETATM    2  C7  UNL     1      20.801  -0.125  52.686  1.00  0.00     0.089 A 
HETATM    3  C8  UNL     1      19.908   0.335  51.690  1.00  0.00     0.103 C 
HETATM    4  N2  UNL     1      19.196   0.702  50.878  1.00  0.00    -0.191 NA
HETATM    5  C9  UNL     1      20.275  -0.846  53.745  1.00  0.00     0.144 A 
HETATM    6  N3  UNL     1      21.072  -1.320  54.743  1.00  0.00    -0.239 NA
HETATM    7  C10 UNL     1      22.376  -1.068  54.663  1.00  0.00     0.161 A 
HETATM    8  N4  UNL     1      23.142  -1.551  55.671  1.00  0.00    -0.238 NA
HETATM    9  C11 UNL     1      24.468  -1.329  55.653  1.00  0.00     0.148 A 
HETATM   10  C12 UNL     1      25.140  -0.640  54.684  1.00  0.00     0.046 A 
HETATM   11  C16 UNL     1      24.378  -0.128  53.629  1.00  0.00     0.048 A 
HETATM   12  C17 UNL     1      23.011  -0.355  53.644  1.00  0.00     0.042 A 
ENDROOT
BRANCH   1  13
HETATM   13  N1  UNL     1      22.742   0.829  51.604  1.00  0.00    -0.354 N 
HETATM   14  H6  UNL     1      22.980   0.243  50.781  1.00  0.00     0.166 HD
BRANCH  13  15
HETATM   15  C5  UNL     1      23.011   2.230  51.566  1.00  0.00     0.034 A 
HETATM   16  C4  UNL     1      22.274   3.195  52.220  1.00  0.00     0.030 A 
HETATM   17  C3  UNL     1      22.638   4.534  52.095  1.00  0.00     0.011 A 
HETATM   18  C2  UNL     1      23.715   4.954  51.340  1.00  0.00    -0.040 A 
HETATM   19  C1  UNL     1      24.067   6.392  51.236  1.00  0.00     0.050 C 
HETATM   20  C19 UNL     1      24.438   3.949  50.692  1.00  0.00     0.042 A 
HETATM   21  C18 UNL     1      24.091   2.619  50.806  1.00  0.00     0.053 A 
HETATM   22 CL1  UNL     1      25.820   4.446  49.719  1.00  0.00    -0.084 Cl
ENDBRANCH  13  15
ENDBRANCH   1  13
BRANCH  10  23
HETATM   23  N5  UNL     1      26.548  -0.439  54.727  1.00  0.00    -0.388 N 
HETATM   24  H9  UNL     1      27.013  -0.279  55.624  1.00  0.00     0.159 HD
BRANCH  23  25
HETATM   25  C13 UNL     1      27.214  -0.483  53.434  1.00  0.00     0.126 C 
BRANCH  25  26
HETATM   26  C14 UNL     1      28.731  -0.495  53.595  1.00  0.00     0.089 C 
BRANCH  26  27
HETATM   27  C15 UNL     1      29.152   0.911  53.865  1.00  0.00     0.232 C 
HETATM   28  O1  UNL     1      28.976   1.261  55.041  1.00  0.00    -0.307 OA
ENDBRANCH  26  27
ENDBRANCH  25  26
ENDBRANCH  23  25
ENDBRANCH  10  23
TORSDOF 6
ENDMDL
MODEL 2
REMARK VINA RESULT:      -8.4      2.966      5.993
REMARK  6 active torsions:
REMARK  status: ('A' for Active; 'I' for Inactive)
REMARK    1  A    between atoms: C5_5  and  N1_6 
REMARK    2  A    between atoms: N1_6  and  C6_7 
REMARK    3  A    between atoms: C12_16  and  N5_17 
REMARK    4  A    between atoms: N5_17  and  C13_18 
REMARK    5  A    between atoms: C13_18  and  C14_19 
REMARK    6  A    between atoms: C14_19  and  C15_20 
ROOT
HETATM    1  C6  UNL     1      23.571   1.057  52.322  1.00  0.00     0.069 A 
HETATM    2  C7  UNL     1      22.473   0.214  52.304  1.00  0.00     0.089 A 
HETATM    3  C8  UNL     1      22.197  -0.743  53.308  1.00  0.00     0.103 C 
HETATM    4  N2  UNL     1      21.976  -1.506  54.127  1.00  0.00    -0.191 NA
HETATM    5  C9  UNL     1      21.591   0.312  51.241  1.00  0.00     0.144 A 
HETATM    6  N3  UNL     1      21.791   1.209  50.236  1.00  0.00    -0.239 NA
HETATM    7  C10 UNL     1      22.866   1.991  50.311  1.00  0.00     0.161 A 
HETATM    8  N4  UNL     1      23.038   2.871  49.296  1.00  0.00    -0.238 NA
HETATM    9  C11 UNL     1      24.105   3.689  49.310  1.00  0.00     0.148 A 
HETATM   10  C12 UNL     1      25.064   3.719  50.282  1.00  0.00     0.046 A 
HETATM   11  C16 UNL     1      24.915   2.822  51.345  1.00  0.00     0.048 A 
HETATM   12  C17 UNL     1      23.816   1.977  51.333  1.00  0.00     0.042 A 
ENDROOT
BRANCH   1  13
HETATM   13  N1  UNL     1      24.491   0.992  53.386  1.00  0.00    -0.354 N 
HETATM   14  H6  UNL     1      24.148   1.436  54.258  1.00  0.00     0.166 HD
BRANCH  13  15
HETATM   15  C5  UNL     1      25.788   0.398  53.367  1.00  0.00     0.034 A 
HETATM   16  C4  UNL     1      26.079  -0.852  52.859  1.00  0.00     0.030 A 
HETATM   17  C3  UNL     1      27.389  -1.321  52.909  1.00  0.00     0.011 A 
HETATM   18  C2  UNL     1      28.431  -0.591  53.447  1.00  0.00    -0.040 A 
HETATM   19  C1  UNL     1      29.813  -1.131  53.478  1.00  0.00     0.050 C 
HETATM   20  C19 UNL     1      28.099   0.669  53.952  1.00  0.00     0.042 A 
HETATM   21  C18 UNL     1      26.807   1.149  53.910  1.00  0.00     0.053 A 
HETATM   22 CL1  UNL     1      29.402   1.630  54.647  1.00  0.00    -0.084 Cl
ENDBRANCH  13  15
ENDBRANCH   1  13
BRANCH  10  23
HETATM   23  N5  UNL     1      26.173   4.611  50.234  1.00  0.00    -0.388 N 
HETATM   24  H9  UNL     1      26.405   5.180  51.052  1.00  0.00     0.159 HD
BRANCH  23  25
HETATM   25  C13 UNL     1      26.896   4.623  48.973  1.00  0.00     0.126 C 
BRANCH  25  26
HETATM   26  C14 UNL     1      27.204   6.049  48.527  1.00  0.00     0.089 C 
BRANCH  26  27
HETATM   27  C15 UNL     1      28.646   6.085  48.147  1.00  0.00     0.232 C 
HETATM   28  O1  UNL     1      29.264   5.058  48.460  1.00  0.00    -0.307 OA
ENDBRANCH  26  27
ENDBRANCH  25  26
ENDBRANCH  23  25
ENDBRANCH  10  23
TORSDOF 6
ENDMDL
MODEL 3
REMARK VINA RESULT:      -8.2      2.986      5.977
REMARK  6 active torsions:
REMARK  status: ('A' for Active; 'I' for Inactive)
REMARK    1  A    between atoms: C5_5  and  N1_6 
REMARK    2  A    between atoms: N1_6  and  C6_7 
REMARK    3  A    between atoms: C12_16  and  N5_17 
REMARK    4  A    between atoms: N5_17  and  C13_18 
REMARK    5  A    between atoms: C13_18  and  C14_19 
REMARK    6  A    between atoms: C14_19  and  C15_20 
ROOT
HETATM    1  C6  UNL     1      23.380   1.197  52.325  1.00  0.00     0.069 A 
HETATM    2  C7  UNL     1      22.355   0.268  52.275  1.00  0.00     0.089 A 
HETATM    3  C8  UNL     1      22.093  -0.673  53.298  1.00  0.00     0.103 C 
HETATM    4  N2  UNL     1      21.883  -1.423  54.131  1.00  0.00    -0.191 NA
HETATM    5  C9  UNL     1      21.535   0.257  51.159  1.00  0.00     0.144 A 
HETATM    6  N3  UNL     1      21.726   1.133  50.132  1.00  0.00    -0.239 NA
HETATM    7  C10 UNL     1      22.729   2.001  50.241  1.00  0.00     0.161 A 
HETATM    8  N4  UNL     1      22.895   2.857  49.204  1.00  0.00    -0.238 NA
HETATM    9  C11 UNL     1      23.891   3.759  49.248  1.00  0.00     0.148 A 
HETATM   10  C12 UNL     1      24.783   3.899  50.273  1.00  0.00     0.046 A 
HETATM   11  C16 UNL     1      24.639   3.031  51.360  1.00  0.00     0.048 A 
HETATM   12  C17 UNL     1      23.613   2.100  51.317  1.00  0.00     0.042 A 
ENDROOT
BRANCH   1  13
HETATM   13  N1  UNL     1      24.235   1.244  53.442  1.00  0.00    -0.354 N 
HETATM   14  H6  UNL     1      23.797   1.668  54.282  1.00  0.00     0.166 HD
BRANCH  13  15
HETATM   15  C5  UNL     1      25.582   0.780  53.515  1.00  0.00     0.034 A 
HETATM   16  C4  UNL     1      26.643   1.506  54.016  1.00  0.00     0.030 A 
HETATM   17  C3  UNL     1      27.916   0.940  54.024  1.00  0.00     0.011 A 
HETATM   18  C2  UNL     1      28.177  -0.330  53.549  1.00  0.00    -0.040 A 
HETATM   19  C1  UNL     1      29.550  -0.894  53.577  1.00  0.00     0.050 C 
HETATM   20  C19 UNL     1      27.080  -1.035  53.049  1.00  0.00     0.042 A 
HETATM   21  C18 UNL     1      25.813  -0.490  53.035  1.00  0.00     0.053 A 
HETATM   22 CL1  UNL     1      27.374  -2.660  52.434  1.00  0.00    -0.084 Cl
ENDBRANCH  13  15
ENDBRANCH   1  13
BRANCH  10  23
HETATM   23  N5  UNL     1      25.819   4.876  50.256  1.00  0.00    -0.388 N 
HETATM   24  H9  UNL     1      26.556   4.849  50.965  1.00  0.00     0.159 HD
BRANCH  23  25
HETATM   25  C13 UNL     1      25.720   5.855  49.185  1.00  0.00     0.126 C 
BRANCH  25  26
HETATM   26  C14 UNL     1      27.091   6.155  48.586  1.00  0.00     0.089 C 
BRANCH  26  27
HETATM   27  C15 UNL     1      27.859   4.876  48.591  1.00  0.00     0.232 C 
HETATM   28  O1  UNL     1      29.052   5.016  48.286  1.00  0.00    -0.307 OA
ENDBRANCH  26  27
ENDBRANCH  25  26
ENDBRANCH  23  25
ENDBRANCH  10  23
TORSDOF 6
ENDMDL
MODEL 4
REMARK VINA RESULT:      -8.0      2.669      6.043
REMARK  6 active torsions:
REMARK  status: ('A' for Active; 'I' for Inactive)
REMARK    1  A    between atoms: C5_5  and  N1_6 
REMARK    2  A    between atoms: N1_6  and  C6_7 
REMARK    3  A    between atoms: C12_16  and  N5_17 
REMARK    4  A    between atoms: N5_17  and  C13_18 
REMARK    5  A    between atoms: C13_18  and  C14_19 
REMARK    6  A    between atoms: C14_19  and  C15_20 
ROOT
HETATM    1  C6  UNL     1      23.393   0.963  52.577  1.00  0.00     0.069 A 
HETATM    2  C7  UNL     1      22.387   0.082  52.936  1.00  0.00     0.089 A 
HETATM    3  C8  UNL     1      22.362  -0.633  54.156  1.00  0.00     0.103 C 
HETATM    4  N2  UNL     1      22.346  -1.199  55.146  1.00  0.00    -0.191 NA
HETATM    5  C9  UNL     1      21.341  -0.113  52.049  1.00  0.00     0.144 A 
HETATM    6  N3  UNL     1      21.295   0.540  50.854  1.00  0.00    -0.239 NA
HETATM    7  C10 UNL     1      22.293   1.374  50.568  1.00  0.00     0.161 A 
HETATM    8  N4  UNL     1      22.220   2.006  49.372  1.00  0.00    -0.238 NA
HETATM    9  C11 UNL     1      23.197   2.860  49.021  1.00  0.00     0.148 A 
HETATM   10  C12 UNL     1      24.292   3.162  49.779  1.00  0.00     0.046 A 
HETATM   11  C16 UNL     1      24.397   2.526  51.020  1.00  0.00     0.048 A 
HETATM   12  C17 UNL     1      23.392   1.644  51.385  1.00  0.00     0.042 A 
ENDROOT
BRANCH   1  13
HETATM   13  N1  UNL     1      24.473   1.192  53.450  1.00  0.00    -0.354 N 
HETATM   14  H6  UNL     1      24.267   1.890  54.191  1.00  0.00     0.166 HD
BRANCH  13  15
HETATM   15  C5  UNL     1      25.760   0.578  53.407  1.00  0.00     0.034 A 
HETATM   16  C4  UNL     1      26.016  -0.689  52.923  1.00  0.00     0.030 A 
HETATM   17  C3  UNL     1      27.321  -1.177  52.944  1.00  0.00     0.011 A 
HETATM   18  C2  UNL     1      28.389  -0.449  53.431  1.00  0.00    -0.040 A 
HETATM   19  C1  UNL     1      29.763  -1.009  53.433  1.00  0.00     0.050 C 
HETATM   20  C19 UNL     1      28.091   0.828  53.913  1.00  0.00     0.042 A 
HETATM   21  C18 UNL     1      26.806   1.327  53.899  1.00  0.00     0.053 A 
HETATM   22 CL1  UNL     1      29.429   1.787  54.543  1.00  0.00    -0.084 Cl
ENDBRANCH  13  15
ENDBRANCH   1  13
BRANCH  10  23
HETATM   23  N5  UNL     1      25.293   4.076  49.344  1.00  0.00    -0.388 N 
HETATM   24  H9  UNL     1      26.250   3.749  49.188  1.00  0.00     0.159 HD
BRANCH  23  25
HETATM   25  C13 UNL     1      24.835   5.444  49.158  1.00  0.00     0.126 C 
BRANCH  25  26
HETATM   26  C14 UNL     1      24.958   6.248  50.449  1.00  0.00     0.089 C 
BRANCH  26  27
HETATM   27  C15 UNL     1      23.599   6.772  50.767  1.00  0.00     0.232 C 
HETATM   28  O1  UNL     1      22.873   5.945  51.338  1.00  0.00    -0.307 OA
ENDBRANCH  26  27
ENDBRANCH  25  26
ENDBRANCH  23  25
ENDBRANCH  10  23
TORSDOF 6
ENDMDL
MODEL 5
REMARK VINA RESULT:      -7.9      2.756      5.389
REMARK  6 active torsions:
REMARK  status: ('A' for Active; 'I' for Inactive)
REMARK    1  A    between atoms: C5_5  and  N1_6 
REMARK    2  A    between atoms: N1_6  and  C6_7 
REMARK    3  A    between atoms: C12_16  and  N5_17 
REMARK    4  A    between atoms: N5_17  and  C13_18 
REMARK    5  A    between atoms: C13_18  and  C14_19 
REMARK    6  A    between atoms: C14_19  and  C15_20 
ROOT
HETATM    1  C6  UNL     1      24.714   0.574  53.121  1.00  0.00     0.069 A 
HETATM    2  C7  UNL     1      26.034   0.676  53.526  1.00  0.00     0.089 A 
HETATM    3  C8  UNL     1      27.009   1.442  52.846  1.00  0.00     0.103 C 
HETATM    4  N2  UNL     1      27.789   2.069  52.296  1.00  0.00    -0.191 NA
HETATM    5  C9  UNL     1      26.425  -0.009  54.664  1.00  0.00     0.144 A 
HETATM    6  N3  UNL     1      25.542  -0.768  55.371  1.00  0.00    -0.239 NA
HETATM    7  C10 UNL     1      24.287  -0.826  54.931  1.00  0.00     0.161 A 
HETATM    8  N4  UNL     1      23.434  -1.589  55.655  1.00  0.00    -0.238 NA
HETATM    9  C11 UNL     1      22.152  -1.693  55.263  1.00  0.00     0.148 A 
HETATM   10  C12 UNL     1      21.609  -1.082  54.169  1.00  0.00     0.046 A 
HETATM   11  C16 UNL     1      22.464  -0.286  53.400  1.00  0.00     0.048 A 
HETATM   12  C17 UNL     1      23.787  -0.177  53.801  1.00  0.00     0.042 A 
ENDROOT
BRANCH   1  13
HETATM   13  N1  UNL     1      24.274   1.257  51.972  1.00  0.00    -0.354 N 
HETATM   14  H6  UNL     1      24.054   0.629  51.176  1.00  0.00     0.166 HD
BRANCH  13  15
HETATM   15  C5  UNL     1      24.112   2.666  51.818  1.00  0.00     0.034 A 
HETATM   16  C4  UNL     1      23.498   3.497  52.732  1.00  0.00     0.030 A 
HETATM   17  C3  UNL     1      23.397   4.859  52.457  1.00  0.00     0.011 A 
HETATM   18  C2  UNL     1      23.886   5.431  51.300  1.00  0.00    -0.040 A 
HETATM   19  C1  UNL     1      23.757   6.888  51.048  1.00  0.00     0.050 C 
HETATM   20  C19 UNL     1      24.501   4.560  50.397  1.00  0.00     0.042 A 
HETATM   21  C18 UNL     1      24.610   3.209  50.654  1.00  0.00     0.053 A 
HETATM   22 CL1  UNL     1      25.139   5.253  48.909  1.00  0.00    -0.084 Cl
ENDBRANCH  13  15
ENDBRANCH   1  13
BRANCH  10  23
HETATM   23  N5  UNL     1      20.241  -1.236  53.808  1.00  0.00    -0.388 N 
HETATM   24  H9  UNL     1      19.728  -2.072  54.099  1.00  0.00     0.159 HD
BRANCH  23  25
HETATM   25  C13 UNL     1      19.685  -0.142  53.028  1.00  0.00     0.126 C 
BRANCH  25  26
HETATM   26  C14 UNL     1      18.402  -0.565  52.319  1.00  0.00     0.089 C 
BRANCH  26  27
HETATM   27  C15 UNL     1      17.552  -1.256  53.332  1.00  0.00     0.232 C 
HETATM   28  O1  UNL     1      17.653  -2.491  53.300  1.00  0.00    -0.307 OA
ENDBRANCH  26  27
ENDBRANCH  25  26
ENDBRANCH  23  25
ENDBRANCH  10  23
TORSDOF 6
ENDMDL
MODEL 6
REMARK VINA RESULT:      -7.8      2.616      6.016
REMARK  6 active torsions:
REMARK  status: ('A' for Active; 'I' for Inactive)
REMARK    1  A    between atoms: C5_5  and  N1_6 
REMARK    2  A    between atoms: N1_6  and  C6_7 
REMARK    3  A    between atoms: C12_16  and  N5_17 
REMARK    4  A    between atoms: N5_17  and  C13_18 
REMARK    5  A    between atoms: C13_18  and  C14_19 
REMARK    6  A    between atoms: C14_19  and  C15_20 
ROOT
HETATM    1  C6  UNL     1      24.063   2.395  51.207  1.00  0.00     0.069 A 
HETATM    2  C7  UNL     1      24.582   2.939  50.045  1.00  0.00     0.089 A 
HETATM    3  C8  UNL     1      25.888   3.471  49.938  1.00  0.00     0.103 C 
HETATM    4  N2  UNL     1      26.946   3.891  49.858  1.00  0.00    -0.191 NA
HETATM    5  C9  UNL     1      23.777   2.966  48.918  1.00  0.00     0.144 A 
HETATM    6  N3  UNL     1      22.507   2.472  48.944  1.00  0.00    -0.239 NA
HETATM    7  C10 UNL     1      22.067   1.962  50.091  1.00  0.00     0.161 A 
HETATM    8  N4  UNL     1      20.800   1.481  50.086  1.00  0.00    -0.238 NA
HETATM    9  C11 UNL     1      20.293   0.954  51.214  1.00  0.00     0.148 A 
HETATM   10  C12 UNL     1      20.953   0.853  52.405  1.00  0.00     0.046 A 
HETATM   11  C16 UNL     1      22.264   1.340  52.444  1.00  0.00     0.048 A 
HETATM   12  C17 UNL     1      22.790   1.885  51.283  1.00  0.00     0.042 A 
ENDROOT
BRANCH   1  13
HETATM   13  N1  UNL     1      24.848   2.346  52.374  1.00  0.00    -0.354 N 
HETATM   14  H6  UNL     1      24.558   3.031  53.098  1.00  0.00     0.166 HD
BRANCH  13  15
HETATM   15  C5  UNL     1      25.951   1.479  52.633  1.00  0.00     0.034 A 
HETATM   16  C4  UNL     1      26.028   0.157  52.245  1.00  0.00     0.030 A 
HETATM   17  C3  UNL     1      27.161  -0.585  52.568  1.00  0.00     0.011 A 
HETATM   18  C2  UNL     1      28.229  -0.062  53.269  1.00  0.00    -0.040 A 
HETATM   19  C1  UNL     1      29.418  -0.890  53.591  1.00  0.00     0.050 C 
HETATM   20  C19 UNL     1      28.117   1.279  53.647  1.00  0.00     0.042 A 
HETATM   21  C18 UNL     1      27.002   2.028  53.334  1.00  0.00     0.053 A 
HETATM   22 CL1  UNL     1      29.461   1.983  54.542  1.00  0.00    -0.084 Cl
ENDBRANCH  13  15
ENDBRANCH   1  13
BRANCH  10  23
HETATM   23  N5  UNL     1      20.355   0.285  53.564  1.00  0.00    -0.388 N 
HETATM   24  H9  UNL     1      19.351   0.087  53.575  1.00  0.00     0.159 HD
BRANCH  23  25
HETATM   25  C13 UNL     1      21.271   0.030  54.665  1.00  0.00     0.126 C 
BRANCH  25  26
HETATM   26  C14 UNL     1      21.665  -1.442  54.725  1.00  0.00     0.089 C 
BRANCH  26  27
HETATM   27  C15 UNL     1      23.022  -1.506  55.340  1.00  0.00     0.232 C 
HETATM   28  O1  UNL     1      23.881  -0.879  54.704  1.00  0.00    -0.307 OA
ENDBRANCH  26  27
ENDBRANCH  25  26
ENDBRANCH  23  25
ENDBRANCH  10  23
TORSDOF 6
ENDMDL
MODEL 7
REMARK VINA RESULT:      -7.6      2.333      5.190
REMARK  6 active torsions:
REMARK  status: ('A' for Active; 'I' for Inactive)
REMARK    1  A    between atoms: C5_5  and  N1_6 
REMARK    2  A    between atoms: N1_6  and  C6_7 
REMARK    3  A    between atoms: C12_16  and  N5_17 
REMARK    4  A    between atoms: N5_17  and  C13_18 
REMARK    5  A    between atoms: C13_18  and  C14_19 
REMARK    6  A    between atoms: C14_19  and  C15_20 
ROOT
HETATM    1  C6  UNL     1      23.964  -0.064  53.508  1.00  0.00     0.069 A 
HETATM    2  C7  UNL     1      24.845  -0.512  54.476  1.00  0.00     0.089 A 
HETATM    3  C8  UNL     1      26.235  -0.251  54.458  1.00  0.00     0.103 C 
HETATM    4  N2  UNL     1      27.354  -0.029  54.441  1.00  0.00    -0.191 NA
HETATM    5  C9  UNL     1      24.340  -1.259  55.527  1.00  0.00     0.144 A 
HETATM    6  N3  UNL     1      23.012  -1.552  55.612  1.00  0.00    -0.239 NA
HETATM    7  C10 UNL     1      22.216  -1.092  54.650  1.00  0.00     0.161 A 
HETATM    8  N4  UNL     1      20.901  -1.401  54.762  1.00  0.00    -0.238 NA
HETATM    9  C11 UNL     1      20.043  -0.969  53.822  1.00  0.00     0.148 A 
HETATM   10  C12 UNL     1      20.380  -0.224  52.727  1.00  0.00     0.046 A 
HETATM   11  C16 UNL     1      21.730   0.112  52.583  1.00  0.00     0.048 A 
HETATM   12  C17 UNL     1      22.617  -0.332  53.550  1.00  0.00     0.042 A 
ENDROOT
BRANCH   1  13
HETATM   13  N1  UNL     1      24.436   0.701  52.425  1.00  0.00    -0.354 N 
HETATM   14  H6  UNL     1      24.966   0.147  51.726  1.00  0.00     0.166 HD
BRANCH  13  15
HETATM   15  C5  UNL     1      24.256   2.102  52.218  1.00  0.00     0.034 A 
HETATM   16  C4  UNL     1      24.064   3.032  53.219  1.00  0.00     0.030 A 
HETATM   17  C3  UNL     1      23.892   4.372  52.882  1.00  0.00     0.011 A 
HETATM   18  C2  UNL     1      23.904   4.828  51.578  1.00  0.00    -0.040 A 
HETATM   19  C1  UNL     1      23.718   6.267  51.265  1.00  0.00     0.050 C 
HETATM   20  C19 UNL     1      24.101   3.859  50.592  1.00  0.00     0.042 A 
HETATM   21  C18 UNL     1      24.273   2.528  50.908  1.00  0.00     0.053 A 
HETATM   22 CL1  UNL     1      24.123   4.402  48.916  1.00  0.00    -0.084 Cl
ENDBRANCH  13  15
ENDBRANCH   1  13
BRANCH  10  23
HETATM   23  N5  UNL     1      19.419   0.200  51.766  1.00  0.00    -0.388 N 
HETATM   24  H9  UNL     1      18.423   0.050  51.941  1.00  0.00     0.159 HD
BRANCH  23  25
HETATM   25  C13 UNL     1      19.976   0.831  50.580  1.00  0.00     0.126 C 
BRANCH  25  26
HETATM   26  C14 UNL     1      19.428   2.244  50.400  1.00  0.00     0.089 C 
BRANCH  26  27
HETATM   27  C15 UNL     1      18.741   2.611  51.672  1.00  0.00     0.232 C 
HETATM   28  O1  UNL     1      19.438   3.304  52.427  1.00  0.00    -0.307 OA
ENDBRANCH  26  27
ENDBRANCH  25  26
ENDBRANCH  23  25
ENDBRANCH  10  23
TORSDOF 6
ENDMDL
MODEL 8
REMARK VINA RESULT:      -7.4      2.430      3.685
REMARK  6 active torsions:
REMARK  status: ('A' for Active; 'I' for Inactive)
REMARK    1  A    between atoms: C5_5  and  N1_6 
REMARK    2  A    between atoms: N1_6  and  C6_7 
REMARK    3  A    between atoms: C12_16  and  N5_17 
REMARK    4  A    between atoms: N5_17  and  C13_18 
REMARK    5  A    between atoms: C13_18  and  C14_19 
REMARK    6  A    between atoms: C14_19  and  C15_20 
ROOT
HETATM    1  C6  UNL     1      23.032   3.826  51.822  1.00  0.00     0.069 A 
HETATM    2  C7  UNL     1      21.789   3.785  51.214  1.00  0.00     0.089 A 
HETATM    3  C8  UNL     1      21.180   4.898  50.589  1.00  0.00     0.103 C 
HETATM    4  N2  UNL     1      20.699   5.798  50.079  1.00  0.00    -0.191 NA
HETATM    5  C9  UNL     1      21.099   2.584  51.215  1.00  0.00     0.144 A 
HETATM    6  N3  UNL     1      21.622   1.469  51.798  1.00  0.00    -0.239 NA
HETATM    7  C10 UNL     1      22.821   1.574  52.366  1.00  0.00     0.161 A 
HETATM    8  N4  UNL     1      23.312   0.449  52.939  1.00  0.00    -0.238 NA
HETATM    9  C11 UNL     1      24.518   0.487  53.532  1.00  0.00     0.148 A 
HETATM   10  C12 UNL     1      25.322   1.587  53.616  1.00  0.00     0.046 A 
HETATM   11  C16 UNL     1      24.844   2.766  53.034  1.00  0.00     0.048 A 
HETATM   12  C17 UNL     1      23.601   2.730  52.422  1.00  0.00     0.042 A 
ENDROOT
BRANCH   1  13
HETATM   13  N1  UNL     1      23.768   5.026  51.840  1.00  0.00    -0.354 N 
HETATM   14  H6  UNL     1      23.608   5.597  52.692  1.00  0.00     0.166 HD
BRANCH  13  15
HETATM   15  C5  UNL     1      24.668   5.499  50.839  1.00  0.00     0.034 A 
HETATM   16  C4  UNL     1      25.374   4.696  49.966  1.00  0.00     0.030 A 
HETATM   17  C3  UNL     1      26.230   5.284  49.038  1.00  0.00     0.011 A 
HETATM   18  C2  UNL     1      26.414   6.649  48.942  1.00  0.00    -0.040 A 
HETATM   19  C1  UNL     1      27.336   7.233  47.937  1.00  0.00     0.050 C 
HETATM   20  C19 UNL     1      25.684   7.431  49.842  1.00  0.00     0.042 A 
HETATM   21  C18 UNL     1      24.832   6.865  50.767  1.00  0.00     0.053 A 
HETATM   22 CL1  UNL     1      25.892   9.178  49.751  1.00  0.00    -0.084 Cl
ENDBRANCH  13  15
ENDBRANCH   1  13
BRANCH  10  23
HETATM   23  N5  UNL     1      26.590   1.560  54.263  1.00  0.00    -0.388 N 
HETATM   24  H9  UNL     1      27.120   2.426  54.384  1.00  0.00     0.159 HD
BRANCH  23  25
HETATM   25  C13 UNL     1      27.024   0.244  54.705  1.00  0.00     0.126 C 
BRANCH  25  26
HETATM   26  C14 UNL     1      28.263  -0.214  53.943  1.00  0.00     0.089 C 
BRANCH  26  27
HETATM   27  C15 UNL     1      29.246   0.908  53.995  1.00  0.00     0.232 C 
HETATM   28  O1  UNL     1      29.262   1.499  55.084  1.00  0.00    -0.307 OA
ENDBRANCH  26  27
ENDBRANCH  25  26
ENDBRANCH  23  25
ENDBRANCH  10  23
TORSDOF 6
ENDMDL
MODEL 9
REMARK VINA RESULT:      -7.3      4.050      7.014
REMARK  6 active torsions:
REMARK  status: ('A' for Active; 'I' for Inactive)
REMARK    1  A    between atoms: C5_5  and  N1_6 
REMARK    2  A    between atoms: N1_6  and  C6_7 
REMARK    3  A    between atoms: C12_16  and  N5_17 
REMARK    4  A    between atoms: N5_17  and  C13_18 
REMARK    5  A    between atoms: C13_18  and  C14_19 
REMARK    6  A    between atoms: C14_19  and  C15_20 
ROOT
HETATM    1  C6  UNL     1      24.631   3.061  51.294  1.00  0.00     0.069 A 
HETATM    2  C7  UNL     1      23.543   3.042  52.149  1.00  0.00     0.089 A 
HETATM    3  C8  UNL     1      23.079   1.881  52.809  1.00  0.00     0.103 C 
HETATM    4  N2  UNL     1      22.716   0.941  53.346  1.00  0.00    -0.191 NA
HETATM    5  C9  UNL     1      22.866   4.229  52.374  1.00  0.00     0.144 A 
HETATM    6  N3  UNL     1      23.253   5.389  51.772  1.00  0.00    -0.239 NA
HETATM    7  C10 UNL     1      24.307   5.341  50.961  1.00  0.00     0.161 A 
HETATM    8  N4  UNL     1      24.666   6.510  50.377  1.00  0.00    -0.238 NA
HETATM    9  C11 UNL     1      25.722   6.530  49.544  1.00  0.00     0.148 A 
HETATM   10  C12 UNL     1      26.492   5.450  49.219  1.00  0.00     0.046 A 
HETATM   11  C16 UNL     1      26.147   4.229  49.806  1.00  0.00     0.048 A 
HETATM   12  C17 UNL     1      25.060   4.204  50.665  1.00  0.00     0.042 A 
ENDROOT
BRANCH   1  13
HETATM   13  N1  UNL     1      25.348   1.877  51.040  1.00  0.00    -0.354 N 
HETATM   14  H6  UNL     1      25.046   1.386  50.177  1.00  0.00     0.166 HD
BRANCH  13  15
HETATM   15  C5  UNL     1      26.401   1.323  51.828  1.00  0.00     0.034 A 
HETATM   16  C4  UNL     1      27.368   2.056  52.485  1.00  0.00     0.030 A 
HETATM   17  C3  UNL     1      28.350   1.392  53.216  1.00  0.00     0.011 A 
HETATM   18  C2  UNL     1      28.408   0.016  53.323  1.00  0.00    -0.040 A 
HETATM   19  C1  UNL     1      29.471  -0.650  54.115  1.00  0.00     0.050 C 
HETATM   20  C19 UNL     1      27.413  -0.693  52.645  1.00  0.00     0.042 A 
HETATM   21  C18 UNL     1      26.434  -0.051  51.916  1.00  0.00     0.053 A 
HETATM   22 CL1  UNL     1      27.453  -2.451  52.757  1.00  0.00    -0.084 Cl
ENDBRANCH  13  15
ENDBRANCH   1  13
BRANCH  10  23
HETATM   23  N5  UNL     1      27.597   5.541  48.326  1.00  0.00    -0.388 N 
HETATM   24  H9  UNL     1      27.890   4.719  47.793  1.00  0.00     0.159 HD
BRANCH  23  25
HETATM   25  C13 UNL     1      28.224   6.852  48.257  1.00  0.00     0.126 C 
BRANCH  25  26
HETATM   26  C14 UNL     1      29.578   6.779  47.559  1.00  0.00     0.089 C 
BRANCH  26  27
HETATM   27  C15 UNL     1      30.553   6.243  48.554  1.00  0.00     0.232 C 
HETATM   28  O1  UNL     1      31.690   6.722  48.437  1.00  0.00    -0.307 OA
ENDBRANCH  26  27
ENDBRANCH  25  26
ENDBRANCH  23  25
ENDBRANCH  10  23
TORSDOF 6
ENDMDL
