MODEL 1
REMARK VINA RESULT:     -10.1      0.000      0.000
REMARK  0 active torsions:
REMARK  status: ('A' for Active; 'I' for Inactive)
ROOT
HETATM    1  O1  UNL     1      26.009  -0.592  52.780  1.00  0.00    -0.268 OA
HETATM    2  C1  UNL     1      26.101   0.510  52.098  1.00  0.00     0.253 C 
HETATM    3  N1  UNL     1      27.285   1.085  51.579  1.00  0.00    -0.353 N 
HETATM    4  C2  UNL     1      26.808   2.446  51.851  1.00  0.00     0.163 C 
HETATM    5  C3  UNL     1      25.579   2.370  51.021  1.00  0.00    -0.015 C 
HETATM    6  C4  UNL     1      25.139   3.014  49.983  1.00  0.00    -0.018 C 
HETATM    7  C5  UNL     1      23.887   2.964  49.100  1.00  0.00     0.177 C 
HETATM    8  N2  UNL     1      23.560   4.363  49.523  1.00  0.00    -0.314 N 
HETATM    9  S1  UNL     1      22.086   4.503  50.391  1.00  0.00    -0.013 SA
HETATM   10  C6  UNL     1      21.783   3.192  51.550  1.00  0.00     0.352 A 
HETATM   11  N3  UNL     1      21.494   1.946  50.681  1.00  0.00     0.124 N 
HETATM   12  C7  UNL     1      22.357   2.033  51.824  1.00  0.00     0.257 A 
HETATM   13  C8  UNL     1      23.529   1.344  52.075  1.00  0.00     0.015 A 
HETATM   14  C9  UNL     1      24.880   1.320  51.776  1.00  0.00     0.050 C 
HETATM   15  C10 UNL     1      22.867   0.459  53.092  1.00  0.00    -0.017 A 
HETATM   16  C11 UNL     1      22.715  -0.558  54.052  1.00  0.00     0.012 A 
HETATM   17  C12 UNL     1      21.593  -0.814  54.780  1.00  0.00     0.001 A 
HETATM   18  C13 UNL     1      20.466  -0.051  54.614  1.00  0.00     0.001 A 
HETATM   19  C14 UNL     1      20.571   0.953  53.683  1.00  0.00     0.011 A 
HETATM   20  C15 UNL     1      21.751   1.188  52.946  1.00  0.00    -0.001 A 
HETATM   21  C16 UNL     1      24.691   5.125  49.092  1.00  0.00     0.051 A 
HETATM   22  C17 UNL     1      24.738   6.392  48.568  1.00  0.00     0.031 A 
HETATM   23  C18 UNL     1      26.047   6.819  48.308  1.00  0.00     0.002 A 
HETATM   24  C19 UNL     1      27.151   6.024  48.565  1.00  0.00     0.001 A 
HETATM   25  C20 UNL     1      27.048   4.729  49.104  1.00  0.00     0.014 A 
HETATM   26  C21 UNL     1      25.775   4.233  49.391  1.00  0.00    -0.000 A 
HETATM   27  H1  UNL     1      27.982   0.427  51.233  1.00  0.00     0.163 HD
HETATM   28  H7  UNL     1      20.553   1.568  50.775  1.00  0.00     0.319 HD
ENDROOT
TORSDOF 0
ENDMDL
MODEL 2
REMARK VINA RESULT:     -10.1      2.971      6.216
REMARK  0 active torsions:
REMARK  status: ('A' for Active; 'I' for Inactive)
ROOT
HETATM    1  O1  UNL     1      23.397  -1.458  55.843  1.00  0.00    -0.268 OA
HETATM    2  C1  UNL     1      22.448  -1.199  54.994  1.00  0.00     0.253 C 
HETATM    3  N1  UNL     1      21.136  -1.732  55.008  1.00  0.00    -0.353 N 
HETATM    4  C2  UNL     1      21.091  -1.797  53.542  1.00  0.00     0.163 C 
HETATM    5  C3  UNL     1      21.316  -0.350  53.295  1.00  0.00    -0.015 C 
HETATM    6  C4  UNL     1      20.630   0.595  52.726  1.00  0.00    -0.018 C 
HETATM    7  C5  UNL     1      20.823   2.092  52.456  1.00  0.00     0.177 C 
HETATM    8  N2  UNL     1      20.772   1.810  50.986  1.00  0.00    -0.314 N 
HETATM    9  S1  UNL     1      22.224   2.189  50.152  1.00  0.00    -0.013 SA
HETATM   10  C6  UNL     1      23.711   1.768  51.028  1.00  0.00     0.352 A 
HETATM   11  N3  UNL     1      23.780   2.768  52.206  1.00  0.00     0.124 N 
HETATM   12  C7  UNL     1      23.990   1.350  52.250  1.00  0.00     0.257 A 
HETATM   13  C8  UNL     1      23.702   0.466  53.273  1.00  0.00     0.015 A 
HETATM   14  C9  UNL     1      22.670  -0.249  53.855  1.00  0.00     0.050 C 
HETATM   15  C10 UNL     1      25.150   0.331  53.651  1.00  0.00    -0.017 A 
HETATM   16  C11 UNL     1      26.294  -0.096  54.351  1.00  0.00     0.012 A 
HETATM   17  C12 UNL     1      27.585   0.198  54.035  1.00  0.00     0.001 A 
HETATM   18  C13 UNL     1      27.874   0.980  52.945  1.00  0.00     0.001 A 
HETATM   19  C14 UNL     1      26.785   1.420  52.235  1.00  0.00     0.011 A 
HETATM   20  C15 UNL     1      25.459   1.096  52.594  1.00  0.00    -0.001 A 
HETATM   21  C16 UNL     1      19.482   1.223  50.794  1.00  0.00     0.051 A 
HETATM   22  C17 UNL     1      18.604   1.376  49.750  1.00  0.00     0.031 A 
HETATM   23  C18 UNL     1      17.450   0.596  49.899  1.00  0.00     0.002 A 
HETATM   24  C19 UNL     1      17.249  -0.229  50.992  1.00  0.00     0.001 A 
HETATM   25  C20 UNL     1      18.182  -0.350  52.037  1.00  0.00     0.014 A 
HETATM   26  C21 UNL     1      19.359   0.397  51.960  1.00  0.00    -0.000 A 
HETATM   27  H1  UNL     1      20.724  -1.870  55.929  1.00  0.00     0.163 HD
HETATM   28  H7  UNL     1      24.573   3.406  52.179  1.00  0.00     0.319 HD
ENDROOT
TORSDOF 0
ENDMDL
MODEL 3
REMARK VINA RESULT:      -9.8      2.597      5.497
REMARK  0 active torsions:
REMARK  status: ('A' for Active; 'I' for Inactive)
ROOT
HETATM    1  O1  UNL     1      22.046  -0.968  54.918  1.00  0.00    -0.268 OA
HETATM    2  C1  UNL     1      21.356  -0.154  54.177  1.00  0.00     0.253 C 
HETATM    3  N1  UNL     1      19.946  -0.050  54.125  1.00  0.00    -0.353 N 
HETATM    4  C2  UNL     1      19.965   0.213  52.681  1.00  0.00     0.163 C 
HETATM    5  C3  UNL     1      20.811   1.432  52.736  1.00  0.00    -0.015 C 
HETATM    6  C4  UNL     1      20.640   2.676  52.402  1.00  0.00    -0.018 C 
HETATM    7  C5  UNL     1      21.480   3.958  52.446  1.00  0.00     0.177 C 
HETATM    8  N2  UNL     1      21.401   4.034  50.953  1.00  0.00    -0.314 N 
HETATM    9  S1  UNL     1      22.921   3.901  50.166  1.00  0.00    -0.013 SA
HETATM   10  C6  UNL     1      24.021   2.703  50.879  1.00  0.00     0.352 A 
HETATM   11  N3  UNL     1      24.447   3.308  52.238  1.00  0.00     0.124 N 
HETATM   12  C7  UNL     1      24.016   1.965  51.976  1.00  0.00     0.257 A 
HETATM   13  C8  UNL     1      23.311   1.107  52.800  1.00  0.00     0.015 A 
HETATM   14  C9  UNL     1      22.039   0.814  53.255  1.00  0.00     0.050 C 
HETATM   15  C10 UNL     1      24.531   0.279  53.089  1.00  0.00    -0.017 A 
HETATM   16  C11 UNL     1      25.331  -0.738  53.642  1.00  0.00     0.012 A 
HETATM   17  C12 UNL     1      26.638  -0.980  53.349  1.00  0.00     0.001 A 
HETATM   18  C13 UNL     1      27.304  -0.200  52.438  1.00  0.00     0.001 A 
HETATM   19  C14 UNL     1      26.559   0.807  51.876  1.00  0.00     0.011 A 
HETATM   20  C15 UNL     1      25.206   1.029  52.206  1.00  0.00    -0.001 A 
HETATM   21  C16 UNL     1      19.998   4.123  50.688  1.00  0.00     0.051 A 
HETATM   22  C17 UNL     1      19.339   4.854  49.732  1.00  0.00     0.031 A 
HETATM   23  C18 UNL     1      17.954   4.645  49.754  1.00  0.00     0.002 A 
HETATM   24  C19 UNL     1      17.349   3.787  50.657  1.00  0.00     0.001 A 
HETATM   25  C20 UNL     1      18.072   3.059  51.618  1.00  0.00     0.014 A 
HETATM   26  C21 UNL     1      19.459   3.214  51.658  1.00  0.00    -0.000 A 
HETATM   27  H1  UNL     1      19.460  -0.178  55.011  1.00  0.00     0.163 HD
HETATM   28  H7  UNL     1      25.438   3.525  52.317  1.00  0.00     0.319 HD
ENDROOT
TORSDOF 0
ENDMDL
MODEL 4
REMARK VINA RESULT:      -9.8      2.245      6.639
REMARK  0 active torsions:
REMARK  status: ('A' for Active; 'I' for Inactive)
ROOT
HETATM    1  O1  UNL     1      25.202   0.324  53.925  1.00  0.00    -0.268 OA
HETATM    2  C1  UNL     1      23.949   0.047  53.720  1.00  0.00     0.253 C 
HETATM    3  N1  UNL     1      23.189  -0.953  54.372  1.00  0.00    -0.353 N 
HETATM    4  C2  UNL     1      22.443  -1.259  53.145  1.00  0.00     0.163 C 
HETATM    5  C3  UNL     1      21.882   0.100  52.936  1.00  0.00    -0.015 C 
HETATM    6  C4  UNL     1      20.682   0.593  52.887  1.00  0.00    -0.018 C 
HETATM    7  C5  UNL     1      20.065   1.981  52.679  1.00  0.00     0.177 C 
HETATM    8  N2  UNL     1      19.403   1.476  51.434  1.00  0.00    -0.314 N 
HETATM    9  S1  UNL     1      19.922   2.265  50.000  1.00  0.00    -0.013 SA
HETATM   10  C6  UNL     1      21.662   2.611  49.934  1.00  0.00     0.352 A 
HETATM   11  N3  UNL     1      21.889   3.728  50.981  1.00  0.00     0.124 N 
HETATM   12  C7  UNL     1      22.665   2.535  50.793  1.00  0.00     0.257 A 
HETATM   13  C8  UNL     1      23.333   1.781  51.740  1.00  0.00     0.015 A 
HETATM   14  C9  UNL     1      23.146   0.817  52.714  1.00  0.00     0.050 C 
HETATM   15  C10 UNL     1      24.674   2.293  51.295  1.00  0.00    -0.017 A 
HETATM   16  C11 UNL     1      26.069   2.471  51.259  1.00  0.00     0.012 A 
HETATM   17  C12 UNL     1      26.762   3.200  50.342  1.00  0.00     0.001 A 
HETATM   18  C13 UNL     1      26.105   3.851  49.329  1.00  0.00     0.001 A 
HETATM   19  C14 UNL     1      24.739   3.706  49.329  1.00  0.00     0.011 A 
HETATM   20  C15 UNL     1      24.054   2.942  50.299  1.00  0.00    -0.001 A 
HETATM   21  C16 UNL     1      18.577   0.403  51.895  1.00  0.00     0.051 A 
HETATM   22  C17 UNL     1      17.324   0.029  51.479  1.00  0.00     0.031 A 
HETATM   23  C18 UNL     1      16.854  -1.110  52.143  1.00  0.00     0.002 A 
HETATM   24  C19 UNL     1      17.599  -1.765  53.109  1.00  0.00     0.001 A 
HETATM   25  C20 UNL     1      18.881  -1.341  53.500  1.00  0.00     0.014 A 
HETATM   26  C21 UNL     1      19.419  -0.210  52.882  1.00  0.00    -0.000 A 
HETATM   27  H1  UNL     1      23.399  -1.097  55.358  1.00  0.00     0.163 HD
HETATM   28  H7  UNL     1      22.208   4.615  50.596  1.00  0.00     0.319 HD
ENDROOT
TORSDOF 0
ENDMDL
MODEL 5
REMARK VINA RESULT:      -9.3      2.420      3.132
REMARK  0 active torsions:
REMARK  status: ('A' for Active; 'I' for Inactive)
ROOT
HETATM    1  O1  UNL     1      22.229  -1.299  53.516  1.00  0.00    -0.268 OA
HETATM    2  C1  UNL     1      22.694  -0.285  52.852  1.00  0.00     0.253 C 
HETATM    3  N1  UNL     1      24.021   0.207  52.883  1.00  0.00    -0.353 N 
HETATM    4  C2  UNL     1      23.564   1.598  52.775  1.00  0.00     0.163 C 
HETATM    5  C3  UNL     1      22.844   1.447  51.484  1.00  0.00    -0.015 C 
HETATM    6  C4  UNL     1      22.969   1.975  50.304  1.00  0.00    -0.018 C 
HETATM    7  C5  UNL     1      22.256   1.843  48.954  1.00  0.00     0.177 C 
HETATM    8  N2  UNL     1      21.867   3.287  49.044  1.00  0.00    -0.314 N 
HETATM    9  S1  UNL     1      20.172   3.549  49.121  1.00  0.00    -0.013 SA
HETATM   10  C6  UNL     1      19.288   2.385  50.130  1.00  0.00     0.352 A 
HETATM   11  N3  UNL     1      19.343   1.052  49.347  1.00  0.00     0.124 N 
HETATM   12  C7  UNL     1      19.597   1.256  50.745  1.00  0.00     0.257 A 
HETATM   13  C8  UNL     1      20.477   0.582  51.571  1.00  0.00     0.015 A 
HETATM   14  C9  UNL     1      21.811   0.502  51.929  1.00  0.00     0.050 C 
HETATM   15  C10 UNL     1      19.366  -0.169  52.249  1.00  0.00    -0.017 A 
HETATM   16  C11 UNL     1      18.727  -1.067  53.123  1.00  0.00     0.012 A 
HETATM   17  C12 UNL     1      17.383  -1.220  53.275  1.00  0.00     0.001 A 
HETATM   18  C13 UNL     1      16.508  -0.462  52.538  1.00  0.00     0.001 A 
HETATM   19  C14 UNL     1      17.092   0.426  51.669  1.00  0.00     0.011 A 
HETATM   20  C15 UNL     1      18.491   0.555  51.538  1.00  0.00    -0.001 A 
HETATM   21  C16 UNL     1      23.118   3.976  49.112  1.00  0.00     0.051 A 
HETATM   22  C17 UNL     1      23.483   5.173  48.550  1.00  0.00     0.031 A 
HETATM   23  C18 UNL     1      24.792   5.547  48.881  1.00  0.00     0.002 A 
HETATM   24  C19 UNL     1      25.602   4.769  49.691  1.00  0.00     0.001 A 
HETATM   25  C20 UNL     1      25.179   3.547  50.243  1.00  0.00     0.014 A 
HETATM   26  C21 UNL     1      23.885   3.107  49.958  1.00  0.00    -0.000 A 
HETATM   27  H1  UNL     1      24.753  -0.497  52.961  1.00  0.00     0.163 HD
HETATM   28  H7  UNL     1      18.440   0.703  49.034  1.00  0.00     0.319 HD
ENDROOT
TORSDOF 0
ENDMDL
MODEL 6
REMARK VINA RESULT:      -9.3      3.274      5.243
REMARK  0 active torsions:
REMARK  status: ('A' for Active; 'I' for Inactive)
ROOT
HETATM    1  O1  UNL     1      18.548   1.876  49.372  1.00  0.00    -0.268 OA
HETATM    2  C1  UNL     1      19.812   1.872  49.674  1.00  0.00     0.253 C 
HETATM    3  N1  UNL     1      20.852   2.506  48.954  1.00  0.00    -0.353 N 
HETATM    4  C2  UNL     1      21.787   1.410  49.236  1.00  0.00     0.163 C 
HETATM    5  C3  UNL     1      21.727   1.504  50.717  1.00  0.00    -0.015 C 
HETATM    6  C4  UNL     1      22.595   1.751  51.651  1.00  0.00    -0.018 C 
HETATM    7  C5  UNL     1      22.572   1.862  53.180  1.00  0.00     0.177 C 
HETATM    8  N2  UNL     1      23.519   0.704  53.255  1.00  0.00    -0.314 N 
HETATM    9  S1  UNL     1      22.873  -0.675  54.046  1.00  0.00    -0.013 SA
HETATM   10  C6  UNL     1      21.172  -1.016  53.667  1.00  0.00     0.352 A 
HETATM   11  N3  UNL     1      20.372   0.116  54.353  1.00  0.00     0.124 N 
HETATM   12  C7  UNL     1      20.212  -0.380  53.016  1.00  0.00     0.257 A 
HETATM   13  C8  UNL     1      19.835   0.309  51.879  1.00  0.00     0.015 A 
HETATM   14  C9  UNL     1      20.311   1.153  50.892  1.00  0.00     0.050 C 
HETATM   15  C10 UNL     1      18.462  -0.303  51.887  1.00  0.00    -0.017 A 
HETATM   16  C11 UNL     1      17.140  -0.574  51.490  1.00  0.00     0.012 A 
HETATM   17  C12 UNL     1      16.305  -1.492  52.051  1.00  0.00     0.001 A 
HETATM   18  C13 UNL     1      16.725  -2.261  53.106  1.00  0.00     0.001 A 
HETATM   19  C14 UNL     1      18.011  -2.026  53.528  1.00  0.00     0.011 A 
HETATM   20  C15 UNL     1      18.846  -1.063  52.922  1.00  0.00    -0.001 A 
HETATM   21  C16 UNL     1      24.671   1.155  52.536  1.00  0.00     0.051 A 
HETATM   22  C17 UNL     1      26.000   0.932  52.794  1.00  0.00     0.031 A 
HETATM   23  C18 UNL     1      26.839   1.504  51.830  1.00  0.00     0.002 A 
HETATM   24  C19 UNL     1      26.348   2.211  50.746  1.00  0.00     0.001 A 
HETATM   25  C20 UNL     1      24.973   2.411  50.526  1.00  0.00     0.014 A 
HETATM   26  C21 UNL     1      24.073   1.870  51.445  1.00  0.00    -0.000 A 
HETATM   27  H1  UNL     1      20.618   3.405  48.536  1.00  0.00     0.163 HD
HETATM   28  H7  UNL     1      19.746  -0.191  55.095  1.00  0.00     0.319 HD
ENDROOT
TORSDOF 0
ENDMDL
MODEL 7
REMARK VINA RESULT:      -9.3      2.866      5.231
REMARK  0 active torsions:
REMARK  status: ('A' for Active; 'I' for Inactive)
ROOT
HETATM    1  O1  UNL     1      24.441   5.025  48.903  1.00  0.00    -0.268 OA
HETATM    2  C1  UNL     1      25.145   4.352  49.763  1.00  0.00     0.253 C 
HETATM    3  N1  UNL     1      26.523   4.518  50.041  1.00  0.00    -0.353 N 
HETATM    4  C2  UNL     1      26.713   3.076  50.233  1.00  0.00     0.163 C 
HETATM    5  C3  UNL     1      25.734   2.914  51.337  1.00  0.00    -0.015 C 
HETATM    6  C4  UNL     1      25.811   2.531  52.576  1.00  0.00    -0.018 C 
HETATM    7  C5  UNL     1      24.832   2.356  53.742  1.00  0.00     0.177 C 
HETATM    8  N2  UNL     1      25.149   0.893  53.759  1.00  0.00    -0.314 N 
HETATM    9  S1  UNL     1      23.807  -0.116  53.400  1.00  0.00    -0.013 SA
HETATM   10  C6  UNL     1      22.751   0.491  52.108  1.00  0.00     0.352 A 
HETATM   11  N3  UNL     1      22.038   1.721  52.716  1.00  0.00     0.124 N 
HETATM   12  C7  UNL     1      22.660   1.620  51.427  1.00  0.00     0.257 A 
HETATM   13  C8  UNL     1      23.313   2.601  50.704  1.00  0.00     0.015 A 
HETATM   14  C9  UNL     1      24.518   3.271  50.594  1.00  0.00     0.050 C 
HETATM   15  C10 UNL     1      22.167   2.745  49.742  1.00  0.00    -0.017 A 
HETATM   16  C11 UNL     1      21.410   3.230  48.660  1.00  0.00     0.012 A 
HETATM   17  C12 UNL     1      20.207   2.749  48.242  1.00  0.00     0.001 A 
HETATM   18  C13 UNL     1      19.616   1.694  48.890  1.00  0.00     0.001 A 
HETATM   19  C14 UNL     1      20.321   1.193  49.956  1.00  0.00     0.011 A 
HETATM   20  C15 UNL     1      21.566   1.719  50.361  1.00  0.00    -0.001 A 
HETATM   21  C16 UNL     1      26.556   0.849  54.012  1.00  0.00     0.051 A 
HETATM   22  C17 UNL     1      27.276  -0.036  54.776  1.00  0.00     0.031 A 
HETATM   23  C18 UNL     1      28.652   0.221  54.744  1.00  0.00     0.002 A 
HETATM   24  C19 UNL     1      29.195   1.263  54.011  1.00  0.00     0.001 A 
HETATM   25  C20 UNL     1      28.412   2.143  53.243  1.00  0.00     0.014 A 
HETATM   26  C21 UNL     1      27.029   1.951  53.224  1.00  0.00    -0.000 A 
HETATM   27  H1  UNL     1      26.867   5.477  50.016  1.00  0.00     0.163 HD
HETATM   28  H7  UNL     1      21.028   1.627  52.810  1.00  0.00     0.319 HD
ENDROOT
TORSDOF 0
ENDMDL
MODEL 8
REMARK VINA RESULT:      -9.2      2.083      2.886
REMARK  0 active torsions:
REMARK  status: ('A' for Active; 'I' for Inactive)
ROOT
HETATM    1  O1  UNL     1      27.041   2.430  51.461  1.00  0.00    -0.268 OA
HETATM    2  C1  UNL     1      26.226   3.182  50.783  1.00  0.00     0.253 C 
HETATM    3  N1  UNL     1      26.559   4.357  50.069  1.00  0.00    -0.353 N 
HETATM    4  C2  UNL     1      25.293   5.003  50.434  1.00  0.00     0.163 C 
HETATM    5  C3  UNL     1      24.396   3.982  49.834  1.00  0.00    -0.015 C 
HETATM    6  C4  UNL     1      23.498   3.997  48.896  1.00  0.00    -0.018 C 
HETATM    7  C5  UNL     1      22.560   2.972  48.247  1.00  0.00     0.177 C 
HETATM    8  N2  UNL     1      21.389   3.769  48.735  1.00  0.00    -0.314 N 
HETATM    9  S1  UNL     1      20.391   2.929  49.851  1.00  0.00    -0.013 SA
HETATM   10  C6  UNL     1      21.273   1.940  51.033  1.00  0.00     0.352 A 
HETATM   11  N3  UNL     1      21.854   0.761  50.216  1.00  0.00     0.124 N 
HETATM   12  C7  UNL     1      22.532   1.570  51.189  1.00  0.00     0.257 A 
HETATM   13  C8  UNL     1      23.862   1.946  51.223  1.00  0.00     0.015 A 
HETATM   14  C9  UNL     1      24.767   2.847  50.690  1.00  0.00     0.050 C 
HETATM   15  C10 UNL     1      24.174   0.982  52.333  1.00  0.00    -0.017 A 
HETATM   16  C11 UNL     1      24.923   0.280  53.294  1.00  0.00     0.012 A 
HETATM   17  C12 UNL     1      24.432  -0.603  54.206  1.00  0.00     0.001 A 
HETATM   18  C13 UNL     1      23.090  -0.886  54.250  1.00  0.00     0.001 A 
HETATM   19  C14 UNL     1      22.322  -0.223  53.324  1.00  0.00     0.011 A 
HETATM   20  C15 UNL     1      22.868   0.686  52.393  1.00  0.00    -0.001 A 
HETATM   21  C16 UNL     1      21.564   5.048  48.119  1.00  0.00     0.051 A 
HETATM   22  C17 UNL     1      20.621   5.903  47.607  1.00  0.00     0.031 A 
HETATM   23  C18 UNL     1      21.178   7.093  47.124  1.00  0.00     0.002 A 
HETATM   24  C19 UNL     1      22.538   7.348  47.174  1.00  0.00     0.001 A 
HETATM   25  C20 UNL     1      23.465   6.437  47.710  1.00  0.00     0.014 A 
HETATM   26  C21 UNL     1      22.985   5.226  48.213  1.00  0.00    -0.000 A 
HETATM   27  H1  UNL     1      27.464   4.349  49.600  1.00  0.00     0.163 HD
HETATM   28  H7  UNL     1      21.491  -0.155  50.471  1.00  0.00     0.319 HD
ENDROOT
TORSDOF 0
ENDMDL
MODEL 9
REMARK VINA RESULT:      -9.0      2.361      3.898
REMARK  0 active torsions:
REMARK  status: ('A' for Active; 'I' for Inactive)
ROOT
HETATM    1  O1  UNL     1      18.923   3.044  52.323  1.00  0.00    -0.268 OA
HETATM    2  C1  UNL     1      19.863   3.638  51.651  1.00  0.00     0.253 C 
HETATM    3  N1  UNL     1      19.707   4.732  50.767  1.00  0.00    -0.353 N 
HETATM    4  C2  UNL     1      20.735   4.213  49.857  1.00  0.00     0.163 C 
HETATM    5  C3  UNL     1      21.846   4.190  50.842  1.00  0.00    -0.015 C 
HETATM    6  C4  UNL     1      23.001   4.778  50.927  1.00  0.00    -0.018 C 
HETATM    7  C5  UNL     1      24.167   4.786  51.923  1.00  0.00     0.177 C 
HETATM    8  N2  UNL     1      25.055   4.229  50.853  1.00  0.00    -0.314 N 
HETATM    9  S1  UNL     1      25.681   2.670  51.208  1.00  0.00    -0.013 SA
HETATM   10  C6  UNL     1      24.526   1.569  51.986  1.00  0.00     0.352 A 
HETATM   11  N3  UNL     1      24.329   2.136  53.412  1.00  0.00     0.124 N 
HETATM   12  C7  UNL     1      23.314   1.693  52.499  1.00  0.00     0.257 A 
HETATM   13  C8  UNL     1      22.026   2.170  52.342  1.00  0.00     0.015 A 
HETATM   14  C9  UNL     1      21.290   3.189  51.763  1.00  0.00     0.050 C 
HETATM   15  C10 UNL     1      21.430   0.971  53.024  1.00  0.00    -0.017 A 
HETATM   16  C11 UNL     1      20.454   0.115  53.565  1.00  0.00     0.012 A 
HETATM   17  C12 UNL     1      20.673  -1.120  54.095  1.00  0.00     0.001 A 
HETATM   18  C13 UNL     1      21.941  -1.643  54.140  1.00  0.00     0.001 A 
HETATM   19  C14 UNL     1      22.926  -0.836  53.625  1.00  0.00     0.011 A 
HETATM   20  C15 UNL     1      22.660   0.440  53.085  1.00  0.00    -0.001 A 
HETATM   21  C16 UNL     1      25.008   5.217  49.820  1.00  0.00     0.051 A 
HETATM   22  C17 UNL     1      26.008   5.652  48.987  1.00  0.00     0.031 A 
HETATM   23  C18 UNL     1      25.563   6.608  48.065  1.00  0.00     0.002 A 
HETATM   24  C19 UNL     1      24.250   7.043  48.024  1.00  0.00     0.001 A 
HETATM   25  C20 UNL     1      23.261   6.563  48.901  1.00  0.00     0.014 A 
HETATM   26  C21 UNL     1      23.628   5.608  49.851  1.00  0.00    -0.000 A 
HETATM   27  H1  UNL     1      19.012   5.425  51.039  1.00  0.00     0.163 HD
HETATM   28  H7  UNL     1      24.647   1.527  54.163  1.00  0.00     0.319 HD
ENDROOT
TORSDOF 0
ENDMDL
