MODEL 1
REMARK VINA RESULT:      -7.8      0.000      0.000
REMARK  3 active torsions:
REMARK  status: ('A' for Active; 'I' for Inactive)
REMARK    1  A    between atoms: C5_5  and  C6_6 
REMARK       I    between atoms: C6_6  and  N1_8 
REMARK    2  A    between atoms: N1_8  and  S1_9 
REMARK    3  A    between atoms: S1_9  and  C7_12 
ROOT
HETATM    1  C6  UNL     1      26.217   3.876  49.754  1.00  0.00     0.267 C 
HETATM    2  O1  UNL     1      26.441   2.729  49.309  1.00  0.00    -0.267 OA
HETATM    3  N1  UNL     1      25.539   4.006  51.013  1.00  0.00    -0.246 N 
HETATM    4  H6  UNL     1      25.361   4.986  51.367  1.00  0.00     0.182 HD
ENDROOT
BRANCH   3   5
HETATM    5  S1  UNL     1      25.000   2.679  51.976  1.00  0.00     0.265 S 
HETATM    6  O2  UNL     1      24.360   3.249  53.209  1.00  0.00    -0.200 OA
HETATM    7  O3  UNL     1      23.997   1.885  51.178  1.00  0.00    -0.200 OA
BRANCH   5   8
HETATM    8  C7  UNL     1      26.324   1.650  52.457  1.00  0.00     0.080 A 
HETATM    9  C8  UNL     1      27.498   2.121  53.022  1.00  0.00     0.027 A 
HETATM   10  C9  UNL     1      28.533   1.300  53.397  1.00  0.00     0.020 A 
HETATM   11  C10 UNL     1      28.393  -0.057  53.200  1.00  0.00     0.011 A 
HETATM   12 BR1  UNL     1      29.813  -1.251  53.708  1.00  0.00    -0.051 Br
HETATM   13  C11 UNL     1      27.253  -0.606  52.641  1.00  0.00     0.020 A 
HETATM   14  C12 UNL     1      26.233   0.280  52.280  1.00  0.00     0.027 A 
ENDBRANCH   5   8
ENDBRANCH   3   5
BRANCH   1  15
HETATM   15  C5  UNL     1      26.625   5.100  49.029  1.00  0.00     0.056 A 
HETATM   16  C4  UNL     1      27.941   5.277  48.666  1.00  0.00     0.019 A 
HETATM   17  C3  UNL     1      28.547   6.299  48.007  1.00  0.00     0.009 A 
HETATM   18  C2  UNL     1      27.793   7.391  47.590  1.00  0.00    -0.046 A 
HETATM   19  C1  UNL     1      28.402   8.557  46.854  1.00  0.00     0.049 C 
HETATM   20  P1  UNL     1      26.091   7.424  47.921  1.00  0.00    -0.002 P 
HETATM   21  C13 UNL     1      25.565   5.984  48.783  1.00  0.00     0.063 A 
HETATM   22 CL1  UNL     1      23.928   5.647  49.298  1.00  0.00    -0.082 Cl
ENDBRANCH   1  15
TORSDOF 3
ENDMDL
MODEL 2
REMARK VINA RESULT:      -7.5      4.386      7.448
REMARK  3 active torsions:
REMARK  status: ('A' for Active; 'I' for Inactive)
REMARK    1  A    between atoms: C5_5  and  C6_6 
REMARK       I    between atoms: C6_6  and  N1_8 
REMARK    2  A    between atoms: N1_8  and  S1_9 
REMARK    3  A    between atoms: S1_9  and  C7_12 
ROOT
HETATM    1  C6  UNL     1      23.215   3.270  51.756  1.00  0.00     0.267 C 
HETATM    2  O1  UNL     1      23.717   4.245  52.359  1.00  0.00    -0.267 OA
HETATM    3  N1  UNL     1      22.915   3.404  50.359  1.00  0.00    -0.246 N 
HETATM    4  H6  UNL     1      22.491   2.566  49.873  1.00  0.00     0.182 HD
ENDROOT
BRANCH   3   5
HETATM    5  S1  UNL     1      23.199   4.830  49.430  1.00  0.00     0.265 S 
HETATM    6  O2  UNL     1      22.475   4.668  48.124  1.00  0.00    -0.200 OA
HETATM    7  O3  UNL     1      22.656   6.013  50.191  1.00  0.00    -0.200 OA
BRANCH   5   8
HETATM    8  C7  UNL     1      24.897   5.063  49.103  1.00  0.00     0.080 A 
HETATM    9  C8  UNL     1      25.859   4.087  49.306  1.00  0.00     0.027 A 
HETATM   10  C9  UNL     1      27.194   4.283  49.045  1.00  0.00     0.020 A 
HETATM   11  C10 UNL     1      27.589   5.510  48.559  1.00  0.00     0.011 A 
HETATM   12 BR1  UNL     1      29.446   5.835  48.177  1.00  0.00    -0.051 Br
HETATM   13  C11 UNL     1      26.690   6.536  48.330  1.00  0.00     0.020 A 
HETATM   14  C12 UNL     1      25.345   6.277  48.613  1.00  0.00     0.027 A 
ENDBRANCH   5   8
ENDBRANCH   3   5
BRANCH   1  15
HETATM   15  C5  UNL     1      22.920   1.988  52.434  1.00  0.00     0.056 A 
HETATM   16  C4  UNL     1      21.637   1.711  52.851  1.00  0.00     0.019 A 
HETATM   17  C3  UNL     1      21.129   0.621  53.485  1.00  0.00     0.009 A 
HETATM   18  C2  UNL     1      21.969  -0.441  53.806  1.00  0.00    -0.046 A 
HETATM   19  C1  UNL     1      21.470  -1.678  54.508  1.00  0.00     0.049 C 
HETATM   20  P1  UNL     1      23.650  -0.350  53.390  1.00  0.00    -0.002 P 
HETATM   21  C13 UNL     1      24.042   1.161  52.581  1.00  0.00     0.063 A 
HETATM   22 CL1  UNL     1      25.628   1.627  52.008  1.00  0.00    -0.082 Cl
ENDBRANCH   1  15
TORSDOF 3
ENDMDL
MODEL 3
REMARK VINA RESULT:      -7.5      2.965      3.488
REMARK  3 active torsions:
REMARK  status: ('A' for Active; 'I' for Inactive)
REMARK    1  A    between atoms: C5_5  and  C6_6 
REMARK       I    between atoms: C6_6  and  N1_8 
REMARK    2  A    between atoms: N1_8  and  S1_9 
REMARK    3  A    between atoms: S1_9  and  C7_12 
ROOT
HETATM    1  C6  UNL     1      26.253   3.281  50.293  1.00  0.00     0.267 C 
HETATM    2  O1  UNL     1      25.744   2.273  49.754  1.00  0.00    -0.267 OA
HETATM    3  N1  UNL     1      26.639   3.203  51.673  1.00  0.00    -0.246 N 
HETATM    4  H6  UNL     1      27.066   4.068  52.105  1.00  0.00     0.182 HD
ENDROOT
BRANCH   3   5
HETATM    5  S1  UNL     1      26.454   1.803  52.663  1.00  0.00     0.265 S 
HETATM    6  O2  UNL     1      27.213   0.684  52.008  1.00  0.00    -0.200 OA
HETATM    7  O3  UNL     1      27.024   2.101  54.027  1.00  0.00    -0.200 OA
BRANCH   5   8
HETATM    8  C7  UNL     1      24.781   1.331  52.811  1.00  0.00     0.080 A 
HETATM    9  C8  UNL     1      23.718   2.203  52.637  1.00  0.00     0.027 A 
HETATM   10  C9  UNL     1      22.405   1.819  52.756  1.00  0.00     0.020 A 
HETATM   11  C10 UNL     1      22.136   0.503  53.064  1.00  0.00     0.011 A 
HETATM   12 BR1  UNL     1      20.313  -0.086  53.242  1.00  0.00    -0.051 Br
HETATM   13  C11 UNL     1      23.140  -0.429  53.254  1.00  0.00     0.020 A 
HETATM   14  C12 UNL     1      24.458   0.020  53.119  1.00  0.00     0.027 A 
ENDBRANCH   5   8
ENDBRANCH   3   5
BRANCH   1  15
HETATM   15  C5  UNL     1      26.468   4.548  49.558  1.00  0.00     0.056 A 
HETATM   16  C4  UNL     1      27.655   4.763  48.893  1.00  0.00     0.019 A 
HETATM   17  C3  UNL     1      28.078   5.827  48.162  1.00  0.00     0.009 A 
HETATM   18  C2  UNL     1      27.243   6.928  48.003  1.00  0.00    -0.046 A 
HETATM   19  C1  UNL     1      27.651   8.140  47.205  1.00  0.00     0.049 C 
HETATM   20  P1  UNL     1      25.675   6.919  48.744  1.00  0.00    -0.002 P 
HETATM   21  C13 UNL     1      25.380   5.428  49.629  1.00  0.00     0.063 A 
HETATM   22 CL1  UNL     1      23.920   5.040  50.510  1.00  0.00    -0.082 Cl
ENDBRANCH   1  15
TORSDOF 3
ENDMDL
MODEL 4
REMARK VINA RESULT:      -7.3      4.373      7.330
REMARK  3 active torsions:
REMARK  status: ('A' for Active; 'I' for Inactive)
REMARK    1  A    between atoms: C5_5  and  C6_6 
REMARK       I    between atoms: C6_6  and  N1_8 
REMARK    2  A    between atoms: N1_8  and  S1_9 
REMARK    3  A    between atoms: S1_9  and  C7_12 
ROOT
HETATM    1  C6  UNL     1      22.993   3.584  51.680  1.00  0.00     0.267 C 
HETATM    2  O1  UNL     1      23.536   4.515  52.317  1.00  0.00    -0.267 OA
HETATM    3  N1  UNL     1      22.762   3.755  50.274  1.00  0.00    -0.246 N 
HETATM    4  H6  UNL     1      22.302   2.955  49.759  1.00  0.00     0.182 HD
ENDROOT
BRANCH   3   5
HETATM    5  S1  UNL     1      23.182   5.168  49.378  1.00  0.00     0.265 S 
HETATM    6  O2  UNL     1      22.464   5.096  48.061  1.00  0.00    -0.200 OA
HETATM    7  O3  UNL     1      22.735   6.380  50.158  1.00  0.00    -0.200 OA
BRANCH   5   8
HETATM    8  C7  UNL     1      24.897   5.257  49.076  1.00  0.00     0.080 A 
HETATM    9  C8  UNL     1      25.776   4.214  49.321  1.00  0.00     0.027 A 
HETATM   10  C9  UNL     1      27.126   4.297  49.079  1.00  0.00     0.020 A 
HETATM   11  C10 UNL     1      27.625   5.475  48.567  1.00  0.00     0.011 A 
HETATM   12 BR1  UNL     1      29.508   5.642  48.209  1.00  0.00    -0.051 Br
HETATM   13  C11 UNL     1      26.814   6.562  48.296  1.00  0.00     0.020 A 
HETATM   14  C12 UNL     1      25.449   6.419  48.562  1.00  0.00     0.027 A 
ENDBRANCH   5   8
ENDBRANCH   3   5
BRANCH   1  15
HETATM   15  C5  UNL     1      22.583   2.318  52.327  1.00  0.00     0.056 A 
HETATM   16  C4  UNL     1      23.532   1.376  52.658  1.00  0.00     0.019 A 
HETATM   17  C3  UNL     1      23.401   0.159  53.248  1.00  0.00     0.009 A 
HETATM   18  C2  UNL     1      22.138  -0.297  53.612  1.00  0.00    -0.046 A 
HETATM   19  C1  UNL     1      21.923  -1.636  54.269  1.00  0.00     0.049 C 
HETATM   20  P1  UNL     1      20.754   0.702  53.305  1.00  0.00    -0.002 P 
HETATM   21  C13 UNL     1      21.200   2.220  52.537  1.00  0.00     0.063 A 
HETATM   22 CL1  UNL     1      20.091   3.488  52.068  1.00  0.00    -0.082 Cl
ENDBRANCH   1  15
TORSDOF 3
ENDMDL
MODEL 5
REMARK VINA RESULT:      -7.3      1.606      1.990
REMARK  3 active torsions:
REMARK  status: ('A' for Active; 'I' for Inactive)
REMARK    1  A    between atoms: C5_5  and  C6_6 
REMARK       I    between atoms: C6_6  and  N1_8 
REMARK    2  A    between atoms: N1_8  and  S1_9 
REMARK    3  A    between atoms: S1_9  and  C7_12 
ROOT
HETATM    1  C6  UNL     1      25.018   4.829  49.537  1.00  0.00     0.267 C 
HETATM    2  O1  UNL     1      24.469   3.859  48.969  1.00  0.00    -0.267 OA
HETATM    3  N1  UNL     1      24.828   4.998  50.949  1.00  0.00    -0.246 N 
HETATM    4  H6  UNL     1      25.303   5.825  51.405  1.00  0.00     0.182 HD
ENDROOT
BRANCH   3   5
HETATM    5  S1  UNL     1      23.887   3.947  51.943  1.00  0.00     0.265 S 
HETATM    6  O2  UNL     1      23.739   4.608  53.283  1.00  0.00    -0.200 OA
HETATM    7  O3  UNL     1      22.538   3.758  51.295  1.00  0.00    -0.200 OA
BRANCH   5   8
HETATM    8  C7  UNL     1      24.660   2.400  52.164  1.00  0.00     0.080 A 
HETATM    9  C8  UNL     1      24.064   1.327  52.808  1.00  0.00     0.027 A 
HETATM   10  C9  UNL     1      24.685   0.113  52.977  1.00  0.00     0.020 A 
HETATM   11  C10 UNL     1      25.960  -0.041  52.479  1.00  0.00     0.011 A 
HETATM   12 BR1  UNL     1      26.873  -1.721  52.688  1.00  0.00    -0.051 Br
HETATM   13  C11 UNL     1      26.624   0.981  51.825  1.00  0.00     0.020 A 
HETATM   14  C12 UNL     1      25.942   2.193  51.683  1.00  0.00     0.027 A 
ENDBRANCH   5   8
ENDBRANCH   3   5
BRANCH   1  15
HETATM   15  C5  UNL     1      25.852   5.806  48.802  1.00  0.00     0.056 A 
HETATM   16  C4  UNL     1      27.210   5.602  48.689  1.00  0.00     0.019 A 
HETATM   17  C3  UNL     1      28.167   6.346  48.075  1.00  0.00     0.009 A 
HETATM   18  C2  UNL     1      27.812   7.524  47.427  1.00  0.00    -0.046 A 
HETATM   19  C1  UNL     1      28.824   8.395  46.727  1.00  0.00     0.049 C 
HETATM   20  P1  UNL     1      26.151   8.020  47.417  1.00  0.00    -0.002 P 
HETATM   21  C13 UNL     1      25.123   6.884  48.280  1.00  0.00     0.063 A 
HETATM   22 CL1  UNL     1      23.394   7.033  48.493  1.00  0.00    -0.082 Cl
ENDBRANCH   1  15
TORSDOF 3
ENDMDL
MODEL 6
REMARK VINA RESULT:      -7.3      5.207      7.635
REMARK  3 active torsions:
REMARK  status: ('A' for Active; 'I' for Inactive)
REMARK    1  A    between atoms: C5_5  and  C6_6 
REMARK       I    between atoms: C6_6  and  N1_8 
REMARK    2  A    between atoms: N1_8  and  S1_9 
REMARK    3  A    between atoms: S1_9  and  C7_12 
ROOT
HETATM    1  C6  UNL     1      24.301   0.194  52.953  1.00  0.00     0.267 C 
HETATM    2  O1  UNL     1      23.447  -0.276  53.738  1.00  0.00    -0.267 OA
HETATM    3  N1  UNL     1      23.852   0.942  51.814  1.00  0.00    -0.246 N 
HETATM    4  H6  UNL     1      24.593   1.328  51.166  1.00  0.00     0.182 HD
ENDROOT
BRANCH   3   5
HETATM    5  S1  UNL     1      22.197   1.250  51.436  1.00  0.00     0.265 S 
HETATM    6  O2  UNL     1      21.480  -0.070  51.443  1.00  0.00    -0.200 OA
HETATM    7  O3  UNL     1      21.627   2.167  52.490  1.00  0.00    -0.200 OA
BRANCH   5   8
HETATM    8  C7  UNL     1      22.016   1.975  49.859  1.00  0.00     0.080 A 
HETATM    9  C8  UNL     1      20.908   1.788  49.049  1.00  0.00     0.027 A 
HETATM   10  C9  UNL     1      20.778   2.365  47.809  1.00  0.00     0.020 A 
HETATM   11  C10 UNL     1      21.802   3.167  47.353  1.00  0.00     0.011 A 
HETATM   12 BR1  UNL     1      21.669   3.998  45.624  1.00  0.00    -0.051 Br
HETATM   13  C11 UNL     1      22.942   3.402  48.101  1.00  0.00     0.020 A 
HETATM   14  C12 UNL     1      23.017   2.789  49.355  1.00  0.00     0.027 A 
ENDBRANCH   5   8
ENDBRANCH   3   5
BRANCH   1  15
HETATM   15  C5  UNL     1      25.754   0.004  53.160  1.00  0.00     0.056 A 
HETATM   16  C4  UNL     1      26.335  -1.210  52.869  1.00  0.00     0.019 A 
HETATM   17  C3  UNL     1      27.627  -1.619  52.974  1.00  0.00     0.009 A 
HETATM   18  C2  UNL     1      28.593  -0.735  53.444  1.00  0.00    -0.046 A 
HETATM   19  C1  UNL     1      30.042  -1.124  53.585  1.00  0.00     0.049 C 
HETATM   20  P1  UNL     1      28.125   0.875  53.887  1.00  0.00    -0.002 P 
HETATM   21  C13 UNL     1      26.403   1.143  53.655  1.00  0.00     0.063 A 
HETATM   22 CL1  UNL     1      25.550   2.633  53.988  1.00  0.00    -0.082 Cl
ENDBRANCH   1  15
TORSDOF 3
ENDMDL
MODEL 7
REMARK VINA RESULT:      -7.1      2.448      2.966
REMARK  3 active torsions:
REMARK  status: ('A' for Active; 'I' for Inactive)
REMARK    1  A    between atoms: C5_5  and  C6_6 
REMARK       I    between atoms: C6_6  and  N1_8 
REMARK    2  A    between atoms: N1_8  and  S1_9 
REMARK    3  A    between atoms: S1_9  and  C7_12 
ROOT
HETATM    1  C6  UNL     1      26.175   6.404  48.909  1.00  0.00     0.267 C 
HETATM    2  O1  UNL     1      25.152   6.615  48.220  1.00  0.00    -0.267 OA
HETATM    3  N1  UNL     1      26.106   5.434  49.965  1.00  0.00    -0.246 N 
HETATM    4  H6  UNL     1      26.983   5.274  50.533  1.00  0.00     0.182 HD
ENDROOT
BRANCH   3   5
HETATM    5  S1  UNL     1      24.697   4.520  50.364  1.00  0.00     0.265 S 
HETATM    6  O2  UNL     1      23.897   5.331  51.343  1.00  0.00    -0.200 OA
HETATM    7  O3  UNL     1      23.906   4.286  49.101  1.00  0.00    -0.200 OA
BRANCH   5   8
HETATM    8  C7  UNL     1      25.104   2.993  51.101  1.00  0.00     0.080 A 
HETATM    9  C8  UNL     1      24.188   2.192  51.765  1.00  0.00     0.027 A 
HETATM   10  C9  UNL     1      24.521   0.991  52.342  1.00  0.00     0.020 A 
HETATM   11  C10 UNL     1      25.829   0.566  52.254  1.00  0.00     0.011 A 
HETATM   12 BR1  UNL     1      26.347  -1.110  53.045  1.00  0.00    -0.051 Br
HETATM   13  C11 UNL     1      26.803   1.307  51.610  1.00  0.00     0.020 A 
HETATM   14  C12 UNL     1      26.404   2.521  51.041  1.00  0.00     0.027 A 
ENDBRANCH   5   8
ENDBRANCH   3   5
BRANCH   1  15
HETATM   15  C5  UNL     1      27.449   7.119  48.674  1.00  0.00     0.056 A 
HETATM   16  C4  UNL     1      28.444   6.523  47.930  1.00  0.00     0.019 A 
HETATM   17  C3  UNL     1      29.679   6.973  47.584  1.00  0.00     0.009 A 
HETATM   18  C2  UNL     1      30.095   8.232  48.006  1.00  0.00    -0.046 A 
HETATM   19  C1  UNL     1      31.451   8.790  47.658  1.00  0.00     0.049 C 
HETATM   20  P1  UNL     1      29.025   9.202  48.965  1.00  0.00    -0.002 P 
HETATM   21  C13 UNL     1      27.497   8.387  49.268  1.00  0.00     0.063 A 
HETATM   22 CL1  UNL     1      26.163   9.036  50.194  1.00  0.00    -0.082 Cl
ENDBRANCH   1  15
TORSDOF 3
ENDMDL
MODEL 8
REMARK VINA RESULT:      -7.1      6.325      8.327
REMARK  3 active torsions:
REMARK  status: ('A' for Active; 'I' for Inactive)
REMARK    1  A    between atoms: C5_5  and  C6_6 
REMARK       I    between atoms: C6_6  and  N1_8 
REMARK    2  A    between atoms: N1_8  and  S1_9 
REMARK    3  A    between atoms: S1_9  and  C7_12 
ROOT
HETATM    1  C6  UNL     1      20.543   0.755  51.294  1.00  0.00     0.267 C 
HETATM    2  O1  UNL     1      21.361   0.234  50.504  1.00  0.00    -0.267 OA
HETATM    3  N1  UNL     1      20.887   1.998  51.922  1.00  0.00    -0.246 N 
HETATM    4  H6  UNL     1      20.179   2.417  52.586  1.00  0.00     0.182 HD
ENDROOT
BRANCH   3   5
HETATM    5  S1  UNL     1      22.368   2.847  51.666  1.00  0.00     0.265 S 
HETATM    6  O2  UNL     1      22.440   3.196  50.207  1.00  0.00    -0.200 OA
HETATM    7  O3  UNL     1      22.355   4.098  52.509  1.00  0.00    -0.200 OA
BRANCH   5   8
HETATM    8  C7  UNL     1      23.754   1.870  52.076  1.00  0.00     0.080 A 
HETATM    9  C8  UNL     1      23.729   0.863  53.027  1.00  0.00     0.027 A 
HETATM   10  C9  UNL     1      24.828   0.101  53.341  1.00  0.00     0.020 A 
HETATM   11  C10 UNL     1      26.008   0.354  52.677  1.00  0.00     0.011 A 
HETATM   12 BR1  UNL     1      27.576  -0.686  53.080  1.00  0.00    -0.051 Br
HETATM   13  C11 UNL     1      26.115   1.342  51.715  1.00  0.00     0.020 A 
HETATM   14  C12 UNL     1      24.963   2.085  51.437  1.00  0.00     0.027 A 
ENDBRANCH   5   8
ENDBRANCH   3   5
BRANCH   1  15
HETATM   15  C5  UNL     1      19.237   0.132  51.604  1.00  0.00     0.056 A 
HETATM   16  C4  UNL     1      18.172   0.308  50.748  1.00  0.00     0.019 A 
HETATM   17  C3  UNL     1      16.896  -0.155  50.818  1.00  0.00     0.009 A 
HETATM   18  C2  UNL     1      16.510  -0.947  51.894  1.00  0.00    -0.046 A 
HETATM   19  C1  UNL     1      15.112  -1.494  52.032  1.00  0.00     0.049 C 
HETATM   20  P1  UNL     1      17.668  -1.327  53.128  1.00  0.00    -0.002 P 
HETATM   21  C13 UNL     1      19.237  -0.604  52.797  1.00  0.00     0.063 A 
HETATM   22 CL1  UNL     1      20.659  -0.754  53.803  1.00  0.00    -0.082 Cl
ENDBRANCH   1  15
TORSDOF 3
ENDMDL
MODEL 9
REMARK VINA RESULT:      -7.1      3.662      4.346
REMARK  3 active torsions:
REMARK  status: ('A' for Active; 'I' for Inactive)
REMARK    1  A    between atoms: C5_5  and  C6_6 
REMARK       I    between atoms: C6_6  and  N1_8 
REMARK    2  A    between atoms: N1_8  and  S1_9 
REMARK    3  A    between atoms: S1_9  and  C7_12 
ROOT
HETATM    1  C6  UNL     1      23.686   4.682  50.773  1.00  0.00     0.267 C 
HETATM    2  O1  UNL     1      23.510   4.838  52.002  1.00  0.00    -0.267 OA
HETATM    3  N1  UNL     1      22.662   4.028  50.008  1.00  0.00    -0.246 N 
HETATM    4  H6  UNL     1      22.834   3.908  48.972  1.00  0.00     0.182 HD
ENDROOT
BRANCH   3   5
HETATM    5  S1  UNL     1      21.181   3.432  50.664  1.00  0.00     0.265 S 
HETATM    6  O2  UNL     1      20.499   4.579  51.353  1.00  0.00    -0.200 OA
HETATM    7  O3  UNL     1      20.330   2.914  49.532  1.00  0.00    -0.200 OA
BRANCH   5   8
HETATM    8  C7  UNL     1      21.454   2.163  51.829  1.00  0.00     0.080 A 
HETATM    9  C8  UNL     1      20.565   1.847  52.844  1.00  0.00     0.027 A 
HETATM   10  C9  UNL     1      20.792   0.845  53.756  1.00  0.00     0.020 A 
HETATM   11  C10 UNL     1      21.960   0.122  53.653  1.00  0.00     0.011 A 
HETATM   12 BR1  UNL     1      22.325  -1.293  54.905  1.00  0.00    -0.051 Br
HETATM   13  C11 UNL     1      22.899   0.376  52.669  1.00  0.00     0.020 A 
HETATM   14  C12 UNL     1      22.613   1.407  51.769  1.00  0.00     0.027 A 
ENDBRANCH   5   8
ENDBRANCH   3   5
BRANCH   1  15
HETATM   15  C5  UNL     1      24.911   5.145  50.083  1.00  0.00     0.056 A 
HETATM   16  C4  UNL     1      25.876   4.236  49.712  1.00  0.00     0.019 A 
HETATM   17  C3  UNL     1      27.065   4.418  49.080  1.00  0.00     0.009 A 
HETATM   18  C2  UNL     1      27.457   5.699  48.707  1.00  0.00    -0.046 A 
HETATM   19  C1  UNL     1      28.762   5.970  48.003  1.00  0.00     0.049 C 
HETATM   20  P1  UNL     1      26.416   7.041  49.058  1.00  0.00    -0.002 P 
HETATM   21  C13 UNL     1      24.946   6.532  49.878  1.00  0.00     0.063 A 
HETATM   22 CL1  UNL     1      23.653   7.587  50.399  1.00  0.00    -0.082 Cl
ENDBRANCH   1  15
TORSDOF 3
ENDMDL
