MODEL 1
REMARK VINA RESULT:     -10.0      0.000      0.000
REMARK  3 active torsions:
REMARK  status: ('A' for Active; 'I' for Inactive)
REMARK    1  A    between atoms: C2_2  and  C3_3 
REMARK    2  A    between atoms: C3_3  and  N1_5 
REMARK    3  A    between atoms: C10_11  and  C11_12 
ROOT
HETATM    1  N1  UNL     1      22.108   0.427  52.330  1.00  0.00    -0.367 N 
HETATM    2  C5  UNL     1      21.820   1.237  51.095  1.00  0.00     0.029 C 
HETATM    3  C6  UNL     1      22.681   2.294  51.176  1.00  0.00    -0.021 C 
HETATM    4  C7  UNL     1      23.023   2.333  52.662  1.00  0.00     0.070 C 
HETATM    5  C8  UNL     1      23.474   0.947  52.652  1.00  0.00     0.112 C 
HETATM    6  C9  UNL     1      24.373   0.289  53.473  1.00  0.00     0.004 C 
HETATM    7  C10 UNL     1      25.704   0.691  53.302  1.00  0.00    -0.053 C 
HETATM    8  C16 UNL     1      26.045   1.871  52.512  1.00  0.00     0.038 C 
HETATM    9  C17 UNL     1      26.698   1.802  51.192  1.00  0.00     0.035 C 
HETATM   10  C18 UNL     1      26.759   3.228  50.539  1.00  0.00     0.276 C 
HETATM   11  N2  UNL     1      25.418   3.829  50.671  1.00  0.00     0.091 N 
HETATM   12  C19 UNL     1      23.988   4.020  50.569  1.00  0.00     0.383 A 
HETATM   13  O2  UNL     1      24.734   3.028  50.139  1.00  0.00    -0.145 OA
HETATM   14  C20 UNL     1      23.012   3.132  49.984  1.00  0.00     0.029 C 
HETATM   15  C21 UNL     1      22.199   2.464  49.242  1.00  0.00    -0.034 C 
HETATM   16  C22 UNL     1      22.071   2.816  47.841  1.00  0.00     0.180 C 
HETATM   17  N3  UNL     1      20.615   3.154  47.662  1.00  0.00    -0.306 N 
HETATM   18  C23 UNL     1      20.423   3.518  46.283  1.00  0.00     0.173 C 
HETATM   19  N4  UNL     1      19.728   3.073  48.773  1.00  0.00    -0.193 NA
HETATM   20  C24 UNL     1      19.954   2.271  49.793  1.00  0.00     0.126 C 
HETATM   21  C25 UNL     1      21.160   1.455  49.751  1.00  0.00     0.109 C 
HETATM   22  H27 UNL     1      25.506   4.789  51.201  1.00  0.00     0.322 HD
ENDROOT
BRANCH   7  23
HETATM   23  C11 UNL     1      26.701  -0.045  54.178  1.00  0.00     0.150 C 
HETATM   24  C12 UNL     1      27.375  -1.181  53.504  1.00  0.00     0.036 C 
HETATM   25  C13 UNL     1      28.800  -0.991  53.108  1.00  0.00     0.005 C 
HETATM   26  C14 UNL     1      29.539   0.035  53.888  1.00  0.00     0.026 C 
HETATM   27  C15 UNL     1      28.733   1.086  54.555  1.00  0.00     0.168 C 
HETATM   28  O1  UNL     1      27.472   0.788  54.933  1.00  0.00    -0.382 OA
ENDBRANCH   7  23
BRANCH   1  29
HETATM   29  C3  UNL     1      21.093  -0.473  52.734  1.00  0.00     0.103 C 
HETATM   30  C4  UNL     1      19.694   0.070  52.546  1.00  0.00     0.037 C 
BRANCH  29  31
HETATM   31  C2  UNL     1      21.304  -0.956  54.102  1.00  0.00    -0.012 C 
HETATM   32  C1  UNL     1      21.915  -1.942  54.750  1.00  0.00     0.009 C 
ENDBRANCH  29  31
ENDBRANCH   1  29
TORSDOF 3
ENDMDL
MODEL 2
REMARK VINA RESULT:      -9.0      1.611      2.181
REMARK  3 active torsions:
REMARK  status: ('A' for Active; 'I' for Inactive)
REMARK    1  A    between atoms: C2_2  and  C3_3 
REMARK    2  A    between atoms: C3_3  and  N1_5 
REMARK    3  A    between atoms: C10_11  and  C11_12 
ROOT
HETATM    1  N1  UNL     1      21.652   2.218  51.497  1.00  0.00    -0.367 N 
HETATM    2  C5  UNL     1      21.534   2.727  50.087  1.00  0.00     0.029 C 
HETATM    3  C6  UNL     1      22.542   3.642  49.973  1.00  0.00    -0.021 C 
HETATM    4  C7  UNL     1      22.832   4.003  51.426  1.00  0.00     0.070 C 
HETATM    5  C8  UNL     1      23.069   2.610  51.782  1.00  0.00     0.112 C 
HETATM    6  C9  UNL     1      23.827   2.059  52.801  1.00  0.00     0.004 C 
HETATM    7  C10 UNL     1      25.209   2.218  52.634  1.00  0.00    -0.053 C 
HETATM    8  C16 UNL     1      25.753   3.106  51.611  1.00  0.00     0.038 C 
HETATM    9  C17 UNL     1      26.435   2.621  50.396  1.00  0.00     0.035 C 
HETATM   10  C18 UNL     1      26.735   3.817  49.426  1.00  0.00     0.276 C 
HETATM   11  N2  UNL     1      25.496   4.611  49.312  1.00  0.00     0.091 N 
HETATM   12  C19 UNL     1      24.116   4.966  49.063  1.00  0.00     0.383 A 
HETATM   13  O2  UNL     1      24.718   3.805  48.940  1.00  0.00    -0.145 OA
HETATM   14  C20 UNL     1      23.039   4.103  48.640  1.00  0.00     0.029 C 
HETATM   15  C21 UNL     1      22.162   3.390  48.024  1.00  0.00    -0.034 C 
HETATM   16  C22 UNL     1      22.139   3.396  46.574  1.00  0.00     0.180 C 
HETATM   17  N3  UNL     1      20.758   3.876  46.215  1.00  0.00    -0.306 N 
HETATM   18  C23 UNL     1      20.673   3.909  44.778  1.00  0.00     0.173 C 
HETATM   19  N4  UNL     1      19.830   4.198  47.245  1.00  0.00    -0.193 NA
HETATM   20  C24 UNL     1      19.894   3.652  48.442  1.00  0.00     0.126 C 
HETATM   21  C25 UNL     1      20.964   2.693  48.685  1.00  0.00     0.109 C 
HETATM   22  H27 UNL     1      25.710   5.651  49.600  1.00  0.00     0.322 HD
ENDROOT
BRANCH   7  23
HETATM   23  C11 UNL     1      26.051   1.593  53.732  1.00  0.00     0.150 C 
HETATM   24  C12 UNL     1      26.319   0.147  53.539  1.00  0.00     0.036 C 
HETATM   25  C13 UNL     1      27.695  -0.241  53.114  1.00  0.00     0.005 C 
HETATM   26  C14 UNL     1      28.759   0.736  53.459  1.00  0.00     0.026 C 
HETATM   27  C15 UNL     1      28.341   2.142  53.675  1.00  0.00     0.168 C 
HETATM   28  O1  UNL     1      27.091   2.381  54.127  1.00  0.00    -0.382 OA
ENDBRANCH   7  23
BRANCH   1  29
HETATM   29  C3  UNL     1      20.499   1.597  52.032  1.00  0.00     0.103 C 
HETATM   30  C4  UNL     1      20.200   0.246  51.420  1.00  0.00     0.037 C 
BRANCH  29  31
HETATM   31  C2  UNL     1      19.330   2.480  51.985  1.00  0.00    -0.012 C 
HETATM   32  C1  UNL     1      18.096   2.510  51.494  1.00  0.00     0.009 C 
ENDBRANCH  29  31
ENDBRANCH   1  29
TORSDOF 3
ENDMDL
MODEL 3
REMARK VINA RESULT:      -9.0      2.635      6.857
REMARK  3 active torsions:
REMARK  status: ('A' for Active; 'I' for Inactive)
REMARK    1  A    between atoms: C2_2  and  C3_3 
REMARK    2  A    between atoms: C3_3  and  N1_5 
REMARK    3  A    between atoms: C10_11  and  C11_12 
ROOT
HETATM    1  N1  UNL     1      22.857   1.707  52.549  1.00  0.00    -0.367 N 
HETATM    2  C5  UNL     1      24.331   1.417  52.628  1.00  0.00     0.029 C 
HETATM    3  C6  UNL     1      24.838   1.922  51.466  1.00  0.00    -0.021 C 
HETATM    4  C7  UNL     1      23.609   1.984  50.564  1.00  0.00     0.070 C 
HETATM    5  C8  UNL     1      22.877   2.799  51.525  1.00  0.00     0.112 C 
HETATM    6  C9  UNL     1      21.838   3.694  51.337  1.00  0.00     0.004 C 
HETATM    7  C10 UNL     1      22.210   4.869  50.670  1.00  0.00    -0.053 C 
HETATM    8  C16 UNL     1      23.513   4.995  50.024  1.00  0.00     0.038 C 
HETATM    9  C17 UNL     1      24.595   5.854  50.540  1.00  0.00     0.035 C 
HETATM   10  C18 UNL     1      25.912   5.624  49.719  1.00  0.00     0.276 C 
HETATM   11  N2  UNL     1      26.112   4.166  49.610  1.00  0.00     0.091 N 
HETATM   12  C19 UNL     1      26.289   2.778  49.976  1.00  0.00     0.383 A 
HETATM   13  O2  UNL     1      26.125   3.833  50.742  1.00  0.00    -0.145 OA
HETATM   14  C20 UNL     1      26.297   2.202  51.299  1.00  0.00     0.029 C 
HETATM   15  C21 UNL     1      26.557   1.745  52.475  1.00  0.00    -0.034 C 
HETATM   16  C22 UNL     1      27.926   1.761  52.952  1.00  0.00     0.180 C 
HETATM   17  N3  UNL     1      28.246   0.320  53.249  1.00  0.00    -0.306 N 
HETATM   18  C23 UNL     1      29.603   0.269  53.726  1.00  0.00     0.173 C 
HETATM   19  N4  UNL     1      27.259  -0.682  53.035  1.00  0.00    -0.193 NA
HETATM   20  C24 UNL     1      25.970  -0.417  53.079  1.00  0.00     0.126 C 
HETATM   21  C25 UNL     1      25.576   0.958  53.357  1.00  0.00     0.109 C 
HETATM   22  H27 UNL     1      26.183   3.892  48.547  1.00  0.00     0.322 HD
ENDROOT
BRANCH   7  23
HETATM   23  C11 UNL     1      21.084   5.870  50.484  1.00  0.00     0.150 C 
HETATM   24  C12 UNL     1      21.451   7.264  50.829  1.00  0.00     0.036 C 
HETATM   25  C13 UNL     1      21.654   8.216  49.700  1.00  0.00     0.005 C 
HETATM   26  C14 UNL     1      20.954   7.857  48.440  1.00  0.00     0.026 C 
HETATM   27  C15 UNL     1      20.600   6.429  48.247  1.00  0.00     0.168 C 
HETATM   28  O1  UNL     1      20.371   5.670  49.339  1.00  0.00    -0.382 OA
ENDBRANCH   7  23
BRANCH   1  29
HETATM   29  C3  UNL     1      22.024   0.930  53.388  1.00  0.00     0.103 C 
HETATM   30  C4  UNL     1      22.350  -0.546  53.365  1.00  0.00     0.037 C 
BRANCH  29  31
HETATM   31  C2  UNL     1      20.602   1.173  53.124  1.00  0.00    -0.012 C 
HETATM   32  C1  UNL     1      19.636   0.768  52.307  1.00  0.00     0.009 C 
ENDBRANCH  29  31
ENDBRANCH   1  29
TORSDOF 3
ENDMDL
MODEL 4
REMARK VINA RESULT:      -9.0      2.283      7.633
REMARK  3 active torsions:
REMARK  status: ('A' for Active; 'I' for Inactive)
REMARK    1  A    between atoms: C2_2  and  C3_3 
REMARK    2  A    between atoms: C3_3  and  N1_5 
REMARK    3  A    between atoms: C10_11  and  C11_12 
ROOT
HETATM    1  N1  UNL     1      24.635   3.299  50.870  1.00  0.00    -0.367 N 
HETATM    2  C5  UNL     1      25.620   2.405  51.571  1.00  0.00     0.029 C 
HETATM    3  C6  UNL     1      24.897   1.825  52.574  1.00  0.00    -0.021 C 
HETATM    4  C7  UNL     1      23.723   2.786  52.738  1.00  0.00     0.070 C 
HETATM    5  C8  UNL     1      23.358   2.667  51.332  1.00  0.00     0.112 C 
HETATM    6  C9  UNL     1      22.140   2.849  50.701  1.00  0.00     0.004 C 
HETATM    7  C10 UNL     1      21.190   1.863  50.998  1.00  0.00    -0.053 C 
HETATM    8  C16 UNL     1      21.409   0.897  52.070  1.00  0.00     0.038 C 
HETATM    9  C17 UNL     1      21.691  -0.531  51.830  1.00  0.00     0.035 C 
HETATM   10  C18 UNL     1      22.052  -1.249  53.178  1.00  0.00     0.276 C 
HETATM   11  N2  UNL     1      23.043  -0.406  53.874  1.00  0.00     0.091 N 
HETATM   12  C19 UNL     1      24.243   0.355  54.145  1.00  0.00     0.383 A 
HETATM   13  O2  UNL     1      23.902  -0.319  53.069  1.00  0.00    -0.145 OA
HETATM   14  C20 UNL     1      25.365   0.586  53.268  1.00  0.00     0.029 C 
HETATM   15  C21 UNL     1      26.456   0.570  52.583  1.00  0.00    -0.034 C 
HETATM   16  C22 UNL     1      27.411  -0.498  52.803  1.00  0.00     0.180 C 
HETATM   17  N3  UNL     1      28.680   0.201  53.214  1.00  0.00    -0.306 N 
HETATM   18  C23 UNL     1      29.673  -0.813  53.452  1.00  0.00     0.173 C 
HETATM   19  N4  UNL     1      28.709   1.621  53.300  1.00  0.00    -0.193 NA
HETATM   20  C24 UNL     1      27.904   2.383  52.590  1.00  0.00     0.126 C 
HETATM   21  C25 UNL     1      26.963   1.718  51.698  1.00  0.00     0.109 C 
HETATM   22  H27 UNL     1      22.659  -0.154  54.874  1.00  0.00     0.322 HD
ENDROOT
BRANCH   7  23
HETATM   23  C11 UNL     1      19.859   2.039  50.290  1.00  0.00     0.150 C 
HETATM   24  C12 UNL     1      18.931   0.893  50.454  1.00  0.00     0.036 C 
HETATM   25  C13 UNL     1      17.768   1.082  51.367  1.00  0.00     0.005 C 
HETATM   26  C14 UNL     1      17.348   2.493  51.568  1.00  0.00     0.026 C 
HETATM   27  C15 UNL     1      18.366   3.542  51.319  1.00  0.00     0.168 C 
HETATM   28  O1  UNL     1      19.342   3.293  50.420  1.00  0.00    -0.382 OA
ENDBRANCH   7  23
BRANCH   1  29
HETATM   29  C3  UNL     1      25.187   4.337  50.082  1.00  0.00     0.103 C 
HETATM   30  C4  UNL     1      24.229   4.888  49.050  1.00  0.00     0.037 C 
BRANCH  29  31
HETATM   31  C2  UNL     1      26.464   3.944  49.477  1.00  0.00    -0.012 C 
HETATM   32  C1  UNL     1      27.498   4.484  48.844  1.00  0.00     0.009 C 
ENDBRANCH  29  31
ENDBRANCH   1  29
TORSDOF 3
ENDMDL
MODEL 5
REMARK VINA RESULT:      -8.9      2.383      6.802
REMARK  3 active torsions:
REMARK  status: ('A' for Active; 'I' for Inactive)
REMARK    1  A    between atoms: C2_2  and  C3_3 
REMARK    2  A    between atoms: C3_3  and  N1_5 
REMARK    3  A    between atoms: C10_11  and  C11_12 
ROOT
HETATM    1  N1  UNL     1      22.176   0.507  52.727  1.00  0.00    -0.367 N 
HETATM    2  C5  UNL     1      23.670   0.672  52.792  1.00  0.00     0.029 C 
HETATM    3  C6  UNL     1      23.964   1.505  51.751  1.00  0.00    -0.021 C 
HETATM    4  C7  UNL     1      22.748   1.347  50.843  1.00  0.00     0.070 C 
HETATM    5  C8  UNL     1      21.831   1.715  51.913  1.00  0.00     0.112 C 
HETATM    6  C9  UNL     1      20.563   2.268  51.860  1.00  0.00     0.004 C 
HETATM    7  C10 UNL     1      20.537   3.599  51.422  1.00  0.00    -0.053 C 
HETATM    8  C16 UNL     1      21.719   4.230  50.842  1.00  0.00     0.038 C 
HETATM    9  C17 UNL     1      22.502   5.273  51.530  1.00  0.00     0.035 C 
HETATM   10  C18 UNL     1      23.802   5.606  50.716  1.00  0.00     0.276 C 
HETATM   11  N2  UNL     1      24.435   4.323  50.356  1.00  0.00     0.091 N 
HETATM   12  C19 UNL     1      25.038   3.013  50.475  1.00  0.00     0.383 A 
HETATM   13  O2  UNL     1      24.582   3.815  51.411  1.00  0.00    -0.145 OA
HETATM   14  C20 UNL     1      25.262   2.244  51.675  1.00  0.00     0.029 C 
HETATM   15  C21 UNL     1      25.683   1.688  52.757  1.00  0.00    -0.034 C 
HETATM   16  C22 UNL     1      26.996   2.038  53.265  1.00  0.00     0.180 C 
HETATM   17  N3  UNL     1      27.749   0.736  53.310  1.00  0.00    -0.306 N 
HETATM   18  C23 UNL     1      29.071   1.019  53.805  1.00  0.00     0.173 C 
HETATM   19  N4  UNL     1      27.110  -0.467  52.896  1.00  0.00    -0.193 NA
HETATM   20  C24 UNL     1      25.804  -0.621  52.952  1.00  0.00     0.126 C 
HETATM   21  C25 UNL     1      25.017   0.496  53.459  1.00  0.00     0.109 C 
HETATM   22  H27 UNL     1      24.553   4.276  49.263  1.00  0.00     0.322 HD
ENDROOT
BRANCH   7  23
HETATM   23  C11 UNL     1      19.154   4.223  51.387  1.00  0.00     0.150 C 
HETATM   24  C12 UNL     1      18.793   4.819  50.077  1.00  0.00     0.036 C 
HETATM   25  C13 UNL     1      17.807   4.079  49.239  1.00  0.00     0.005 C 
HETATM   26  C14 UNL     1      16.899   3.173  49.989  1.00  0.00     0.026 C 
HETATM   27  C15 UNL     1      17.366   2.691  51.311  1.00  0.00     0.168 C 
HETATM   28  O1  UNL     1      18.209   3.472  52.020  1.00  0.00    -0.382 OA
ENDBRANCH   7  23
BRANCH   1  29
HETATM   29  C3  UNL     1      21.646  -0.623  53.393  1.00  0.00     0.103 C 
HETATM   30  C4  UNL     1      20.136  -0.700  53.346  1.00  0.00     0.037 C 
BRANCH  29  31
HETATM   31  C2  UNL     1      22.148  -0.734  54.766  1.00  0.00    -0.012 C 
HETATM   32  C1  UNL     1      22.900  -1.535  55.513  1.00  0.00     0.009 C 
ENDBRANCH  29  31
ENDBRANCH   1  29
TORSDOF 3
ENDMDL
MODEL 6
REMARK VINA RESULT:      -8.8      1.826      4.317
REMARK  3 active torsions:
REMARK  status: ('A' for Active; 'I' for Inactive)
REMARK    1  A    between atoms: C2_2  and  C3_3 
REMARK    2  A    between atoms: C3_3  and  N1_5 
REMARK    3  A    between atoms: C10_11  and  C11_12 
ROOT
HETATM    1  N1  UNL     1      23.770   3.916  51.359  1.00  0.00    -0.367 N 
HETATM    2  C5  UNL     1      22.294   3.777  51.105  1.00  0.00     0.029 C 
HETATM    3  C6  UNL     1      22.087   2.428  51.048  1.00  0.00    -0.021 C 
HETATM    4  C7  UNL     1      23.480   1.890  50.736  1.00  0.00     0.070 C 
HETATM    5  C8  UNL     1      24.057   2.550  51.900  1.00  0.00     0.112 C 
HETATM    6  C9  UNL     1      25.182   2.240  52.644  1.00  0.00     0.004 C 
HETATM    7  C10 UNL     1      25.057   1.072  53.408  1.00  0.00    -0.053 C 
HETATM    8  C16 UNL     1      23.935   0.157  53.219  1.00  0.00     0.038 C 
HETATM    9  C17 UNL     1      22.843  -0.000  54.197  1.00  0.00     0.035 C 
HETATM   10  C18 UNL     1      21.714  -0.920  53.610  1.00  0.00     0.276 C 
HETATM   11  N2  UNL     1      21.423  -0.440  52.246  1.00  0.00     0.091 N 
HETATM   12  C19 UNL     1      21.059   0.431  51.150  1.00  0.00     0.383 A 
HETATM   13  O2  UNL     1      21.144   0.691  52.435  1.00  0.00    -0.145 OA
HETATM   14  C20 UNL     1      20.724   1.833  51.203  1.00  0.00     0.029 C 
HETATM   15  C21 UNL     1      20.185   2.999  51.295  1.00  0.00    -0.034 C 
HETATM   16  C22 UNL     1      18.752   3.101  51.492  1.00  0.00     0.180 C 
HETATM   17  N3  UNL     1      18.260   3.902  50.316  1.00  0.00    -0.306 N 
HETATM   18  C23 UNL     1      16.833   4.035  50.452  1.00  0.00     0.173 C 
HETATM   19  N4  UNL     1      19.184   4.364  49.337  1.00  0.00    -0.193 NA
HETATM   20  C24 UNL     1      20.452   4.581  49.618  1.00  0.00     0.126 C 
HETATM   21  C25 UNL     1      20.890   4.329  50.985  1.00  0.00     0.109 C 
HETATM   22  H27 UNL     1      21.556  -1.272  51.538  1.00  0.00     0.322 HD
ENDROOT
BRANCH   7  23
HETATM   23  C11 UNL     1      26.276   0.738  54.249  1.00  0.00     0.150 C 
HETATM   24  C12 UNL     1      26.950  -0.525  53.861  1.00  0.00     0.036 C 
HETATM   25  C13 UNL     1      28.248  -0.411  53.136  1.00  0.00     0.005 C 
HETATM   26  C14 UNL     1      28.985   0.859  53.362  1.00  0.00     0.026 C 
HETATM   27  C15 UNL     1      28.191   2.033  53.798  1.00  0.00     0.168 C 
HETATM   28  O1  UNL     1      27.063   1.820  54.509  1.00  0.00    -0.382 OA
ENDBRANCH   7  23
BRANCH   1  29
HETATM   29  C3  UNL     1      24.341   5.171  51.037  1.00  0.00     0.103 C 
HETATM   30  C4  UNL     1      23.365   6.322  51.134  1.00  0.00     0.037 C 
BRANCH  29  31
HETATM   31  C2  UNL     1      25.018   5.147  49.737  1.00  0.00    -0.012 C 
HETATM   32  C1  UNL     1      26.141   4.704  49.183  1.00  0.00     0.009 C 
ENDBRANCH  29  31
ENDBRANCH   1  29
TORSDOF 3
ENDMDL
MODEL 7
REMARK VINA RESULT:      -8.5      7.540     10.173
REMARK  3 active torsions:
REMARK  status: ('A' for Active; 'I' for Inactive)
REMARK    1  A    between atoms: C2_2  and  C3_3 
REMARK    2  A    between atoms: C3_3  and  N1_5 
REMARK    3  A    between atoms: C10_11  and  C11_12 
ROOT
HETATM    1  N1  UNL     1      28.402   6.765  48.204  1.00  0.00    -0.367 N 
HETATM    2  C5  UNL     1      28.347   8.256  48.016  1.00  0.00     0.029 C 
HETATM    3  C6  UNL     1      29.630   8.671  48.229  1.00  0.00    -0.021 C 
HETATM    4  C7  UNL     1      30.224   7.520  49.035  1.00  0.00     0.070 C 
HETATM    5  C8  UNL     1      29.870   6.547  48.010  1.00  0.00     0.112 C 
HETATM    6  C9  UNL     1      30.429   5.318  47.707  1.00  0.00     0.004 C 
HETATM    7  C10 UNL     1      31.711   5.396  47.145  1.00  0.00    -0.053 C 
HETATM    8  C16 UNL     1      32.458   6.651  47.132  1.00  0.00     0.038 C 
HETATM    9  C17 UNL     1      32.706   7.434  45.907  1.00  0.00     0.035 C 
HETATM   10  C18 UNL     1      33.377   8.807  46.266  1.00  0.00     0.276 C 
HETATM   11  N2  UNL     1      32.606   9.396  47.378  1.00  0.00     0.091 N 
HETATM   12  C19 UNL     1      31.500   9.918  48.151  1.00  0.00     0.383 A 
HETATM   13  O2  UNL     1      31.515   9.436  46.928  1.00  0.00    -0.145 OA
HETATM   14  C20 UNL     1      30.113  10.009  47.767  1.00  0.00     0.029 C 
HETATM   15  C21 UNL     1      28.944  10.319  47.324  1.00  0.00    -0.034 C 
HETATM   16  C22 UNL     1      28.749  11.606  46.685  1.00  0.00     0.180 C 
HETATM   17  N3  UNL     1      27.684  12.283  47.506  1.00  0.00    -0.306 N 
HETATM   18  C23 UNL     1      27.447  13.578  46.922  1.00  0.00     0.173 C 
HETATM   19  N4  UNL     1      27.123  11.613  48.629  1.00  0.00    -0.193 NA
HETATM   20  C24 UNL     1      27.088  10.300  48.717  1.00  0.00     0.126 C 
HETATM   21  C25 UNL     1      27.652   9.538  47.609  1.00  0.00     0.109 C 
HETATM   22  H27 UNL     1      33.286   9.593  48.220  1.00  0.00     0.322 HD
ENDROOT
BRANCH   7  23
HETATM   23  C11 UNL     1      32.322   4.055  46.783  1.00  0.00     0.150 C 
HETATM   24  C12 UNL     1      32.941   4.017  45.436  1.00  0.00     0.036 C 
HETATM   25  C13 UNL     1      34.431   4.018  45.369  1.00  0.00     0.005 C 
HETATM   26  C14 UNL     1      35.115   3.506  46.584  1.00  0.00     0.026 C 
HETATM   27  C15 UNL     1      34.358   3.558  47.858  1.00  0.00     0.168 C 
HETATM   28  O1  UNL     1      33.011   3.483  47.810  1.00  0.00    -0.382 OA
ENDBRANCH   7  23
BRANCH   1  29
HETATM   29  C3  UNL     1      27.167   6.127  48.473  1.00  0.00     0.103 C 
HETATM   30  C4  UNL     1      26.310   6.865  49.476  1.00  0.00     0.037 C 
BRANCH  29  31
HETATM   31  C2  UNL     1      27.349   4.721  48.849  1.00  0.00    -0.012 C 
HETATM   32  C1  UNL     1      26.687   3.732  49.438  1.00  0.00     0.009 C 
ENDBRANCH  29  31
ENDBRANCH   1  29
TORSDOF 3
ENDMDL
MODEL 8
REMARK VINA RESULT:      -8.2      3.118      7.061
REMARK  3 active torsions:
REMARK  status: ('A' for Active; 'I' for Inactive)
REMARK    1  A    between atoms: C2_2  and  C3_3 
REMARK    2  A    between atoms: C3_3  and  N1_5 
REMARK    3  A    between atoms: C10_11  and  C11_12 
ROOT
HETATM    1  N1  UNL     1      21.934   3.129  50.591  1.00  0.00    -0.367 N 
HETATM    2  C5  UNL     1      23.123   2.551  51.309  1.00  0.00     0.029 C 
HETATM    3  C6  UNL     1      24.166   2.750  50.450  1.00  0.00    -0.021 C 
HETATM    4  C7  UNL     1      23.464   2.927  49.108  1.00  0.00     0.070 C 
HETATM    5  C8  UNL     1      22.643   4.018  49.618  1.00  0.00     0.112 C 
HETATM    6  C9  UNL     1      22.035   5.070  48.956  1.00  0.00     0.004 C 
HETATM    7  C10 UNL     1      22.931   6.022  48.451  1.00  0.00    -0.053 C 
HETATM    8  C16 UNL     1      24.369   5.768  48.418  1.00  0.00     0.038 C 
HETATM    9  C17 UNL     1      25.333   6.451  49.301  1.00  0.00     0.035 C 
HETATM   10  C18 UNL     1      26.762   5.823  49.136  1.00  0.00     0.276 C 
HETATM   11  N2  UNL     1      26.607   4.357  49.202  1.00  0.00     0.091 N 
HETATM   12  C19 UNL     1      26.260   3.038  49.682  1.00  0.00     0.383 A 
HETATM   13  O2  UNL     1      26.078   4.210  50.246  1.00  0.00    -0.145 OA
HETATM   14  C20 UNL     1      25.588   2.688  50.910  1.00  0.00     0.029 C 
HETATM   15  C21 UNL     1      25.226   2.376  52.106  1.00  0.00    -0.034 C 
HETATM   16  C22 UNL     1      26.242   2.179  53.122  1.00  0.00     0.180 C 
HETATM   17  N3  UNL     1      26.034   0.769  53.603  1.00  0.00    -0.306 N 
HETATM   18  C23 UNL     1      27.023   0.509  54.617  1.00  0.00     0.173 C 
HETATM   19  N4  UNL     1      24.995  -0.025  53.041  1.00  0.00    -0.193 NA
HETATM   20  C24 UNL     1      23.912   0.508  52.515  1.00  0.00     0.126 C 
HETATM   21  C25 UNL     1      23.808   1.961  52.524  1.00  0.00     0.109 C 
HETATM   22  H27 UNL     1      27.026   3.912  48.287  1.00  0.00     0.322 HD
ENDROOT
BRANCH   7  23
HETATM   23  C11 UNL     1      22.273   7.194  47.747  1.00  0.00     0.150 C 
HETATM   24  C12 UNL     1      22.210   8.431  48.563  1.00  0.00     0.036 C 
HETATM   25  C13 UNL     1      23.145   9.535  48.201  1.00  0.00     0.005 C 
HETATM   26  C14 UNL     1      23.618   9.523  46.793  1.00  0.00     0.026 C 
HETATM   27  C15 UNL     1      23.579   8.224  46.079  1.00  0.00     0.168 C 
HETATM   28  O1  UNL     1      22.647   7.317  46.442  1.00  0.00    -0.382 OA
ENDBRANCH   7  23
BRANCH   1  29
HETATM   29  C3  UNL     1      20.665   2.685  51.034  1.00  0.00     0.103 C 
HETATM   30  C4  UNL     1      20.306   3.168  52.421  1.00  0.00     0.037 C 
BRANCH  29  31
HETATM   31  C2  UNL     1      20.521   1.231  50.915  1.00  0.00    -0.012 C 
HETATM   32  C1  UNL     1      19.975   0.207  51.560  1.00  0.00     0.009 C 
ENDBRANCH  29  31
ENDBRANCH   1  29
TORSDOF 3
ENDMDL
MODEL 9
REMARK VINA RESULT:      -8.1      5.768      9.666
REMARK  3 active torsions:
REMARK  status: ('A' for Active; 'I' for Inactive)
REMARK    1  A    between atoms: C2_2  and  C3_3 
REMARK    2  A    between atoms: C3_3  and  N1_5 
REMARK    3  A    between atoms: C10_11  and  C11_12 
ROOT
HETATM    1  N1  UNL     1      29.762   6.108  48.254  1.00  0.00    -0.367 N 
HETATM    2  C5  UNL     1      29.782   7.607  48.377  1.00  0.00     0.029 C 
HETATM    3  C6  UNL     1      28.507   7.987  48.070  1.00  0.00    -0.021 C 
HETATM    4  C7  UNL     1      27.981   6.790  47.284  1.00  0.00     0.070 C 
HETATM    5  C8  UNL     1      28.289   5.871  48.371  1.00  0.00     0.112 C 
HETATM    6  C9  UNL     1      27.733   4.646  48.698  1.00  0.00     0.004 C 
HETATM    7  C10 UNL     1      26.419   4.726  49.179  1.00  0.00    -0.053 C 
HETATM    8  C16 UNL     1      25.652   5.965  49.091  1.00  0.00     0.038 C 
HETATM    9  C17 UNL     1      25.318   6.798  50.261  1.00  0.00     0.035 C 
HETATM   10  C18 UNL     1      24.648   8.140  49.801  1.00  0.00     0.276 C 
HETATM   11  N2  UNL     1      25.474   8.692  48.711  1.00  0.00     0.091 N 
HETATM   12  C19 UNL     1      26.615   9.200  47.981  1.00  0.00     0.383 A 
HETATM   13  O2  UNL     1      26.535   8.774  49.221  1.00  0.00    -0.145 OA
HETATM   14  C20 UNL     1      27.976   9.335  48.441  1.00  0.00     0.029 C 
HETATM   15  C21 UNL     1      29.111   9.686  48.937  1.00  0.00    -0.034 C 
HETATM   16  C22 UNL     1      29.247  11.005  49.526  1.00  0.00     0.180 C 
HETATM   17  N3  UNL     1      30.347  11.664  48.739  1.00  0.00    -0.306 N 
HETATM   18  C23 UNL     1      30.528  12.988  49.276  1.00  0.00     0.173 C 
HETATM   19  N4  UNL     1      30.985  10.956  47.683  1.00  0.00    -0.193 NA
HETATM   20  C24 UNL     1      31.046   9.641  47.658  1.00  0.00     0.126 C 
HETATM   21  C25 UNL     1      30.430   8.919  48.764  1.00  0.00     0.109 C 
HETATM   22  H27 UNL     1      24.843   8.839  47.822  1.00  0.00     0.322 HD
ENDROOT
BRANCH   7  23
HETATM   23  C11 UNL     1      25.810   3.391  49.566  1.00  0.00     0.150 C 
HETATM   24  C12 UNL     1      26.514   2.703  50.676  1.00  0.00     0.036 C 
HETATM   25  C13 UNL     1      25.845   2.695  52.008  1.00  0.00     0.005 C 
HETATM   26  C14 UNL     1      24.370   2.861  51.972  1.00  0.00     0.026 C 
HETATM   27  C15 UNL     1      23.793   3.522  50.777  1.00  0.00     0.168 C 
HETATM   28  O1  UNL     1      24.447   3.411  49.601  1.00  0.00    -0.382 OA
ENDBRANCH   7  23
BRANCH   1  29
HETATM   29  C3  UNL     1      31.021   5.482  48.088  1.00  0.00     0.103 C 
HETATM   30  C4  UNL     1      31.939   5.643  49.279  1.00  0.00     0.037 C 
BRANCH  29  31
HETATM   31  C2  UNL     1      31.676   5.892  46.843  1.00  0.00    -0.012 C 
HETATM   32  C1  UNL     1      32.837   5.757  46.211  1.00  0.00     0.009 C 
ENDBRANCH  29  31
ENDBRANCH   1  29
TORSDOF 3
ENDMDL
