MODEL 1
REMARK VINA RESULT:      -6.5      0.000      0.000
REMARK  4 active torsions:
REMARK  status: ('A' for Active; 'I' for Inactive)
REMARK    1  A    between atoms: C3_4  and  N2_5 
REMARK    2  A    between atoms: C4_6  and  C5_7 
REMARK    3  A    between atoms: C5_7  and  C6_8 
REMARK    4  A    between atoms: N3_11  and  C9_12 
ROOT
HETATM    1  N1  UNL     1      15.705   3.507  49.745  1.00  0.00    -0.192 NA
HETATM    2  C1  UNL     1      16.539   3.539  50.548  1.00  0.00     0.089 C 
HETATM    3  C2  UNL     1      17.577   3.559  51.546  1.00  0.00     0.112 C 
HETATM    4  C3  UNL     1      18.689   2.838  51.439  1.00  0.00     0.126 C 
ENDROOT
BRANCH   4   5
HETATM    5  N2  UNL     1      19.657   2.918  52.467  1.00  0.00    -0.277 NA
HETATM    6  C4  UNL     1      20.821   2.381  52.416  1.00  0.00     0.090 C 
BRANCH   6   7
HETATM    7  C5  UNL     1      21.275   1.607  51.254  1.00  0.00     0.057 C 
BRANCH   7   8
HETATM    8  C6  UNL     1      22.508   0.783  51.541  1.00  0.00     0.033 C 
HETATM    9  C7  UNL     1      22.310  -0.124  52.701  1.00  0.00    -0.003 C 
HETATM   10  C8  UNL     1      23.392  -0.090  53.497  1.00  0.00     0.087 C 
HETATM   11  N3  UNL     1      24.333   0.807  52.932  1.00  0.00    -0.356 N 
HETATM   12  C15 UNL     1      23.551   1.735  52.128  1.00  0.00     0.137 C 
BRANCH  11  13
HETATM   13  C9  UNL     1      25.737   0.789  53.123  1.00  0.00     0.035 A 
HETATM   14  C10 UNL     1      26.384   2.000  53.377  1.00  0.00     0.033 A 
HETATM   15  C11 UNL     1      27.737   2.054  53.570  1.00  0.00     0.046 A 
HETATM   16  C12 UNL     1      28.448   0.883  53.508  1.00  0.00     0.138 A 
HETATM   17  F1  UNL     1      29.789   0.964  53.703  1.00  0.00    -0.204 F 
HETATM   18  C13 UNL     1      27.805  -0.315  53.257  1.00  0.00     0.074 A 
HETATM   19 CL1  UNL     1      28.810  -1.740  53.201  1.00  0.00    -0.081 Cl
HETATM   20  C14 UNL     1      26.423  -0.386  53.057  1.00  0.00     0.056 A 
ENDBRANCH  11  13
ENDBRANCH   7   8
ENDBRANCH   6   7
ENDBRANCH   4   5
TORSDOF 4
ENDMDL
MODEL 2
REMARK VINA RESULT:      -6.4      2.195      3.018
REMARK  4 active torsions:
REMARK  status: ('A' for Active; 'I' for Inactive)
REMARK    1  A    between atoms: C3_4  and  N2_5 
REMARK    2  A    between atoms: C4_6  and  C5_7 
REMARK    3  A    between atoms: C5_7  and  C6_8 
REMARK    4  A    between atoms: N3_11  and  C9_12 
ROOT
HETATM    1  N1  UNL     1      22.855   5.869  48.832  1.00  0.00    -0.192 NA
HETATM    2  C1  UNL     1      22.293   4.861  48.936  1.00  0.00     0.089 C 
HETATM    3  C2  UNL     1      21.595   3.610  49.084  1.00  0.00     0.112 C 
HETATM    4  C3  UNL     1      20.622   3.433  49.973  1.00  0.00     0.126 C 
ENDROOT
BRANCH   4   5
HETATM    5  N2  UNL     1      19.991   2.169  50.052  1.00  0.00    -0.277 NA
HETATM    6  C4  UNL     1      20.186   1.313  50.987  1.00  0.00     0.090 C 
BRANCH   6   7
HETATM    7  C5  UNL     1      21.112   1.567  52.097  1.00  0.00     0.057 C 
BRANCH   7   8
HETATM    8  C6  UNL     1      22.328   0.670  52.066  1.00  0.00     0.033 C 
HETATM    9  C7  UNL     1      22.214  -0.451  53.032  1.00  0.00    -0.003 C 
HETATM   10  C8  UNL     1      23.376  -0.610  53.688  1.00  0.00     0.087 C 
HETATM   11  N3  UNL     1      24.293   0.360  53.211  1.00  0.00    -0.356 N 
HETATM   12  C15 UNL     1      23.474   1.453  52.708  1.00  0.00     0.137 C 
BRANCH  11  13
HETATM   13  C9  UNL     1      25.707   0.268  53.229  1.00  0.00     0.035 A 
HETATM   14  C10 UNL     1      26.292  -0.962  52.925  1.00  0.00     0.033 A 
HETATM   15  C11 UNL     1      27.650  -1.120  52.925  1.00  0.00     0.046 A 
HETATM   16  C12 UNL     1      28.429  -0.034  53.232  1.00  0.00     0.138 A 
HETATM   17  F1  UNL     1      29.774  -0.217  53.226  1.00  0.00    -0.204 F 
HETATM   18  C13 UNL     1      27.847   1.183  53.533  1.00  0.00     0.074 A 
HETATM   19 CL1  UNL     1      28.936   2.494  53.909  1.00  0.00    -0.081 Cl
HETATM   20  C14 UNL     1      26.461   1.361  53.538  1.00  0.00     0.056 A 
ENDBRANCH  11  13
ENDBRANCH   7   8
ENDBRANCH   6   7
ENDBRANCH   4   5
TORSDOF 4
ENDMDL
MODEL 3
REMARK VINA RESULT:      -6.4      5.020      7.008
REMARK  4 active torsions:
REMARK  status: ('A' for Active; 'I' for Inactive)
REMARK    1  A    between atoms: C3_4  and  N2_5 
REMARK    2  A    between atoms: C4_6  and  C5_7 
REMARK    3  A    between atoms: C5_7  and  C6_8 
REMARK    4  A    between atoms: N3_11  and  C9_12 
ROOT
HETATM    1  N1  UNL     1      26.689  -0.157  54.856  1.00  0.00    -0.192 NA
HETATM    2  C1  UNL     1      25.717  -0.174  54.226  1.00  0.00     0.089 C 
HETATM    3  C2  UNL     1      24.500  -0.184  53.457  1.00  0.00     0.112 C 
HETATM    4  C3  UNL     1      23.824   0.925  53.172  1.00  0.00     0.126 C 
ENDROOT
BRANCH   4   5
HETATM    5  N2  UNL     1      22.636   0.824  52.410  1.00  0.00    -0.277 NA
HETATM    6  C4  UNL     1      21.950   1.824  51.992  1.00  0.00     0.090 C 
BRANCH   6   7
HETATM    7  C5  UNL     1      22.340   3.211  52.272  1.00  0.00     0.057 C 
BRANCH   7   8
HETATM    8  C6  UNL     1      22.853   3.936  51.049  1.00  0.00     0.033 C 
HETATM    9  C7  UNL     1      22.791   3.084  49.835  1.00  0.00    -0.003 C 
HETATM   10  C8  UNL     1      23.928   3.209  49.131  1.00  0.00     0.087 C 
HETATM   11  N3  UNL     1      24.778   4.116  49.812  1.00  0.00    -0.356 N 
HETATM   12  C15 UNL     1      24.369   4.055  51.208  1.00  0.00     0.137 C 
BRANCH  11  13
HETATM   13  C9  UNL     1      25.804   4.907  49.239  1.00  0.00     0.035 A 
HETATM   14  C10 UNL     1      27.060   4.326  49.055  1.00  0.00     0.033 A 
HETATM   15  C11 UNL     1      28.094   5.033  48.508  1.00  0.00     0.046 A 
HETATM   16  C12 UNL     1      27.868   6.335  48.141  1.00  0.00     0.138 A 
HETATM   17  F1  UNL     1      28.911   7.015  47.600  1.00  0.00    -0.204 F 
HETATM   18  C13 UNL     1      26.623   6.908  48.324  1.00  0.00     0.074 A 
HETATM   19 CL1  UNL     1      26.451   8.570  47.821  1.00  0.00    -0.081 Cl
HETATM   20  C14 UNL     1      25.556   6.199  48.883  1.00  0.00     0.056 A 
ENDBRANCH  11  13
ENDBRANCH   7   8
ENDBRANCH   6   7
ENDBRANCH   4   5
TORSDOF 4
ENDMDL
MODEL 4
REMARK VINA RESULT:      -6.4      3.454      4.208
REMARK  4 active torsions:
REMARK  status: ('A' for Active; 'I' for Inactive)
REMARK    1  A    between atoms: C3_4  and  N2_5 
REMARK    2  A    between atoms: C4_6  and  C5_7 
REMARK    3  A    between atoms: C5_7  and  C6_8 
REMARK    4  A    between atoms: N3_11  and  C9_12 
ROOT
HETATM    1  N1  UNL     1      21.915   4.211  44.716  1.00  0.00    -0.192 NA
HETATM    2  C1  UNL     1      21.756   3.753  45.769  1.00  0.00     0.089 C 
HETATM    3  C2  UNL     1      21.578   3.185  47.079  1.00  0.00     0.112 C 
HETATM    4  C3  UNL     1      22.156   3.692  48.165  1.00  0.00     0.126 C 
ENDROOT
BRANCH   4   5
HETATM    5  N2  UNL     1      21.928   3.069  49.415  1.00  0.00    -0.277 NA
HETATM    6  C4  UNL     1      22.420   3.469  50.530  1.00  0.00     0.090 C 
BRANCH   6   7
HETATM    7  C5  UNL     1      23.294   4.645  50.621  1.00  0.00     0.057 C 
BRANCH   7   8
HETATM    8  C6  UNL     1      24.718   4.293  50.985  1.00  0.00     0.033 C 
HETATM    9  C7  UNL     1      25.536   3.986  49.784  1.00  0.00    -0.003 C 
HETATM   10  C8  UNL     1      26.286   2.894  50.010  1.00  0.00     0.087 C 
HETATM   11  N3  UNL     1      26.019   2.433  51.323  1.00  0.00    -0.356 N 
HETATM   12  C15 UNL     1      24.680   2.910  51.636  1.00  0.00     0.137 C 
BRANCH  11  13
HETATM   13  C9  UNL     1      26.885   1.667  52.143  1.00  0.00     0.035 A 
HETATM   14  C10 UNL     1      26.788   0.276  52.086  1.00  0.00     0.033 A 
HETATM   15  C11 UNL     1      27.593  -0.522  52.851  1.00  0.00     0.046 A 
HETATM   16  C12 UNL     1      28.504   0.081  53.681  1.00  0.00     0.138 A 
HETATM   17  F1  UNL     1      29.291  -0.733  54.429  1.00  0.00    -0.204 F 
HETATM   18  C13 UNL     1      28.598   1.459  53.734  1.00  0.00     0.074 A 
HETATM   19 CL1  UNL     1      29.792   2.115  54.825  1.00  0.00    -0.081 Cl
HETATM   20  C14 UNL     1      27.781   2.288  52.960  1.00  0.00     0.056 A 
ENDBRANCH  11  13
ENDBRANCH   7   8
ENDBRANCH   6   7
ENDBRANCH   4   5
TORSDOF 4
ENDMDL
MODEL 5
REMARK VINA RESULT:      -6.3      5.098      7.082
REMARK  4 active torsions:
REMARK  status: ('A' for Active; 'I' for Inactive)
REMARK    1  A    between atoms: C3_4  and  N2_5 
REMARK    2  A    between atoms: C4_6  and  C5_7 
REMARK    3  A    between atoms: C5_7  and  C6_8 
REMARK    4  A    between atoms: N3_11  and  C9_12 
ROOT
HETATM    1  N1  UNL     1      26.478   9.774  47.705  1.00  0.00    -0.192 NA
HETATM    2  C1  UNL     1      26.872   8.685  47.700  1.00  0.00     0.089 C 
HETATM    3  C2  UNL     1      27.365   7.332  47.714  1.00  0.00     0.112 C 
HETATM    4  C3  UNL     1      27.018   6.452  48.649  1.00  0.00     0.126 C 
ENDROOT
BRANCH   4   5
HETATM    5  N2  UNL     1      27.551   5.143  48.587  1.00  0.00    -0.277 NA
HETATM    6  C4  UNL     1      27.041   4.120  49.169  1.00  0.00     0.090 C 
BRANCH   6   7
HETATM    7  C5  UNL     1      25.821   4.209  49.980  1.00  0.00     0.057 C 
BRANCH   7   8
HETATM    8  C6  UNL     1      25.119   2.880  50.135  1.00  0.00     0.033 C 
HETATM    9  C7  UNL     1      23.845   2.835  49.373  1.00  0.00    -0.003 C 
HETATM   10  C8  UNL     1      22.883   2.276  50.126  1.00  0.00     0.087 C 
HETATM   11  N3  UNL     1      23.442   1.931  51.382  1.00  0.00    -0.356 N 
HETATM   12  C15 UNL     1      24.573   2.830  51.562  1.00  0.00     0.137 C 
BRANCH  11  13
HETATM   13  C9  UNL     1      22.983   0.922  52.264  1.00  0.00     0.035 A 
HETATM   14  C10 UNL     1      21.672   0.463  52.116  1.00  0.00     0.033 A 
HETATM   15  C11 UNL     1      21.166  -0.509  52.934  1.00  0.00     0.046 A 
HETATM   16  C12 UNL     1      21.980  -1.026  53.909  1.00  0.00     0.138 A 
HETATM   17  F1  UNL     1      21.454  -1.989  54.707  1.00  0.00    -0.204 F 
HETATM   18  C13 UNL     1      23.278  -0.570  54.052  1.00  0.00     0.074 A 
HETATM   19 CL1  UNL     1      24.222  -1.300  55.326  1.00  0.00    -0.081 Cl
HETATM   20  C14 UNL     1      23.810   0.423  53.225  1.00  0.00     0.056 A 
ENDBRANCH  11  13
ENDBRANCH   7   8
ENDBRANCH   6   7
ENDBRANCH   4   5
TORSDOF 4
ENDMDL
MODEL 6
REMARK VINA RESULT:      -6.3      4.989      8.703
REMARK  4 active torsions:
REMARK  status: ('A' for Active; 'I' for Inactive)
REMARK    1  A    between atoms: C3_4  and  N2_5 
REMARK    2  A    between atoms: C4_6  and  C5_7 
REMARK    3  A    between atoms: C5_7  and  C6_8 
REMARK    4  A    between atoms: N3_11  and  C9_12 
ROOT
HETATM    1  N1  UNL     1      28.056  -1.743  53.453  1.00  0.00    -0.192 NA
HETATM    2  C1  UNL     1      27.511  -0.952  52.805  1.00  0.00     0.089 C 
HETATM    3  C2  UNL     1      26.827   0.039  52.016  1.00  0.00     0.112 C 
HETATM    4  C3  UNL     1      26.777   1.322  52.362  1.00  0.00     0.126 C 
ENDROOT
BRANCH   4   5
HETATM    5  N2  UNL     1      26.081   2.228  51.528  1.00  0.00    -0.277 NA
HETATM    6  C4  UNL     1      24.827   2.482  51.614  1.00  0.00     0.090 C 
BRANCH   6   7
HETATM    7  C5  UNL     1      23.966   1.837  52.613  1.00  0.00     0.057 C 
BRANCH   7   8
HETATM    8  C6  UNL     1      22.906   0.955  51.995  1.00  0.00     0.033 C 
HETATM    9  C7  UNL     1      22.438   1.485  50.689  1.00  0.00    -0.003 C 
HETATM   10  C8  UNL     1      21.099   1.404  50.617  1.00  0.00     0.087 C 
HETATM   11  N3  UNL     1      20.620   0.837  51.825  1.00  0.00    -0.356 N 
HETATM   12  C15 UNL     1      21.634   1.141  52.824  1.00  0.00     0.137 C 
BRANCH  11  13
HETATM   13  C9  UNL     1      19.407   0.128  52.003  1.00  0.00     0.035 A 
HETATM   14  C10 UNL     1      19.237  -0.602  53.181  1.00  0.00     0.033 A 
HETATM   15  C11 UNL     1      18.090  -1.309  53.417  1.00  0.00     0.046 A 
HETATM   16  C12 UNL     1      17.105  -1.284  52.463  1.00  0.00     0.138 A 
HETATM   17  F1  UNL     1      15.977  -1.994  52.721  1.00  0.00    -0.204 F 
HETATM   18  C13 UNL     1      17.276  -0.559  51.299  1.00  0.00     0.074 A 
HETATM   19 CL1  UNL     1      15.956  -0.600  50.157  1.00  0.00    -0.081 Cl
HETATM   20  C14 UNL     1      18.442   0.168  51.042  1.00  0.00     0.056 A 
ENDBRANCH  11  13
ENDBRANCH   7   8
ENDBRANCH   6   7
ENDBRANCH   4   5
TORSDOF 4
ENDMDL
MODEL 7
REMARK VINA RESULT:      -6.2      5.066      6.757
REMARK  4 active torsions:
REMARK  status: ('A' for Active; 'I' for Inactive)
REMARK    1  A    between atoms: C3_4  and  N2_5 
REMARK    2  A    between atoms: C4_6  and  C5_7 
REMARK    3  A    between atoms: C5_7  and  C6_8 
REMARK    4  A    between atoms: N3_11  and  C9_12 
ROOT
HETATM    1  N1  UNL     1      28.586   9.432  47.549  1.00  0.00    -0.192 NA
HETATM    2  C1  UNL     1      27.972   8.944  48.402  1.00  0.00     0.089 C 
HETATM    3  C2  UNL     1      27.192   8.342  49.452  1.00  0.00     0.112 C 
HETATM    4  C3  UNL     1      26.227   7.459  49.212  1.00  0.00     0.126 C 
ENDROOT
BRANCH   4   5
HETATM    5  N2  UNL     1      25.509   6.917  50.304  1.00  0.00    -0.277 NA
HETATM    6  C4  UNL     1      25.055   5.719  50.356  1.00  0.00     0.090 C 
BRANCH   6   7
HETATM    7  C5  UNL     1      25.240   4.765  49.255  1.00  0.00     0.057 C 
BRANCH   7   8
HETATM    8  C6  UNL     1      24.963   3.336  49.662  1.00  0.00     0.033 C 
HETATM    9  C7  UNL     1      23.573   2.928  49.337  1.00  0.00    -0.003 C 
HETATM   10  C8  UNL     1      23.043   2.250  50.369  1.00  0.00     0.087 C 
HETATM   11  N3  UNL     1      24.015   2.173  51.398  1.00  0.00    -0.356 N 
HETATM   12  C15 UNL     1      24.892   3.316  51.190  1.00  0.00     0.137 C 
BRANCH  11  13
HETATM   13  C9  UNL     1      24.099   1.185  52.410  1.00  0.00     0.035 A 
HETATM   14  C10 UNL     1      25.363   0.841  52.893  1.00  0.00     0.033 A 
HETATM   15  C11 UNL     1      25.515  -0.106  53.869  1.00  0.00     0.046 A 
HETATM   16  C12 UNL     1      24.389  -0.713  54.365  1.00  0.00     0.138 A 
HETATM   17  F1  UNL     1      24.567  -1.648  55.332  1.00  0.00    -0.204 F 
HETATM   18  C13 UNL     1      23.139  -0.370  53.885  1.00  0.00     0.074 A 
HETATM   19 CL1  UNL     1      21.779  -1.207  54.589  1.00  0.00    -0.081 Cl
HETATM   20  C14 UNL     1      22.967   0.595  52.887  1.00  0.00     0.056 A 
ENDBRANCH  11  13
ENDBRANCH   7   8
ENDBRANCH   6   7
ENDBRANCH   4   5
TORSDOF 4
ENDMDL
MODEL 8
REMARK VINA RESULT:      -6.2      2.383      2.605
REMARK  4 active torsions:
REMARK  status: ('A' for Active; 'I' for Inactive)
REMARK    1  A    between atoms: C3_4  and  N2_5 
REMARK    2  A    between atoms: C4_6  and  C5_7 
REMARK    3  A    between atoms: C5_7  and  C6_8 
REMARK    4  A    between atoms: N3_11  and  C9_12 
ROOT
HETATM    1  N1  UNL     1      18.549   5.340  48.199  1.00  0.00    -0.192 NA
HETATM    2  C1  UNL     1      19.624   5.492  48.603  1.00  0.00     0.089 C 
HETATM    3  C2  UNL     1      20.957   5.667  49.119  1.00  0.00     0.112 C 
HETATM    4  C3  UNL     1      21.761   4.643  49.389  1.00  0.00     0.126 C 
ENDROOT
BRANCH   4   5
HETATM    5  N2  UNL     1      23.056   4.905  49.895  1.00  0.00    -0.277 NA
HETATM    6  C4  UNL     1      23.612   4.254  50.849  1.00  0.00     0.090 C 
BRANCH   6   7
HETATM    7  C5  UNL     1      22.941   3.141  51.531  1.00  0.00     0.057 C 
BRANCH   7   8
HETATM    8  C6  UNL     1      23.815   1.914  51.657  1.00  0.00     0.033 C 
HETATM    9  C7  UNL     1      23.255   0.933  52.621  1.00  0.00    -0.003 C 
HETATM   10  C8  UNL     1      24.234   0.460  53.411  1.00  0.00     0.087 C 
HETATM   11  N3  UNL     1      25.452   1.077  53.031  1.00  0.00    -0.356 N 
HETATM   12  C15 UNL     1      25.071   2.341  52.418  1.00  0.00     0.137 C 
BRANCH  11  13
HETATM   13  C9  UNL     1      26.757   0.558  53.217  1.00  0.00     0.035 A 
HETATM   14  C10 UNL     1      27.767   1.438  53.613  1.00  0.00     0.033 A 
HETATM   15  C11 UNL     1      29.048   1.004  53.810  1.00  0.00     0.046 A 
HETATM   16  C12 UNL     1      29.320  -0.326  53.609  1.00  0.00     0.138 A 
HETATM   17  F1  UNL     1      30.599  -0.732  53.811  1.00  0.00    -0.204 F 
HETATM   18  C13 UNL     1      28.319  -1.195  53.218  1.00  0.00     0.074 A 
HETATM   19 CL1  UNL     1      28.780  -2.862  52.992  1.00  0.00    -0.081 Cl
HETATM   20  C14 UNL     1      27.004  -0.766  53.011  1.00  0.00     0.056 A 
ENDBRANCH  11  13
ENDBRANCH   7   8
ENDBRANCH   6   7
ENDBRANCH   4   5
TORSDOF 4
ENDMDL
MODEL 9
REMARK VINA RESULT:      -6.1      4.065      4.466
REMARK  4 active torsions:
REMARK  status: ('A' for Active; 'I' for Inactive)
REMARK    1  A    between atoms: C3_4  and  N2_5 
REMARK    2  A    between atoms: C4_6  and  C5_7 
REMARK    3  A    between atoms: C5_7  and  C6_8 
REMARK    4  A    between atoms: N3_11  and  C9_12 
ROOT
HETATM    1  N1  UNL     1      20.611   9.519  49.229  1.00  0.00    -0.192 NA
HETATM    2  C1  UNL     1      21.682   9.077  49.186  1.00  0.00     0.089 C 
HETATM    3  C2  UNL     1      23.012   8.529  49.153  1.00  0.00     0.112 C 
HETATM    4  C3  UNL     1      23.391   7.518  49.930  1.00  0.00     0.126 C 
ENDROOT
BRANCH   4   5
HETATM    5  N2  UNL     1      24.719   7.041  49.833  1.00  0.00    -0.277 NA
HETATM    6  C4  UNL     1      25.041   5.828  49.568  1.00  0.00     0.090 C 
BRANCH   6   7
HETATM    7  C5  UNL     1      24.035   4.785  49.334  1.00  0.00     0.057 C 
BRANCH   7   8
HETATM    8  C6  UNL     1      24.535   3.399  49.668  1.00  0.00     0.033 C 
HETATM    9  C7  UNL     1      23.474   2.561  50.280  1.00  0.00    -0.003 C 
HETATM   10  C8  UNL     1      23.973   1.886  51.329  1.00  0.00     0.087 C 
HETATM   11  N3  UNL     1      25.343   2.226  51.467  1.00  0.00    -0.356 N 
HETATM   12  C15 UNL     1      25.478   3.543  50.863  1.00  0.00     0.137 C 
BRANCH  11  13
HETATM   13  C9  UNL     1      26.353   1.437  52.071  1.00  0.00     0.035 A 
HETATM   14  C10 UNL     1      27.430   2.091  52.673  1.00  0.00     0.033 A 
HETATM   15  C11 UNL     1      28.439   1.390  53.272  1.00  0.00     0.046 A 
HETATM   16  C12 UNL     1      28.368   0.020  53.269  1.00  0.00     0.138 A 
HETATM   17  F1  UNL     1      29.383  -0.652  53.870  1.00  0.00    -0.204 F 
HETATM   18  C13 UNL     1      27.301  -0.625  52.672  1.00  0.00     0.074 A 
HETATM   19 CL1  UNL     1      27.317  -2.369  52.728  1.00  0.00    -0.081 Cl
HETATM   20  C14 UNL     1      26.262   0.077  52.054  1.00  0.00     0.056 A 
ENDBRANCH  11  13
ENDBRANCH   7   8
ENDBRANCH   6   7
ENDBRANCH   4   5
TORSDOF 4
ENDMDL
