MODEL 1
REMARK VINA RESULT:      -7.9      0.000      0.000
REMARK  5 active torsions:
REMARK  status: ('A' for Active; 'I' for Inactive)
REMARK    1  A    between atoms: C6_8  and  O1_9 
REMARK    2  A    between atoms: O1_9  and  C7_10 
REMARK    3  A    between atoms: C7_10  and  C8_11 
REMARK    4  A    between atoms: C9_13  and  N3_14 
REMARK    5  A    between atoms: N3_14  and  C10_15 
ROOT
HETATM    1  N1  UNL     1      27.094   4.440  49.175  1.00  0.00    -0.157 N 
HETATM    2  C1  UNL     1      25.856   4.104  49.231  1.00  0.00     0.069 A 
HETATM    3  C2  UNL     1      24.395   3.677  49.297  1.00  0.00     0.037 A 
HETATM    4  C3  UNL     1      25.337   3.383  50.020  1.00  0.00     0.214 A 
HETATM    5  N2  UNL     1      26.515   3.091  50.829  1.00  0.00    -0.281 NA
HETATM    6  C4  UNL     1      26.153   2.262  51.871  1.00  0.00     0.043 C 
HETATM    7  C5  UNL     1      27.456   2.070  52.542  1.00  0.00     0.066 C 
HETATM    8  C6  UNL     1      27.493   0.915  53.271  1.00  0.00     0.097 C 
HETATM    9  C9  UNL     1      26.259   0.093  53.409  1.00  0.00     0.065 C 
HETATM   10  C11 UNL     1      25.062   0.421  52.903  1.00  0.00     0.020 C 
HETATM   11  C12 UNL     1      24.827   1.700  52.142  1.00  0.00     0.084 C 
HETATM   12  C13 UNL     1      24.139   2.707  53.022  1.00  0.00    -0.014 C 
HETATM   13  C14 UNL     1      23.743   3.911  52.640  1.00  0.00    -0.011 C 
HETATM   14  C15 UNL     1      23.354   5.209  52.108  1.00  0.00     0.141 C 
HETATM   15  N4  UNL     1      23.736   5.453  50.697  1.00  0.00    -0.413 N 
HETATM   16  C16 UNL     1      23.206   4.960  49.487  1.00  0.00     0.094 A 
HETATM   17  C17 UNL     1      23.286   4.069  48.505  1.00  0.00     0.029 A 
HETATM   18  H15 UNL     1      24.458   6.004  50.115  1.00  0.00     0.153 HD
ENDROOT
BRANCH   8  19
HETATM   19  O1  UNL     1      28.408   0.266  54.024  1.00  0.00    -0.346 OA
BRANCH  19  20
HETATM   20  C7  UNL     1      29.730   0.043  53.682  1.00  0.00     0.207 C 
BRANCH  20  21
HETATM   21  C8  UNL     1      30.024  -1.457  53.645  1.00  0.00     0.248 C 
HETATM   22  F1  UNL     1      28.991  -2.096  53.061  1.00  0.00    -0.253 F 
ENDBRANCH  20  21
ENDBRANCH  19  20
ENDBRANCH   8  19
BRANCH   9  23
HETATM   23  N3  UNL     1      26.073  -1.200  53.969  1.00  0.00    -0.332 N 
HETATM   24  H7  UNL     1      26.407  -2.175  53.877  1.00  0.00     0.168 HD
BRANCH  23  25
HETATM   25  C10 UNL     1      25.084  -0.895  55.004  1.00  0.00     0.353 C 
HETATM   26  O2  UNL     1      25.373  -1.034  56.223  1.00  0.00    -0.283 OA
ENDBRANCH  23  25
ENDBRANCH   9  23
TORSDOF 5
ENDMDL
MODEL 2
REMARK VINA RESULT:      -7.7      2.521      2.996
REMARK  5 active torsions:
REMARK  status: ('A' for Active; 'I' for Inactive)
REMARK    1  A    between atoms: C6_8  and  O1_9 
REMARK    2  A    between atoms: O1_9  and  C7_10 
REMARK    3  A    between atoms: C7_10  and  C8_11 
REMARK    4  A    between atoms: C9_13  and  N3_14 
REMARK    5  A    between atoms: N3_14  and  C10_15 
ROOT
HETATM    1  N1  UNL     1      23.341   4.144  49.591  1.00  0.00    -0.157 N 
HETATM    2  C1  UNL     1      22.640   3.069  49.614  1.00  0.00     0.069 A 
HETATM    3  C2  UNL     1      21.833   1.777  49.641  1.00  0.00     0.037 A 
HETATM    4  C3  UNL     1      22.738   2.157  50.371  1.00  0.00     0.214 A 
HETATM    5  N2  UNL     1      23.821   2.693  51.189  1.00  0.00    -0.281 NA
HETATM    6  C4  UNL     1      24.111   1.796  52.197  1.00  0.00     0.043 C 
HETATM    7  C5  UNL     1      25.218   2.494  52.884  1.00  0.00     0.066 C 
HETATM    8  C6  UNL     1      26.020   1.630  53.574  1.00  0.00     0.097 C 
HETATM    9  C9  UNL     1      25.646   0.192  53.664  1.00  0.00     0.065 C 
HETATM   10  C11 UNL     1      24.529  -0.340  53.148  1.00  0.00     0.020 C 
HETATM   11  C12 UNL     1      23.496   0.485  52.426  1.00  0.00     0.084 C 
HETATM   12  C13 UNL     1      22.321   0.749  53.327  1.00  0.00    -0.014 C 
HETATM   13  C14 UNL     1      21.222   1.398  52.980  1.00  0.00    -0.011 C 
HETATM   14  C15 UNL     1      20.063   2.128  52.484  1.00  0.00     0.141 C 
HETATM   15  N4  UNL     1      20.174   2.614  51.088  1.00  0.00    -0.413 N 
HETATM   16  C16 UNL     1      20.093   1.938  49.854  1.00  0.00     0.094 A 
HETATM   17  C17 UNL     1      20.736   1.361  48.845  1.00  0.00     0.029 A 
HETATM   18  H15 UNL     1      20.341   3.526  50.537  1.00  0.00     0.153 HD
ENDROOT
BRANCH   8  19
HETATM   19  O1  UNL     1      27.143   1.727  54.321  1.00  0.00    -0.346 OA
BRANCH  19  20
HETATM   20  C7  UNL     1      28.389   2.119  53.866  1.00  0.00     0.207 C 
BRANCH  20  21
HETATM   21  C8  UNL     1      29.400   0.986  54.043  1.00  0.00     0.248 C 
HETATM   22  F1  UNL     1      29.041   0.233  55.100  1.00  0.00    -0.253 F 
ENDBRANCH  20  21
ENDBRANCH  19  20
ENDBRANCH   8  19
BRANCH   9  23
HETATM   23  N3  UNL     1      26.372  -0.917  54.177  1.00  0.00    -0.332 N 
HETATM   24  H7  UNL     1      26.631  -1.369  55.071  1.00  0.00     0.168 HD
BRANCH  23  25
HETATM   25  C10 UNL     1      26.817  -1.535  52.927  1.00  0.00     0.353 C 
HETATM   26  O2  UNL     1      27.535  -2.572  52.950  1.00  0.00    -0.283 OA
ENDBRANCH  23  25
ENDBRANCH   9  23
TORSDOF 5
ENDMDL
MODEL 3
REMARK VINA RESULT:      -7.2      3.633      7.189
REMARK  5 active torsions:
REMARK  status: ('A' for Active; 'I' for Inactive)
REMARK    1  A    between atoms: C6_8  and  O1_9 
REMARK    2  A    between atoms: O1_9  and  C7_10 
REMARK    3  A    between atoms: C7_10  and  C8_11 
REMARK    4  A    between atoms: C9_13  and  N3_14 
REMARK    5  A    between atoms: N3_14  and  C10_15 
ROOT
HETATM    1  N1  UNL     1      24.384  -0.859  54.606  1.00  0.00    -0.157 N 
HETATM    2  C1  UNL     1      25.347  -1.028  53.775  1.00  0.00     0.069 A 
HETATM    3  C2  UNL     1      26.472  -1.221  52.766  1.00  0.00     0.037 A 
HETATM    4  C3  UNL     1      25.772  -0.243  52.990  1.00  0.00     0.214 A 
HETATM    5  N2  UNL     1      24.893   0.871  53.327  1.00  0.00    -0.281 NA
HETATM    6  C4  UNL     1      25.221   1.958  52.542  1.00  0.00     0.043 C 
HETATM    7  C5  UNL     1      24.229   2.949  53.007  1.00  0.00     0.066 C 
HETATM    8  C6  UNL     1      23.985   3.912  52.069  1.00  0.00     0.097 C 
HETATM    9  C9  UNL     1      24.785   3.934  50.814  1.00  0.00     0.065 C 
HETATM   10  C11 UNL     1      25.789   3.091  50.532  1.00  0.00     0.020 C 
HETATM   11  C12 UNL     1      26.242   2.022  51.492  1.00  0.00     0.084 C 
HETATM   12  C13 UNL     1      27.503   2.452  52.190  1.00  0.00    -0.014 C 
HETATM   13  C14 UNL     1      28.186   1.718  53.054  1.00  0.00    -0.011 C 
HETATM   14  C15 UNL     1      28.852   0.823  53.989  1.00  0.00     0.141 C 
HETATM   15  N4  UNL     1      28.167  -0.472  54.220  1.00  0.00    -0.413 N 
HETATM   16  C16 UNL     1      28.056  -1.626  53.419  1.00  0.00     0.094 A 
HETATM   17  C17 UNL     1      27.335  -2.326  52.550  1.00  0.00     0.029 A 
HETATM   18  H15 UNL     1      27.567  -0.973  54.963  1.00  0.00     0.153 HD
ENDROOT
BRANCH   8  19
HETATM   19  O1  UNL     1      23.181   4.993  51.966  1.00  0.00    -0.346 OA
BRANCH  19  20
HETATM   20  C7  UNL     1      21.803   4.971  51.837  1.00  0.00     0.207 C 
BRANCH  20  21
HETATM   21  C8  UNL     1      21.354   5.970  50.771  1.00  0.00     0.248 C 
HETATM   22  F1  UNL     1      21.457   7.220  51.264  1.00  0.00    -0.253 F 
ENDBRANCH  20  21
ENDBRANCH  19  20
ENDBRANCH   8  19
BRANCH   9  23
HETATM   23  N3  UNL     1      24.629   4.715  49.636  1.00  0.00    -0.332 N 
HETATM   24  H7  UNL     1      23.917   4.991  48.939  1.00  0.00     0.168 HD
BRANCH  23  25
HETATM   25  C10 UNL     1      25.983   5.257  49.504  1.00  0.00     0.353 C 
HETATM   26  O2  UNL     1      26.285   5.983  48.518  1.00  0.00    -0.283 OA
ENDBRANCH  23  25
ENDBRANCH   9  23
TORSDOF 5
ENDMDL
MODEL 4
REMARK VINA RESULT:      -7.1      2.533      4.203
REMARK  5 active torsions:
REMARK  status: ('A' for Active; 'I' for Inactive)
REMARK    1  A    between atoms: C6_8  and  O1_9 
REMARK    2  A    between atoms: O1_9  and  C7_10 
REMARK    3  A    between atoms: C7_10  and  C8_11 
REMARK    4  A    between atoms: C9_13  and  N3_14 
REMARK    5  A    between atoms: N3_14  and  C10_15 
ROOT
HETATM    1  N1  UNL     1      21.590   4.757  50.572  1.00  0.00    -0.157 N 
HETATM    2  C1  UNL     1      22.722   5.268  50.896  1.00  0.00     0.069 A 
HETATM    3  C2  UNL     1      24.063   5.863  51.307  1.00  0.00     0.037 A 
HETATM    4  C3  UNL     1      23.658   4.711  51.371  1.00  0.00     0.214 A 
HETATM    5  N2  UNL     1      23.093   3.366  51.406  1.00  0.00    -0.281 NA
HETATM    6  C4  UNL     1      24.035   2.493  51.911  1.00  0.00     0.043 C 
HETATM    7  C5  UNL     1      23.281   1.222  51.887  1.00  0.00     0.066 C 
HETATM    8  C6  UNL     1      23.769   0.319  52.788  1.00  0.00     0.097 C 
HETATM    9  C9  UNL     1      25.004   0.639  53.554  1.00  0.00     0.065 C 
HETATM   10  C11 UNL     1      25.732   1.754  53.400  1.00  0.00     0.020 C 
HETATM   11  C12 UNL     1      25.381   2.818  52.392  1.00  0.00     0.084 C 
HETATM   12  C13 UNL     1      26.273   2.703  51.187  1.00  0.00    -0.014 C 
HETATM   13  C14 UNL     1      26.259   3.520  50.146  1.00  0.00    -0.011 C 
HETATM   14  C15 UNL     1      26.151   4.481  49.056  1.00  0.00     0.141 C 
HETATM   15  N4  UNL     1      25.087   5.500  49.217  1.00  0.00    -0.413 N 
HETATM   16  C16 UNL     1      25.003   6.642  50.039  1.00  0.00     0.094 A 
HETATM   17  C17 UNL     1      24.564   7.183  51.170  1.00  0.00     0.029 A 
HETATM   18  H15 UNL     1      24.104   5.740  48.843  1.00  0.00     0.153 HD
ENDROOT
BRANCH   8  19
HETATM   19  O1  UNL     1      23.449  -0.933  53.185  1.00  0.00    -0.346 OA
BRANCH  19  20
HETATM   20  C7  UNL     1      22.193  -1.366  53.573  1.00  0.00     0.207 C 
BRANCH  20  21
HETATM   21  C8  UNL     1      21.896  -0.919  55.004  1.00  0.00     0.248 C 
HETATM   22  F1  UNL     1      21.169   0.215  54.971  1.00  0.00    -0.253 F 
ENDBRANCH  20  21
ENDBRANCH  19  20
ENDBRANCH   8  19
BRANCH   9  23
HETATM   23  N3  UNL     1      25.618  -0.045  54.639  1.00  0.00    -0.332 N 
HETATM   24  H7  UNL     1      25.384  -0.546  55.513  1.00  0.00     0.168 HD
BRANCH  23  25
HETATM   25  C10 UNL     1      27.024   0.053  54.245  1.00  0.00     0.353 C 
HETATM   26  O2  UNL     1      27.933  -0.343  55.025  1.00  0.00    -0.283 OA
ENDBRANCH  23  25
ENDBRANCH   9  23
TORSDOF 5
ENDMDL
MODEL 5
REMARK VINA RESULT:      -6.9      1.719      2.003
REMARK  5 active torsions:
REMARK  status: ('A' for Active; 'I' for Inactive)
REMARK    1  A    between atoms: C6_8  and  O1_9 
REMARK    2  A    between atoms: O1_9  and  C7_10 
REMARK    3  A    between atoms: C7_10  and  C8_11 
REMARK    4  A    between atoms: C9_13  and  N3_14 
REMARK    5  A    between atoms: N3_14  and  C10_15 
ROOT
HETATM    1  N1  UNL     1      26.062   4.885  49.694  1.00  0.00    -0.157 N 
HETATM    2  C1  UNL     1      24.869   4.557  49.349  1.00  0.00     0.069 A 
HETATM    3  C2  UNL     1      23.462   4.139  48.941  1.00  0.00     0.037 A 
HETATM    4  C3  UNL     1      24.148   3.782  49.889  1.00  0.00     0.214 A 
HETATM    5  N2  UNL     1      25.034   3.417  50.989  1.00  0.00    -0.281 NA
HETATM    6  C4  UNL     1      24.388   2.515  51.809  1.00  0.00     0.043 C 
HETATM    7  C5  UNL     1      25.432   2.259  52.823  1.00  0.00     0.066 C 
HETATM    8  C6  UNL     1      25.266   1.051  53.439  1.00  0.00     0.097 C 
HETATM    9  C9  UNL     1      24.060   0.232  53.138  1.00  0.00     0.065 C 
HETATM   10  C11 UNL     1      23.065   0.609  52.322  1.00  0.00     0.020 C 
HETATM   11  C12 UNL     1      23.050   1.944  51.625  1.00  0.00     0.084 C 
HETATM   12  C13 UNL     1      22.116   2.887  52.333  1.00  0.00    -0.014 C 
HETATM   13  C14 UNL     1      21.835   4.121  51.943  1.00  0.00    -0.011 C 
HETATM   14  C15 UNL     1      21.604   5.459  51.420  1.00  0.00     0.141 C 
HETATM   15  N4  UNL     1      22.388   5.807  50.210  1.00  0.00    -0.413 N 
HETATM   16  C16 UNL     1      22.252   5.415  48.863  1.00  0.00     0.094 A 
HETATM   17  C17 UNL     1      22.635   4.601  47.886  1.00  0.00     0.029 A 
HETATM   18  H15 UNL     1      23.243   6.395  49.916  1.00  0.00     0.153 HD
ENDROOT
BRANCH   8  19
HETATM   19  O1  UNL     1      25.923   0.337  54.380  1.00  0.00    -0.346 OA
BRANCH  19  20
HETATM   20  C7  UNL     1      27.292   0.323  54.580  1.00  0.00     0.207 C 
BRANCH  20  21
HETATM   21  C8  UNL     1      27.978  -0.518  53.503  1.00  0.00     0.248 C 
HETATM   22  F1  UNL     1      27.129  -1.475  53.081  1.00  0.00    -0.253 F 
ENDBRANCH  20  21
ENDBRANCH  19  20
ENDBRANCH   8  19
BRANCH   9  23
HETATM   23  N3  UNL     1      23.734  -1.099  53.515  1.00  0.00    -0.332 N 
HETATM   24  H7  UNL     1      24.107  -2.063  53.479  1.00  0.00     0.168 HD
BRANCH  23  25
HETATM   25  C10 UNL     1      22.444  -0.873  54.170  1.00  0.00     0.353 C 
HETATM   26  O2  UNL     1      22.234  -1.316  55.332  1.00  0.00    -0.283 OA
ENDBRANCH  23  25
ENDBRANCH   9  23
TORSDOF 5
ENDMDL
MODEL 6
REMARK VINA RESULT:      -6.5      4.522      6.890
REMARK  5 active torsions:
REMARK  status: ('A' for Active; 'I' for Inactive)
REMARK    1  A    between atoms: C6_8  and  O1_9 
REMARK    2  A    between atoms: O1_9  and  C7_10 
REMARK    3  A    between atoms: C7_10  and  C8_11 
REMARK    4  A    between atoms: C9_13  and  N3_14 
REMARK    5  A    between atoms: N3_14  and  C10_15 
ROOT
HETATM    1  N1  UNL     1      26.717   1.381  51.455  1.00  0.00    -0.157 N 
HETATM    2  C1  UNL     1      25.626   2.006  51.711  1.00  0.00     0.069 A 
HETATM    3  C2  UNL     1      24.346   2.772  52.021  1.00  0.00     0.037 A 
HETATM    4  C3  UNL     1      25.256   3.036  51.248  1.00  0.00     0.214 A 
HETATM    5  N2  UNL     1      26.384   3.269  50.353  1.00  0.00    -0.281 NA
HETATM    6  C4  UNL     1      26.171   4.437  49.651  1.00  0.00     0.043 C 
HETATM    7  C5  UNL     1      27.402   4.505  48.838  1.00  0.00     0.066 C 
HETATM    8  C6  UNL     1      27.692   5.783  48.451  1.00  0.00     0.097 C 
HETATM    9  C9  UNL     1      26.734   6.880  48.758  1.00  0.00     0.065 C 
HETATM   10  C11 UNL     1      25.549   6.712  49.361  1.00  0.00     0.020 C 
HETATM   11  C12 UNL     1      25.038   5.358  49.781  1.00  0.00     0.084 C 
HETATM   12  C13 UNL     1      24.011   4.865  48.799  1.00  0.00    -0.014 C 
HETATM   13  C14 UNL     1      23.330   3.735  48.907  1.00  0.00    -0.011 C 
HETATM   14  C15 UNL     1      22.644   2.471  49.132  1.00  0.00     0.141 C 
HETATM   15  N4  UNL     1      23.078   1.723  50.336  1.00  0.00    -0.413 N 
HETATM   16  C16 UNL     1      22.830   1.935  51.707  1.00  0.00     0.094 A 
HETATM   17  C17 UNL     1      23.254   2.436  52.862  1.00  0.00     0.029 A 
HETATM   18  H15 UNL     1      23.668   0.864  50.612  1.00  0.00     0.153 HD
ENDROOT
BRANCH   8  19
HETATM   19  O1  UNL     1      28.676   6.390  47.749  1.00  0.00    -0.346 OA
BRANCH  19  20
HETATM   20  C7  UNL     1      30.028   6.109  47.837  1.00  0.00     0.207 C 
BRANCH  20  21
HETATM   21  C8  UNL     1      30.842   7.403  47.817  1.00  0.00     0.248 C 
HETATM   22  F1  UNL     1      30.227   8.325  48.583  1.00  0.00    -0.253 F 
ENDBRANCH  20  21
ENDBRANCH  19  20
ENDBRANCH   8  19
BRANCH   9  23
HETATM   23  N3  UNL     1      26.867   8.287  48.607  1.00  0.00    -0.332 N 
HETATM   24  H7  UNL     1      26.876   9.024  47.882  1.00  0.00     0.168 HD
BRANCH  23  25
HETATM   25  C10 UNL     1      27.006   8.685  50.009  1.00  0.00     0.353 C 
HETATM   26  O2  UNL     1      26.617   9.823  50.390  1.00  0.00    -0.283 OA
ENDBRANCH  23  25
ENDBRANCH   9  23
TORSDOF 5
ENDMDL
MODEL 7
REMARK VINA RESULT:      -6.5      3.982      6.553
REMARK  5 active torsions:
REMARK  status: ('A' for Active; 'I' for Inactive)
REMARK    1  A    between atoms: C6_8  and  O1_9 
REMARK    2  A    between atoms: O1_9  and  C7_10 
REMARK    3  A    between atoms: C7_10  and  C8_11 
REMARK    4  A    between atoms: C9_13  and  N3_14 
REMARK    5  A    between atoms: N3_14  and  C10_15 
ROOT
HETATM    1  N1  UNL     1      25.198  -0.092  52.680  1.00  0.00    -0.157 N 
HETATM    2  C1  UNL     1      24.026   0.180  53.127  1.00  0.00     0.069 A 
HETATM    3  C2  UNL     1      22.645   0.529  53.669  1.00  0.00     0.037 A 
HETATM    4  C3  UNL     1      23.386   1.162  52.930  1.00  0.00     0.214 A 
HETATM    5  N2  UNL     1      24.332   1.844  52.054  1.00  0.00    -0.281 NA
HETATM    6  C4  UNL     1      23.787   3.045  51.648  1.00  0.00     0.043 C 
HETATM    7  C5  UNL     1      24.880   3.580  50.808  1.00  0.00     0.066 C 
HETATM    8  C6  UNL     1      24.831   4.942  50.708  1.00  0.00     0.097 C 
HETATM    9  C9  UNL     1      23.686   5.682  51.305  1.00  0.00     0.065 C 
HETATM   10  C11 UNL     1      22.639   5.109  51.915  1.00  0.00     0.020 C 
HETATM   11  C12 UNL     1      22.495   3.614  52.042  1.00  0.00     0.084 C 
HETATM   12  C13 UNL     1      21.510   3.101  51.028  1.00  0.00    -0.014 C 
HETATM   13  C14 UNL     1      21.118   1.842  50.911  1.00  0.00    -0.011 C 
HETATM   14  C15 UNL     1      20.764   0.430  50.878  1.00  0.00     0.141 C 
HETATM   15  N4  UNL     1      21.479  -0.423  51.857  1.00  0.00    -0.413 N 
HETATM   16  C16 UNL     1      21.334  -0.569  53.252  1.00  0.00     0.094 A 
HETATM   17  C17 UNL     1      21.752  -0.231  54.466  1.00  0.00     0.029 A 
HETATM   18  H15 UNL     1      22.274  -1.150  51.900  1.00  0.00     0.153 HD
ENDROOT
BRANCH   8  19
HETATM   19  O1  UNL     1      25.572   5.903  50.113  1.00  0.00    -0.346 OA
BRANCH  19  20
HETATM   20  C7  UNL     1      25.915   5.951  48.773  1.00  0.00     0.207 C 
BRANCH  20  21
HETATM   21  C8  UNL     1      27.377   5.545  48.585  1.00  0.00     0.248 C 
HETATM   22  F1  UNL     1      27.467   4.201  48.576  1.00  0.00    -0.253 F 
ENDBRANCH  20  21
ENDBRANCH  19  20
ENDBRANCH   8  19
BRANCH   9  23
HETATM   23  N3  UNL     1      23.480   7.079  51.472  1.00  0.00    -0.332 N 
HETATM   24  H7  UNL     1      23.838   7.889  52.005  1.00  0.00     0.168 HD
BRANCH  23  25
HETATM   25  C10 UNL     1      22.407   7.300  50.501  1.00  0.00     0.353 C 
HETATM   26  O2  UNL     1      21.340   7.875  50.850  1.00  0.00    -0.283 OA
ENDBRANCH  23  25
ENDBRANCH   9  23
TORSDOF 5
ENDMDL
MODEL 8
REMARK VINA RESULT:      -6.4      3.699      5.643
REMARK  5 active torsions:
REMARK  status: ('A' for Active; 'I' for Inactive)
REMARK    1  A    between atoms: C6_8  and  O1_9 
REMARK    2  A    between atoms: O1_9  and  C7_10 
REMARK    3  A    between atoms: C7_10  and  C8_11 
REMARK    4  A    between atoms: C9_13  and  N3_14 
REMARK    5  A    between atoms: N3_14  and  C10_15 
ROOT
HETATM    1  N1  UNL     1      29.732   5.354  48.207  1.00  0.00    -0.157 N 
HETATM    2  C1  UNL     1      28.935   6.283  47.821  1.00  0.00     0.069 A 
HETATM    3  C2  UNL     1      27.970   7.365  47.351  1.00  0.00     0.037 A 
HETATM    4  C3  UNL     1      27.770   6.376  48.042  1.00  0.00     0.214 A 
HETATM    5  N2  UNL     1      27.626   5.176  48.860  1.00  0.00    -0.281 NA
HETATM    6  C4  UNL     1      26.317   5.072  49.283  1.00  0.00     0.043 C 
HETATM    7  C5  UNL     1      26.371   3.815  50.057  1.00  0.00     0.066 C 
HETATM    8  C6  UNL     1      25.147   3.214  50.147  1.00  0.00     0.097 C 
HETATM    9  C9  UNL     1      23.947   3.907  49.605  1.00  0.00     0.065 C 
HETATM   10  C11 UNL     1      23.952   5.130  49.058  1.00  0.00     0.020 C 
HETATM   11  C12 UNL     1      25.202   5.965  48.954  1.00  0.00     0.084 C 
HETATM   12  C13 UNL     1      25.210   7.022  50.024  1.00  0.00    -0.014 C 
HETATM   13  C14 UNL     1      26.140   7.952  50.174  1.00  0.00    -0.011 C 
HETATM   14  C15 UNL     1      27.222   8.924  50.240  1.00  0.00     0.141 C 
HETATM   15  N4  UNL     1      28.294   8.745  49.232  1.00  0.00    -0.413 N 
HETATM   16  C16 UNL     1      28.332   9.014  47.849  1.00  0.00     0.094 A 
HETATM   17  C17 UNL     1      28.209   8.550  46.610  1.00  0.00     0.029 A 
HETATM   18  H15 UNL     1      29.309   8.387  49.154  1.00  0.00     0.153 HD
ENDROOT
BRANCH   8  19
HETATM   19  O1  UNL     1      24.656   2.079  50.692  1.00  0.00    -0.346 OA
BRANCH  19  20
HETATM   20  C7  UNL     1      24.706   1.733  52.031  1.00  0.00     0.207 C 
BRANCH  20  21
HETATM   21  C8  UNL     1      25.606   0.514  52.232  1.00  0.00     0.248 C 
HETATM   22  F1  UNL     1      26.702   0.640  51.459  1.00  0.00    -0.253 F 
ENDBRANCH  20  21
ENDBRANCH  19  20
ENDBRANCH   8  19
BRANCH   9  23
HETATM   23  N3  UNL     1      22.614   3.442  49.436  1.00  0.00    -0.332 N 
HETATM   24  H7  UNL     1      21.746   3.267  49.971  1.00  0.00     0.168 HD
BRANCH  23  25
HETATM   25  C10 UNL     1      22.608   3.191  47.994  1.00  0.00     0.353 C 
HETATM   26  O2  UNL     1      22.603   2.010  47.552  1.00  0.00    -0.283 OA
ENDBRANCH  23  25
ENDBRANCH   9  23
TORSDOF 5
ENDMDL
MODEL 9
REMARK VINA RESULT:      -6.4      4.965      7.657
REMARK  5 active torsions:
REMARK  status: ('A' for Active; 'I' for Inactive)
REMARK    1  A    between atoms: C6_8  and  O1_9 
REMARK    2  A    between atoms: O1_9  and  C7_10 
REMARK    3  A    between atoms: C7_10  and  C8_11 
REMARK    4  A    between atoms: C9_13  and  N3_14 
REMARK    5  A    between atoms: N3_14  and  C10_15 
ROOT
HETATM    1  N1  UNL     1      23.010  -1.094  55.231  1.00  0.00    -0.157 N 
HETATM    2  C1  UNL     1      23.909  -0.902  54.335  1.00  0.00     0.069 A 
HETATM    3  C2  UNL     1      24.958  -0.685  53.251  1.00  0.00     0.037 A 
HETATM    4  C3  UNL     1      23.790  -0.324  53.303  1.00  0.00     0.214 A 
HETATM    5  N2  UNL     1      22.392   0.066  53.452  1.00  0.00    -0.281 NA
HETATM    6  C4  UNL     1      22.009   0.805  52.352  1.00  0.00     0.043 C 
HETATM    7  C5  UNL     1      20.594   1.078  52.676  1.00  0.00     0.066 C 
HETATM    8  C6  UNL     1      19.851   1.332  51.557  1.00  0.00     0.097 C 
HETATM    9  C9  UNL     1      20.524   1.429  50.234  1.00  0.00     0.065 C 
HETATM   10  C11 UNL     1      21.847   1.331  50.040  1.00  0.00     0.020 C 
HETATM   11  C12 UNL     1      22.819   1.132  51.174  1.00  0.00     0.084 C 
HETATM   12  C13 UNL     1      23.498   2.432  51.508  1.00  0.00    -0.014 C 
HETATM   13  C14 UNL     1      24.445   2.587  52.420  1.00  0.00    -0.011 C 
HETATM   14  C15 UNL     1      25.476   2.636  53.447  1.00  0.00     0.141 C 
HETATM   15  N4  UNL     1      25.738   1.352  54.140  1.00  0.00    -0.413 N 
HETATM   16  C16 UNL     1      26.412   0.186  53.724  1.00  0.00     0.094 A 
HETATM   17  C17 UNL     1      26.330  -1.039  53.216  1.00  0.00     0.029 A 
HETATM   18  H15 UNL     1      25.545   0.862  55.081  1.00  0.00     0.153 HD
ENDROOT
BRANCH   8  19
HETATM   19  O1  UNL     1      18.554   1.602  51.289  1.00  0.00    -0.346 OA
BRANCH  19  20
HETATM   20  C7  UNL     1      17.461   0.911  51.783  1.00  0.00     0.207 C 
BRANCH  20  21
HETATM   21  C8  UNL     1      17.465  -0.528  51.269  1.00  0.00     0.248 C 
HETATM   22  F1  UNL     1      17.905  -1.347  52.244  1.00  0.00    -0.253 F 
ENDBRANCH  20  21
ENDBRANCH  19  20
ENDBRANCH   8  19
BRANCH   9  23
HETATM   23  N3  UNL     1      19.975   1.527  48.927  1.00  0.00    -0.332 N 
HETATM   24  H7  UNL     1      19.298   1.061  48.298  1.00  0.00     0.168 HD
BRANCH  23  25
HETATM   25  C10 UNL     1      20.662   2.727  48.446  1.00  0.00     0.353 C 
HETATM   26  O2  UNL     1      20.617   3.041  47.225  1.00  0.00    -0.283 OA
ENDBRANCH  23  25
ENDBRANCH   9  23
TORSDOF 5
ENDMDL
