MODEL 1
REMARK VINA RESULT:      -8.7      0.000      0.000
REMARK  4 active torsions:
REMARK  status: ('A' for Active; 'I' for Inactive)
REMARK    1  A    between atoms: C1_2  and  C2_3 
REMARK    2  A    between atoms: C3_4  and  C4_5 
REMARK    3  A    between atoms: C4_5  and  C5_6 
REMARK    4  A    between atoms: N3_9  and  C6_10 
ROOT
HETATM    1  C5  UNL     1      24.654   1.020  52.899  1.00  0.00     0.070 C 
HETATM    2  N1  UNL     1      25.510   2.013  52.928  1.00  0.00    -0.163 NA
HETATM    3  N2  UNL     1      25.513   3.207  52.239  1.00  0.00    -0.217 N 
HETATM    4  N3  UNL     1      25.072   3.388  50.909  1.00  0.00    -0.272 N 
HETATM    5  C12 UNL     1      23.977   2.773  50.200  1.00  0.00     0.190 C 
HETATM    6  C13 UNL     1      23.227   1.762  50.935  1.00  0.00    -0.026 A 
HETATM    7  C14 UNL     1      22.014   1.600  50.267  1.00  0.00     0.010 A 
HETATM    8  C15 UNL     1      21.089   0.677  50.767  1.00  0.00     0.001 A 
HETATM    9  C16 UNL     1      21.353  -0.056  51.883  1.00  0.00     0.001 A 
HETATM   10  C17 UNL     1      22.544   0.092  52.552  1.00  0.00     0.014 A 
HETATM   11  C18 UNL     1      23.457   0.997  52.068  1.00  0.00    -0.002 A 
HETATM   12  H6  UNL     1      25.858   4.121  52.661  1.00  0.00     0.210 HD
ENDROOT
BRANCH   4  13
HETATM   13  C6  UNL     1      25.785   4.309  50.090  1.00  0.00     0.052 A 
HETATM   14  C7  UNL     1      25.388   5.622  49.903  1.00  0.00     0.033 A 
HETATM   15  C8  UNL     1      26.060   6.528  49.113  1.00  0.00     0.026 A 
HETATM   16  C9  UNL     1      27.197   6.141  48.456  1.00  0.00     0.034 A 
HETATM   17 CL1  UNL     1      28.038   7.306  47.456  1.00  0.00    -0.084 Cl
HETATM   18  C10 UNL     1      27.648   4.845  48.599  1.00  0.00     0.026 A 
HETATM   19  C11 UNL     1      26.934   3.982  49.404  1.00  0.00     0.033 A 
ENDBRANCH   4  13
BRANCH   1  20
HETATM   20  C4  UNL     1      24.933  -0.148  53.771  1.00  0.00     0.089 C 
BRANCH  20  21
HETATM   21  C3  UNL     1      26.317  -0.625  53.735  1.00  0.00    -0.018 C 
HETATM   22  C2  UNL     1      27.300  -1.089  52.954  1.00  0.00     0.037 C 
BRANCH  22  23
HETATM   23  C1  UNL     1      28.693  -1.521  53.193  1.00  0.00     0.258 C 
HETATM   24  O1  UNL     1      28.806  -2.750  53.294  1.00  0.00    -0.302 OA
ENDBRANCH  22  23
ENDBRANCH  20  21
ENDBRANCH   1  20
TORSDOF 4
ENDMDL
MODEL 2
REMARK VINA RESULT:      -8.4      3.627      6.297
REMARK  4 active torsions:
REMARK  status: ('A' for Active; 'I' for Inactive)
REMARK    1  A    between atoms: C1_2  and  C2_3 
REMARK    2  A    between atoms: C3_4  and  C4_5 
REMARK    3  A    between atoms: C4_5  and  C5_6 
REMARK    4  A    between atoms: N3_9  and  C6_10 
ROOT
HETATM    1  C5  UNL     1      25.578   1.210  52.997  1.00  0.00     0.070 C 
HETATM    2  N1  UNL     1      24.775   0.257  53.405  1.00  0.00    -0.163 NA
HETATM    3  N2  UNL     1      23.618  -0.236  52.840  1.00  0.00    -0.217 N 
HETATM    4  N3  UNL     1      22.654   0.528  52.146  1.00  0.00    -0.272 N 
HETATM    5  C12 UNL     1      22.820   1.656  51.262  1.00  0.00     0.190 C 
HETATM    6  C13 UNL     1      24.185   2.134  51.086  1.00  0.00    -0.026 A 
HETATM    7  C14 UNL     1      24.189   2.915  49.931  1.00  0.00     0.010 A 
HETATM    8  C15 UNL     1      25.390   3.505  49.522  1.00  0.00     0.001 A 
HETATM    9  C16 UNL     1      26.540   3.330  50.228  1.00  0.00     0.001 A 
HETATM   10  C17 UNL     1      26.552   2.564  51.368  1.00  0.00     0.014 A 
HETATM   11  C18 UNL     1      25.378   1.981  51.776  1.00  0.00    -0.002 A 
HETATM   12  H6  UNL     1      23.345  -1.264  52.879  1.00  0.00     0.210 HD
ENDROOT
BRANCH   4  13
HETATM   13  C6  UNL     1      21.283   0.177  52.309  1.00  0.00     0.052 A 
HETATM   14  C7  UNL     1      20.790  -0.448  53.441  1.00  0.00     0.033 A 
HETATM   15  C8  UNL     1      19.471  -0.800  53.618  1.00  0.00     0.026 A 
HETATM   16  C9  UNL     1      18.560  -0.530  52.632  1.00  0.00     0.034 A 
HETATM   17 CL1  UNL     1      16.887  -0.984  52.874  1.00  0.00    -0.084 Cl
HETATM   18  C10 UNL     1      18.985   0.092  51.477  1.00  0.00     0.026 A 
HETATM   19  C11 UNL     1      20.319   0.422  51.355  1.00  0.00     0.033 A 
ENDBRANCH   4  13
BRANCH   1  20
HETATM   20  C4  UNL     1      26.762   1.514  53.839  1.00  0.00     0.089 C 
BRANCH  20  21
HETATM   21  C3  UNL     1      27.769   0.452  53.888  1.00  0.00    -0.018 C 
HETATM   22  C2  UNL     1      28.375  -0.521  53.197  1.00  0.00     0.037 C 
BRANCH  22  23
HETATM   23  C1  UNL     1      29.429  -1.509  53.510  1.00  0.00     0.258 C 
HETATM   24  O1  UNL     1      29.052  -2.679  53.362  1.00  0.00    -0.302 OA
ENDBRANCH  22  23
ENDBRANCH  20  21
ENDBRANCH   1  20
TORSDOF 4
ENDMDL
MODEL 3
REMARK VINA RESULT:      -8.3      2.889      3.668
REMARK  4 active torsions:
REMARK  status: ('A' for Active; 'I' for Inactive)
REMARK    1  A    between atoms: C1_2  and  C2_3 
REMARK    2  A    between atoms: C3_4  and  C4_5 
REMARK    3  A    between atoms: C4_5  and  C5_6 
REMARK    4  A    between atoms: N3_9  and  C6_10 
ROOT
HETATM    1  C5  UNL     1      24.937   0.050  52.827  1.00  0.00     0.070 C 
HETATM    2  N1  UNL     1      25.295   0.992  51.988  1.00  0.00    -0.163 NA
HETATM    3  N2  UNL     1      24.541   1.959  51.358  1.00  0.00    -0.217 N 
HETATM    4  N3  UNL     1      23.221   1.789  50.885  1.00  0.00    -0.272 N 
HETATM    5  C12 UNL     1      22.123   1.036  51.440  1.00  0.00     0.190 C 
HETATM    6  C13 UNL     1      22.414   0.277  52.650  1.00  0.00    -0.026 A 
HETATM    7  C14 UNL     1      21.187  -0.026  53.237  1.00  0.00     0.010 A 
HETATM    8  C15 UNL     1      21.175  -0.757  54.430  1.00  0.00     0.001 A 
HETATM    9  C16 UNL     1      22.330  -1.172  55.017  1.00  0.00     0.001 A 
HETATM   10  C17 UNL     1      23.547  -0.881  54.450  1.00  0.00     0.014 A 
HETATM   11  C18 UNL     1      23.568  -0.163  53.280  1.00  0.00    -0.002 A 
HETATM   12  H6  UNL     1      24.898   2.943  51.168  1.00  0.00     0.210 HD
ENDROOT
BRANCH   4  13
HETATM   13  C6  UNL     1      22.860   2.440  49.671  1.00  0.00     0.052 A 
HETATM   14  C7  UNL     1      23.246   3.732  49.359  1.00  0.00     0.033 A 
HETATM   15  C8  UNL     1      22.905   4.381  48.193  1.00  0.00     0.026 A 
HETATM   16  C9  UNL     1      22.136   3.738  47.260  1.00  0.00     0.034 A 
HETATM   17 CL1  UNL     1      21.712   4.579  45.784  1.00  0.00    -0.084 Cl
HETATM   18  C10 UNL     1      21.717   2.448  47.508  1.00  0.00     0.026 A 
HETATM   19  C11 UNL     1      22.089   1.848  48.693  1.00  0.00     0.033 A 
ENDBRANCH   4  13
BRANCH   1  20
HETATM   20  C4  UNL     1      26.000  -0.850  53.340  1.00  0.00     0.089 C 
BRANCH  20  21
HETATM   21  C3  UNL     1      27.279  -0.192  53.618  1.00  0.00    -0.018 C 
HETATM   22  C2  UNL     1      27.972   0.534  54.503  1.00  0.00     0.037 C 
BRANCH  22  23
HETATM   23  C1  UNL     1      29.337   1.099  54.532  1.00  0.00     0.258 C 
HETATM   24  O1  UNL     1      29.347   2.328  54.687  1.00  0.00    -0.302 OA
ENDBRANCH  22  23
ENDBRANCH  20  21
ENDBRANCH   1  20
TORSDOF 4
ENDMDL
MODEL 4
REMARK VINA RESULT:      -8.1      4.204      7.508
REMARK  4 active torsions:
REMARK  status: ('A' for Active; 'I' for Inactive)
REMARK    1  A    between atoms: C1_2  and  C2_3 
REMARK    2  A    between atoms: C3_4  and  C4_5 
REMARK    3  A    between atoms: C4_5  and  C5_6 
REMARK    4  A    between atoms: N3_9  and  C6_10 
ROOT
HETATM    1  C5  UNL     1      25.671   2.189  51.428  1.00  0.00     0.070 C 
HETATM    2  N1  UNL     1      24.384   2.416  51.316  1.00  0.00    -0.163 NA
HETATM    3  N2  UNL     1      23.343   2.068  52.150  1.00  0.00    -0.217 N 
HETATM    4  N3  UNL     1      23.250   0.870  52.891  1.00  0.00    -0.272 N 
HETATM    5  C12 UNL     1      24.277   0.106  53.557  1.00  0.00     0.190 C 
HETATM    6  C13 UNL     1      25.640   0.601  53.409  1.00  0.00    -0.026 A 
HETATM    7  C14 UNL     1      26.394   0.005  54.419  1.00  0.00     0.010 A 
HETATM    8  C15 UNL     1      27.756   0.310  54.510  1.00  0.00     0.001 A 
HETATM    9  C16 UNL     1      28.349   1.170  53.638  1.00  0.00     0.001 A 
HETATM   10  C17 UNL     1      27.619   1.765  52.638  1.00  0.00     0.014 A 
HETATM   11  C18 UNL     1      26.281   1.471  52.541  1.00  0.00    -0.002 A 
HETATM   12  H6  UNL     1      22.494   2.691  52.310  1.00  0.00     0.210 HD
ENDROOT
BRANCH   4  13
HETATM   13  C6  UNL     1      21.966   0.273  53.035  1.00  0.00     0.052 A 
HETATM   14  C7  UNL     1      20.869   0.642  52.276  1.00  0.00     0.033 A 
HETATM   15  C8  UNL     1      19.617   0.082  52.401  1.00  0.00     0.026 A 
HETATM   16  C9  UNL     1      19.407  -0.906  53.325  1.00  0.00     0.034 A 
HETATM   17 CL1  UNL     1      17.809  -1.607  53.471  1.00  0.00    -0.084 Cl
HETATM   18  C10 UNL     1      20.459  -1.322  54.116  1.00  0.00     0.026 A 
HETATM   19  C11 UNL     1      21.690  -0.725  53.946  1.00  0.00     0.033 A 
ENDBRANCH   4  13
BRANCH   1  20
HETATM   20  C4  UNL     1      26.552   2.699  50.348  1.00  0.00     0.089 C 
BRANCH  20  21
HETATM   21  C3  UNL     1      26.230   4.049  49.880  1.00  0.00    -0.018 C 
HETATM   22  C2  UNL     1      26.560   5.024  49.024  1.00  0.00     0.037 C 
BRANCH  22  23
HETATM   23  C1  UNL     1      26.031   6.374  48.742  1.00  0.00     0.258 C 
HETATM   24  O1  UNL     1      26.051   7.116  49.734  1.00  0.00    -0.302 OA
ENDBRANCH  22  23
ENDBRANCH  20  21
ENDBRANCH   1  20
TORSDOF 4
ENDMDL
MODEL 5
REMARK VINA RESULT:      -8.0      4.239      6.458
REMARK  4 active torsions:
REMARK  status: ('A' for Active; 'I' for Inactive)
REMARK    1  A    between atoms: C1_2  and  C2_3 
REMARK    2  A    between atoms: C3_4  and  C4_5 
REMARK    3  A    between atoms: C4_5  and  C5_6 
REMARK    4  A    between atoms: N3_9  and  C6_10 
ROOT
HETATM    1  C5  UNL     1      21.619   0.851  52.096  1.00  0.00     0.070 C 
HETATM    2  N1  UNL     1      22.318  -0.109  52.651  1.00  0.00    -0.163 NA
HETATM    3  N2  UNL     1      23.504  -0.056  53.352  1.00  0.00    -0.217 N 
HETATM    4  N3  UNL     1      24.580   0.816  53.079  1.00  0.00    -0.272 N 
HETATM    5  C12 UNL     1      24.576   2.186  52.628  1.00  0.00     0.190 C 
HETATM    6  C13 UNL     1      23.268   2.765  52.352  1.00  0.00    -0.026 A 
HETATM    7  C14 UNL     1      23.437   4.148  52.337  1.00  0.00     0.010 A 
HETATM    8  C15 UNL     1      22.324   4.960  52.092  1.00  0.00     0.001 A 
HETATM    9  C16 UNL     1      21.093   4.424  51.871  1.00  0.00     0.001 A 
HETATM   10  C17 UNL     1      20.910   3.062  51.882  1.00  0.00     0.014 A 
HETATM   11  C18 UNL     1      21.998   2.259  52.122  1.00  0.00    -0.002 A 
HETATM   12  H6  UNL     1      23.716  -0.687  54.183  1.00  0.00     0.210 HD
ENDROOT
BRANCH   4  13
HETATM   13  C6  UNL     1      25.903   0.318  53.256  1.00  0.00     0.052 A 
HETATM   14  C7  UNL     1      26.866   0.974  54.003  1.00  0.00     0.033 A 
HETATM   15  C8  UNL     1      28.151   0.513  54.184  1.00  0.00     0.026 A 
HETATM   16  C9  UNL     1      28.536  -0.666  53.603  1.00  0.00     0.034 A 
HETATM   17 CL1  UNL     1      30.173  -1.236  53.844  1.00  0.00    -0.084 Cl
HETATM   18  C10 UNL     1      27.624  -1.370  52.845  1.00  0.00     0.026 A 
HETATM   19  C11 UNL     1      26.351  -0.860  52.699  1.00  0.00     0.033 A 
ENDBRANCH   4  13
BRANCH   1  20
HETATM   20  C4  UNL     1      20.364   0.470  51.401  1.00  0.00     0.089 C 
BRANCH  20  21
HETATM   21  C3  UNL     1      19.387  -0.230  52.237  1.00  0.00    -0.018 C 
HETATM   22  C2  UNL     1      18.149  -0.736  52.294  1.00  0.00     0.037 C 
BRANCH  22  23
HETATM   23  C1  UNL     1      17.365  -1.438  53.331  1.00  0.00     0.258 C 
HETATM   24  O1  UNL     1      17.855  -2.531  53.647  1.00  0.00    -0.302 OA
ENDBRANCH  22  23
ENDBRANCH  20  21
ENDBRANCH   1  20
TORSDOF 4
ENDMDL
MODEL 6
REMARK VINA RESULT:      -8.0      2.837      3.353
REMARK  4 active torsions:
REMARK  status: ('A' for Active; 'I' for Inactive)
REMARK    1  A    between atoms: C1_2  and  C2_3 
REMARK    2  A    between atoms: C3_4  and  C4_5 
REMARK    3  A    between atoms: C4_5  and  C5_6 
REMARK    4  A    between atoms: N3_9  and  C6_10 
ROOT
HETATM    1  C5  UNL     1      24.593   0.885  53.084  1.00  0.00     0.070 C 
HETATM    2  N1  UNL     1      25.039   2.110  52.942  1.00  0.00    -0.163 NA
HETATM    3  N2  UNL     1      24.358   3.309  52.919  1.00  0.00    -0.217 N 
HETATM    4  N3  UNL     1      23.080   3.516  52.355  1.00  0.00    -0.272 N 
HETATM    5  C12 UNL     1      21.925   2.651  52.325  1.00  0.00     0.190 C 
HETATM    6  C13 UNL     1      22.099   1.330  52.915  1.00  0.00    -0.026 A 
HETATM    7  C14 UNL     1      20.821   0.829  53.157  1.00  0.00     0.010 A 
HETATM    8  C15 UNL     1      20.695  -0.441  53.730  1.00  0.00     0.001 A 
HETATM    9  C16 UNL     1      21.788  -1.185  54.050  1.00  0.00     0.001 A 
HETATM   10  C17 UNL     1      23.054  -0.705  53.818  1.00  0.00     0.014 A 
HETATM   11  C18 UNL     1      23.187   0.542  53.256  1.00  0.00    -0.002 A 
HETATM   12  H6  UNL     1      24.748   4.207  53.336  1.00  0.00     0.210 HD
ENDROOT
BRANCH   4  13
HETATM   13  C6  UNL     1      22.835   4.754  51.697  1.00  0.00     0.052 A 
HETATM   14  C7  UNL     1      23.823   5.693  51.456  1.00  0.00     0.033 A 
HETATM   15  C8  UNL     1      23.608   6.898  50.825  1.00  0.00     0.026 A 
HETATM   16  C9  UNL     1      22.349   7.222  50.395  1.00  0.00     0.034 A 
HETATM   17 CL1  UNL     1      22.093   8.758  49.595  1.00  0.00    -0.084 Cl
HETATM   18  C10 UNL     1      21.317   6.330  50.603  1.00  0.00     0.026 A 
HETATM   19  C11 UNL     1      21.592   5.138  51.240  1.00  0.00     0.033 A 
ENDBRANCH   4  13
BRANCH   1  20
HETATM   20  C4  UNL     1      25.592  -0.213  53.065  1.00  0.00     0.089 C 
BRANCH  20  21
HETATM   21  C3  UNL     1      26.926   0.164  53.537  1.00  0.00    -0.018 C 
HETATM   22  C2  UNL     1      28.242  -0.016  53.371  1.00  0.00     0.037 C 
BRANCH  22  23
HETATM   23  C1  UNL     1      29.450   0.528  54.027  1.00  0.00     0.258 C 
HETATM   24  O1  UNL     1      29.206   1.495  54.760  1.00  0.00    -0.302 OA
ENDBRANCH  22  23
ENDBRANCH  20  21
ENDBRANCH   1  20
TORSDOF 4
ENDMDL
MODEL 7
REMARK VINA RESULT:      -8.0      2.656      4.478
REMARK  4 active torsions:
REMARK  status: ('A' for Active; 'I' for Inactive)
REMARK    1  A    between atoms: C1_2  and  C2_3 
REMARK    2  A    between atoms: C3_4  and  C4_5 
REMARK    3  A    between atoms: C4_5  and  C5_6 
REMARK    4  A    between atoms: N3_9  and  C6_10 
ROOT
HETATM    1  C5  UNL     1      23.449   1.454  52.173  1.00  0.00     0.070 C 
HETATM    2  N1  UNL     1      23.195   2.294  51.199  1.00  0.00    -0.163 NA
HETATM    3  N2  UNL     1      24.018   2.786  50.208  1.00  0.00    -0.217 N 
HETATM    4  N3  UNL     1      25.389   3.093  50.359  1.00  0.00    -0.272 N 
HETATM    5  C12 UNL     1      26.411   2.433  51.133  1.00  0.00     0.190 C 
HETATM    6  C13 UNL     1      25.972   1.300  51.938  1.00  0.00    -0.026 A 
HETATM    7  C14 UNL     1      27.117   0.573  52.263  1.00  0.00     0.010 A 
HETATM    8  C15 UNL     1      26.981  -0.582  53.040  1.00  0.00     0.001 A 
HETATM    9  C16 UNL     1      25.763  -1.002  53.478  1.00  0.00     0.001 A 
HETATM   10  C17 UNL     1      24.626  -0.296  53.166  1.00  0.00     0.014 A 
HETATM   11  C18 UNL     1      24.750   0.839  52.403  1.00  0.00    -0.002 A 
HETATM   12  H6  UNL     1      23.683   2.981  49.218  1.00  0.00     0.210 HD
ENDROOT
BRANCH   4  13
HETATM   13  C6  UNL     1      25.898   4.226  49.662  1.00  0.00     0.052 A 
HETATM   14  C7  UNL     1      25.150   5.365  49.419  1.00  0.00     0.033 A 
HETATM   15  C8  UNL     1      25.621   6.470  48.744  1.00  0.00     0.026 A 
HETATM   16  C9  UNL     1      26.904   6.476  48.268  1.00  0.00     0.034 A 
HETATM   17 CL1  UNL     1      27.485   7.888  47.412  1.00  0.00    -0.084 Cl
HETATM   18  C10 UNL     1      27.704   5.371  48.475  1.00  0.00     0.026 A 
HETATM   19  C11 UNL     1      27.179   4.294  49.158  1.00  0.00     0.033 A 
ENDBRANCH   4  13
BRANCH   1  20
HETATM   20  C4  UNL     1      22.334   1.115  53.092  1.00  0.00     0.089 C 
BRANCH  20  21
HETATM   21  C3  UNL     1      21.070   0.789  52.429  1.00  0.00    -0.018 C 
HETATM   22  C2  UNL     1      19.924   0.103  52.523  1.00  0.00     0.037 C 
BRANCH  22  23
HETATM   23  C1  UNL     1      18.742  -0.058  51.651  1.00  0.00     0.258 C 
HETATM   24  O1  UNL     1      17.904  -0.842  52.117  1.00  0.00    -0.302 OA
ENDBRANCH  22  23
ENDBRANCH  20  21
ENDBRANCH   1  20
TORSDOF 4
ENDMDL
MODEL 8
REMARK VINA RESULT:      -7.9      4.195      6.213
REMARK  4 active torsions:
REMARK  status: ('A' for Active; 'I' for Inactive)
REMARK    1  A    between atoms: C1_2  and  C2_3 
REMARK    2  A    between atoms: C3_4  and  C4_5 
REMARK    3  A    between atoms: C4_5  and  C5_6 
REMARK    4  A    between atoms: N3_9  and  C6_10 
ROOT
HETATM    1  C5  UNL     1      21.943   1.992  52.382  1.00  0.00     0.070 C 
HETATM    2  N1  UNL     1      23.138   2.198  51.882  1.00  0.00    -0.163 NA
HETATM    3  N2  UNL     1      24.217   1.347  51.773  1.00  0.00    -0.217 N 
HETATM    4  N3  UNL     1      24.585   0.364  52.719  1.00  0.00    -0.272 N 
HETATM    5  C12 UNL     1      23.763  -0.490  53.540  1.00  0.00     0.190 C 
HETATM    6  C13 UNL     1      22.323  -0.287  53.435  1.00  0.00    -0.026 A 
HETATM    7  C14 UNL     1      21.719  -1.430  53.956  1.00  0.00     0.010 A 
HETATM    8  C15 UNL     1      20.322  -1.502  53.976  1.00  0.00     0.001 A 
HETATM    9  C16 UNL     1      19.554  -0.484  53.500  1.00  0.00     0.001 A 
HETATM   10  C17 UNL     1      20.135   0.648  52.984  1.00  0.00     0.014 A 
HETATM   11  C18 UNL     1      21.506   0.727  52.960  1.00  0.00    -0.002 A 
HETATM   12  H6  UNL     1      24.885   1.359  50.945  1.00  0.00     0.210 HD
ENDROOT
BRANCH   4  13
HETATM   13  C6  UNL     1      25.973   0.140  52.940  1.00  0.00     0.052 A 
HETATM   14  C7  UNL     1      26.857   1.146  53.290  1.00  0.00     0.033 A 
HETATM   15  C8  UNL     1      28.204   0.952  53.505  1.00  0.00     0.026 A 
HETATM   16  C9  UNL     1      28.737  -0.302  53.374  1.00  0.00     0.034 A 
HETATM   17 CL1  UNL     1      30.450  -0.530  53.650  1.00  0.00    -0.084 Cl
HETATM   18  C10 UNL     1      27.910  -1.351  53.027  1.00  0.00     0.026 A 
HETATM   19  C11 UNL     1      26.570  -1.097  52.824  1.00  0.00     0.033 A 
ENDBRANCH   4  13
BRANCH   1  20
HETATM   20  C4  UNL     1      20.984   3.125  52.353  1.00  0.00     0.089 C 
BRANCH  20  21
HETATM   21  C3  UNL     1      21.573   4.417  51.996  1.00  0.00    -0.018 C 
HETATM   22  C2  UNL     1      21.779   5.297  51.008  1.00  0.00     0.037 C 
BRANCH  22  23
HETATM   23  C1  UNL     1      22.447   6.611  50.918  1.00  0.00     0.258 C 
HETATM   24  O1  UNL     1      23.652   6.560  51.198  1.00  0.00    -0.302 OA
ENDBRANCH  22  23
ENDBRANCH  20  21
ENDBRANCH   1  20
TORSDOF 4
ENDMDL
MODEL 9
REMARK VINA RESULT:      -7.8      4.560      8.045
REMARK  4 active torsions:
REMARK  status: ('A' for Active; 'I' for Inactive)
REMARK    1  A    between atoms: C1_2  and  C2_3 
REMARK    2  A    between atoms: C3_4  and  C4_5 
REMARK    3  A    between atoms: C4_5  and  C5_6 
REMARK    4  A    between atoms: N3_9  and  C6_10 
ROOT
HETATM    1  C5  UNL     1      24.335   6.308  50.809  1.00  0.00     0.070 C 
HETATM    2  N1  UNL     1      23.727   5.805  51.857  1.00  0.00    -0.163 NA
HETATM    3  N2  UNL     1      23.931   4.612  52.517  1.00  0.00    -0.217 N 
HETATM    4  N3  UNL     1      24.286   3.388  51.909  1.00  0.00    -0.272 N 
HETATM    5  C12 UNL     1      25.152   3.123  50.786  1.00  0.00     0.190 C 
HETATM    6  C13 UNL     1      25.718   4.292  50.126  1.00  0.00    -0.026 A 
HETATM    7  C14 UNL     1      26.803   3.841  49.376  1.00  0.00     0.010 A 
HETATM    8  C15 UNL     1      27.539   4.769  48.632  1.00  0.00     0.001 A 
HETATM    9  C16 UNL     1      27.215   6.091  48.630  1.00  0.00     0.001 A 
HETATM   10  C17 UNL     1      26.149   6.551  49.365  1.00  0.00     0.014 A 
HETATM   11  C18 UNL     1      25.421   5.646  50.098  1.00  0.00    -0.002 A 
HETATM   12  H6  UNL     1      23.835   4.509  53.572  1.00  0.00     0.210 HD
ENDROOT
BRANCH   4  13
HETATM   13  C6  UNL     1      23.727   2.192  52.444  1.00  0.00     0.052 A 
HETATM   14  C7  UNL     1      22.365   1.968  52.539  1.00  0.00     0.033 A 
HETATM   15  C8  UNL     1      21.804   0.822  53.056  1.00  0.00     0.026 A 
HETATM   16  C9  UNL     1      22.615  -0.181  53.516  1.00  0.00     0.034 A 
HETATM   17 CL1  UNL     1      21.884  -1.631  54.171  1.00  0.00    -0.084 Cl
HETATM   18  C10 UNL     1      23.983  -0.022  53.451  1.00  0.00     0.026 A 
HETATM   19  C11 UNL     1      24.489   1.147  52.922  1.00  0.00     0.033 A 
ENDBRANCH   4  13
BRANCH   1  20
HETATM   20  C4  UNL     1      23.880   7.636  50.327  1.00  0.00     0.089 C 
BRANCH  20  21
HETATM   21  C3  UNL     1      22.426   7.804  50.275  1.00  0.00    -0.018 C 
HETATM   22  C2  UNL     1      21.408   8.369  49.615  1.00  0.00     0.037 C 
BRANCH  22  23
HETATM   23  C1  UNL     1      19.940   8.375  49.788  1.00  0.00     0.258 C 
HETATM   24  O1  UNL     1      19.389   7.398  49.262  1.00  0.00    -0.302 OA
ENDBRANCH  22  23
ENDBRANCH  20  21
ENDBRANCH   1  20
TORSDOF 4
ENDMDL
