MODEL 1
REMARK VINA RESULT:      -8.1      0.000      0.000
REMARK  2 active torsions:
REMARK  status: ('A' for Active; 'I' for Inactive)
REMARK    1  A    between atoms: C2_2  and  C3_3 
REMARK    2  A    between atoms: N2_9  and  C8_10 
ROOT
HETATM    1  C3  UNL     1      20.550  -0.016  51.976  1.00  0.00     0.059 C 
HETATM    2  C4  UNL     1      20.761   0.443  50.603  1.00  0.00    -0.012 C 
HETATM    3  C5  UNL     1      21.295   1.067  49.588  1.00  0.00     0.025 C 
HETATM    4  C6  UNL     1      22.459   1.936  49.631  1.00  0.00     0.051 C 
HETATM    5  C7  UNL     1      23.086   2.653  48.497  1.00  0.00     0.072 C 
HETATM    6  N1  UNL     1      22.979   2.080  50.773  1.00  0.00    -0.175 NA
HETATM    7  N2  UNL     1      24.064   2.816  51.158  1.00  0.00    -0.243 N 
HETATM    8  C11 UNL     1      24.853   1.829  51.855  1.00  0.00     0.189 C 
HETATM    9  C12 UNL     1      24.132   1.206  53.003  1.00  0.00     0.164 C 
HETATM   10  C13 UNL     1      22.651   1.376  52.953  1.00  0.00     0.010 C 
HETATM   11  C14 UNL     1      21.587   0.555  52.884  1.00  0.00    -0.067 C 
HETATM   12  C15 UNL     1      21.195  -0.096  54.155  1.00  0.00     0.061 C 
HETATM   13  C16 UNL     1      22.268  -0.750  54.901  1.00  0.00    -0.024 C 
HETATM   14  C17 UNL     1      23.528  -1.137  54.967  1.00  0.00    -0.005 C 
HETATM   15  C18 UNL     1      24.685  -0.686  54.178  1.00  0.00     0.196 C 
HETATM   16  O1  UNL     1      24.391  -0.161  52.947  1.00  0.00    -0.377 OA
ENDROOT
BRANCH   7  17
HETATM   17  C8  UNL     1      24.317   4.226  50.908  1.00  0.00     0.189 A 
HETATM   18  N3  UNL     1      25.048   4.978  50.391  1.00  0.00    -0.235 NA
HETATM   19  C9  UNL     1      24.922   6.288  50.391  1.00  0.00     0.127 A 
HETATM   20  C10 UNL     1      23.832   6.829  51.061  1.00  0.00     0.072 A 
HETATM   21  S1  UNL     1      23.020   5.291  51.678  1.00  0.00    -0.061 SA
ENDBRANCH   7  17
BRANCH   1  22
HETATM   22  C2  UNL     1      19.178   0.300  52.474  1.00  0.00    -0.024 C 
HETATM   23  C1  UNL     1      18.171  -0.366  51.921  1.00  0.00     0.008 C 
ENDBRANCH   1  22
TORSDOF 2
ENDMDL
MODEL 2
REMARK VINA RESULT:      -8.0      1.500      2.165
REMARK  2 active torsions:
REMARK  status: ('A' for Active; 'I' for Inactive)
REMARK    1  A    between atoms: C2_2  and  C3_3 
REMARK    2  A    between atoms: N2_9  and  C8_10 
ROOT
HETATM    1  C3  UNL     1      22.489  -0.296  52.646  1.00  0.00     0.059 C 
HETATM    2  C4  UNL     1      21.898   0.327  51.462  1.00  0.00    -0.012 C 
HETATM    3  C5  UNL     1      21.727   1.163  50.473  1.00  0.00     0.025 C 
HETATM    4  C6  UNL     1      22.569   2.305  50.159  1.00  0.00     0.051 C 
HETATM    5  C7  UNL     1      22.400   3.265  49.045  1.00  0.00     0.072 C 
HETATM    6  N1  UNL     1      23.549   2.478  50.937  1.00  0.00    -0.175 NA
HETATM    7  N2  UNL     1      24.519   3.440  50.927  1.00  0.00    -0.243 N 
HETATM    8  C11 UNL     1      25.722   2.642  50.958  1.00  0.00     0.189 C 
HETATM    9  C12 UNL     1      25.800   1.745  52.147  1.00  0.00     0.164 C 
HETATM   10  C13 UNL     1      24.489   1.514  52.820  1.00  0.00     0.010 C 
HETATM   11  C14 UNL     1      23.709   0.447  53.075  1.00  0.00    -0.067 C 
HETATM   12  C15 UNL     1      24.132  -0.399  54.213  1.00  0.00     0.061 C 
HETATM   13  C16 UNL     1      25.536  -0.806  54.227  1.00  0.00    -0.024 C 
HETATM   14  C17 UNL     1      26.709  -0.844  53.624  1.00  0.00    -0.005 C 
HETATM   15  C18 UNL     1      27.211  -0.028  52.507  1.00  0.00     0.196 C 
HETATM   16  O1  UNL     1      26.251   0.509  51.691  1.00  0.00    -0.377 OA
ENDROOT
BRANCH   7  17
HETATM   17  C8  UNL     1      24.341   4.883  50.894  1.00  0.00     0.189 A 
HETATM   18  N3  UNL     1      23.722   5.769  51.339  1.00  0.00    -0.235 NA
HETATM   19  C9  UNL     1      23.874   7.039  51.027  1.00  0.00     0.127 A 
HETATM   20  C10 UNL     1      24.849   7.359  50.091  1.00  0.00     0.072 A 
HETATM   21  S1  UNL     1      25.514   5.681  49.712  1.00  0.00    -0.061 SA
ENDBRANCH   7  17
BRANCH   1  22
HETATM   22  C2  UNL     1      21.514  -0.408  53.772  1.00  0.00    -0.024 C 
HETATM   23  C1  UNL     1      20.638   0.580  53.909  1.00  0.00     0.008 C 
ENDBRANCH   1  22
TORSDOF 2
ENDMDL
MODEL 3
REMARK VINA RESULT:      -7.8      2.851      5.331
REMARK  2 active torsions:
REMARK  status: ('A' for Active; 'I' for Inactive)
REMARK    1  A    between atoms: C2_2  and  C3_3 
REMARK    2  A    between atoms: N2_9  and  C8_10 
ROOT
HETATM    1  C3  UNL     1      20.826   0.757  52.621  1.00  0.00     0.059 C 
HETATM    2  C4  UNL     1      21.260  -0.083  53.737  1.00  0.00    -0.012 C 
HETATM    3  C5  UNL     1      22.053  -0.704  54.567  1.00  0.00     0.025 C 
HETATM    4  C6  UNL     1      23.507  -0.676  54.548  1.00  0.00     0.051 C 
HETATM    5  C7  UNL     1      24.430  -1.367  55.478  1.00  0.00     0.072 C 
HETATM    6  N1  UNL     1      24.017   0.023  53.629  1.00  0.00    -0.175 NA
HETATM    7  N2  UNL     1      25.330   0.259  53.331  1.00  0.00    -0.243 N 
HETATM    8  C11 UNL     1      25.364   1.702  53.289  1.00  0.00     0.189 C 
HETATM    9  C12 UNL     1      24.424   2.282  52.288  1.00  0.00     0.164 C 
HETATM   10  C13 UNL     1      23.350   1.344  51.850  1.00  0.00     0.010 C 
HETATM   11  C14 UNL     1      22.005   1.324  51.903  1.00  0.00    -0.067 C 
HETATM   12  C15 UNL     1      21.310   2.157  50.896  1.00  0.00     0.061 C 
HETATM   13  C16 UNL     1      21.773   3.537  50.771  1.00  0.00    -0.024 C 
HETATM   14  C17 UNL     1      22.540   4.517  51.209  1.00  0.00    -0.005 C 
HETATM   15  C18 UNL     1      23.726   4.458  52.078  1.00  0.00     0.196 C 
HETATM   16  O1  UNL     1      23.799   3.364  52.901  1.00  0.00    -0.377 OA
ENDROOT
BRANCH   7  17
HETATM   17  C8  UNL     1      26.385  -0.720  53.119  1.00  0.00     0.189 A 
HETATM   18  N3  UNL     1      26.619  -1.773  52.669  1.00  0.00    -0.235 NA
HETATM   19  C9  UNL     1      27.797  -2.361  52.677  1.00  0.00     0.127 A 
HETATM   20  C10 UNL     1      28.853  -1.679  53.269  1.00  0.00     0.072 A 
HETATM   21  S1  UNL     1      27.997  -0.134  53.801  1.00  0.00    -0.061 SA
ENDBRANCH   7  17
BRANCH   1  22
HETATM   22  C2  UNL     1      19.932   0.025  51.675  1.00  0.00    -0.024 C 
HETATM   23  C1  UNL     1      18.698  -0.233  52.093  1.00  0.00     0.008 C 
ENDBRANCH   1  22
TORSDOF 2
ENDMDL
MODEL 4
REMARK VINA RESULT:      -7.4      2.419      4.653
REMARK  2 active torsions:
REMARK  status: ('A' for Active; 'I' for Inactive)
REMARK    1  A    between atoms: C2_2  and  C3_3 
REMARK    2  A    between atoms: N2_9  and  C8_10 
ROOT
HETATM    1  C3  UNL     1      24.555   2.183  53.094  1.00  0.00     0.059 C 
HETATM    2  C4  UNL     1      24.165   3.548  52.743  1.00  0.00    -0.012 C 
HETATM    3  C5  UNL     1      23.448   4.538  52.283  1.00  0.00     0.025 C 
HETATM    4  C6  UNL     1      22.134   4.434  51.672  1.00  0.00     0.051 C 
HETATM    5  C7  UNL     1      21.299   5.538  51.145  1.00  0.00     0.072 C 
HETATM    6  N1  UNL     1      21.671   3.261  51.592  1.00  0.00    -0.175 NA
HETATM    7  N2  UNL     1      20.484   2.818  51.081  1.00  0.00    -0.243 N 
HETATM    8  C11 UNL     1      19.965   2.041  52.181  1.00  0.00     0.189 C 
HETATM    9  C12 UNL     1      20.872   0.933  52.596  1.00  0.00     0.164 C 
HETATM   10  C13 UNL     1      22.279   1.093  52.127  1.00  0.00     0.010 C 
HETATM   11  C14 UNL     1      23.484   1.217  52.713  1.00  0.00    -0.067 C 
HETATM   12  C15 UNL     1      24.085  -0.038  53.219  1.00  0.00     0.061 C 
HETATM   13  C16 UNL     1      23.222  -0.875  54.049  1.00  0.00    -0.024 C 
HETATM   14  C17 UNL     1      22.078  -1.042  54.684  1.00  0.00    -0.005 C 
HETATM   15  C18 UNL     1      20.803  -0.327  54.513  1.00  0.00     0.196 C 
HETATM   16  O1  UNL     1      20.901   0.935  53.988  1.00  0.00    -0.377 OA
ENDROOT
BRANCH   7  17
HETATM   17  C8  UNL     1      19.928   3.085  49.763  1.00  0.00     0.189 A 
HETATM   18  N3  UNL     1      18.999   3.517  49.200  1.00  0.00    -0.235 NA
HETATM   19  C9  UNL     1      18.865   3.589  47.893  1.00  0.00     0.127 A 
HETATM   20  C10 UNL     1      19.910   3.112  47.112  1.00  0.00     0.072 A 
HETATM   21  S1  UNL     1      21.084   2.561  48.423  1.00  0.00    -0.061 SA
ENDBRANCH   7  17
BRANCH   1  22
HETATM   22  C2  UNL     1      25.861   1.793  52.484  1.00  0.00    -0.024 C 
HETATM   23  C1  UNL     1      26.177   2.364  51.327  1.00  0.00     0.008 C 
ENDBRANCH   1  22
TORSDOF 2
ENDMDL
MODEL 5
REMARK VINA RESULT:      -7.4      2.418      5.469
REMARK  2 active torsions:
REMARK  status: ('A' for Active; 'I' for Inactive)
REMARK    1  A    between atoms: C2_2  and  C3_3 
REMARK    2  A    between atoms: N2_9  and  C8_10 
ROOT
HETATM    1  C3  UNL     1      25.807   2.862  51.254  1.00  0.00     0.059 C 
HETATM    2  C4  UNL     1      24.659   3.758  51.389  1.00  0.00    -0.012 C 
HETATM    3  C5  UNL     1      23.439   4.161  51.626  1.00  0.00     0.025 C 
HETATM    4  C6  UNL     1      22.326   3.325  52.044  1.00  0.00     0.051 C 
HETATM    5  C7  UNL     1      20.936   3.754  52.322  1.00  0.00     0.072 C 
HETATM    6  N1  UNL     1      22.599   2.099  52.181  1.00  0.00    -0.175 NA
HETATM    7  N2  UNL     1      21.797   1.058  52.555  1.00  0.00    -0.243 N 
HETATM    8  C11 UNL     1      22.556   0.479  53.638  1.00  0.00     0.189 C 
HETATM    9  C12 UNL     1      23.924   0.046  53.229  1.00  0.00     0.164 C 
HETATM   10  C13 UNL     1      24.400   0.664  51.958  1.00  0.00     0.010 C 
HETATM   11  C14 UNL     1      25.422   1.462  51.596  1.00  0.00    -0.067 C 
HETATM   12  C15 UNL     1      26.735   0.796  51.445  1.00  0.00     0.061 C 
HETATM   13  C16 UNL     1      27.153  -0.061  52.552  1.00  0.00    -0.024 C 
HETATM   14  C17 UNL     1      26.940  -0.523  53.769  1.00  0.00    -0.005 C 
HETATM   15  C18 UNL     1      25.702  -0.517  54.565  1.00  0.00     0.196 C 
HETATM   16  O1  UNL     1      24.794   0.455  54.236  1.00  0.00    -0.377 OA
ENDROOT
BRANCH   7  17
HETATM   17  C8  UNL     1      20.517   0.669  51.983  1.00  0.00     0.189 A 
HETATM   18  N3  UNL     1      19.841   0.758  51.033  1.00  0.00    -0.235 NA
HETATM   19  C9  UNL     1      18.649   0.219  50.892  1.00  0.00     0.127 A 
HETATM   20  C10 UNL     1      18.145  -0.517  51.957  1.00  0.00     0.072 A 
HETATM   21  S1  UNL     1      19.535  -0.359  53.160  1.00  0.00    -0.061 SA
ENDBRANCH   7  17
BRANCH   1  22
HETATM   22  C2  UNL     1      26.417   2.926  49.892  1.00  0.00    -0.024 C 
HETATM   23  C1  UNL     1      26.576   4.133  49.361  1.00  0.00     0.008 C 
ENDBRANCH   1  22
TORSDOF 2
ENDMDL
MODEL 6
REMARK VINA RESULT:      -7.1      3.076      5.730
REMARK  2 active torsions:
REMARK  status: ('A' for Active; 'I' for Inactive)
REMARK    1  A    between atoms: C2_2  and  C3_3 
REMARK    2  A    between atoms: N2_9  and  C8_10 
ROOT
HETATM    1  C3  UNL     1      23.110   2.568  51.995  1.00  0.00     0.059 C 
HETATM    2  C4  UNL     1      21.909   3.392  51.861  1.00  0.00    -0.012 C 
HETATM    3  C5  UNL     1      20.646   3.713  51.784  1.00  0.00     0.025 C 
HETATM    4  C6  UNL     1      19.521   2.796  51.859  1.00  0.00     0.051 C 
HETATM    5  C7  UNL     1      18.081   3.133  51.778  1.00  0.00     0.072 C 
HETATM    6  N1  UNL     1      19.830   1.581  52.011  1.00  0.00    -0.175 NA
HETATM    7  N2  UNL     1      19.030   0.478  52.116  1.00  0.00    -0.243 N 
HETATM    8  C11 UNL     1      19.518  -0.122  53.335  1.00  0.00     0.189 C 
HETATM    9  C12 UNL     1      20.971  -0.456  53.283  1.00  0.00     0.164 C 
HETATM   10  C13 UNL     1      21.720   0.260  52.210  1.00  0.00     0.010 C 
HETATM   11  C14 UNL     1      22.744   1.132  52.164  1.00  0.00    -0.067 C 
HETATM   12  C15 UNL     1      24.093   0.546  52.337  1.00  0.00     0.061 C 
HETATM   13  C16 UNL     1      24.265  -0.350  53.478  1.00  0.00    -0.024 C 
HETATM   14  C17 UNL     1      23.773  -0.893  54.575  1.00  0.00    -0.005 C 
HETATM   15  C18 UNL     1      22.373  -0.999  55.016  1.00  0.00     0.196 C 
HETATM   16  O1  UNL     1      21.519  -0.060  54.500  1.00  0.00    -0.377 OA
ENDROOT
BRANCH   7  17
HETATM   17  C8  UNL     1      17.973   0.055  51.210  1.00  0.00     0.189 A 
HETATM   18  N3  UNL     1      17.683  -0.057  50.083  1.00  0.00    -0.235 NA
HETATM   19  C9  UNL     1      16.535  -0.517  49.632  1.00  0.00     0.127 A 
HETATM   20  C10 UNL     1      15.584  -0.901  50.569  1.00  0.00     0.072 A 
HETATM   21  S1  UNL     1      16.491  -0.542  52.135  1.00  0.00    -0.061 SA
ENDBRANCH   7  17
BRANCH   1  22
HETATM   22  C2  UNL     1      24.048   2.744  50.847  1.00  0.00    -0.024 C 
HETATM   23  C1  UNL     1      23.506   2.995  49.661  1.00  0.00     0.008 C 
ENDBRANCH   1  22
TORSDOF 2
ENDMDL
MODEL 7
REMARK VINA RESULT:      -6.9      3.668      6.644
REMARK  2 active torsions:
REMARK  status: ('A' for Active; 'I' for Inactive)
REMARK    1  A    between atoms: C2_2  and  C3_3 
REMARK    2  A    between atoms: N2_9  and  C8_10 
ROOT
HETATM    1  C3  UNL     1      26.427   5.274  49.290  1.00  0.00     0.059 C 
HETATM    2  C4  UNL     1      25.720   6.365  48.619  1.00  0.00    -0.012 C 
HETATM    3  C5  UNL     1      24.768   7.012  48.003  1.00  0.00     0.025 C 
HETATM    4  C6  UNL     1      23.461   6.484  47.650  1.00  0.00     0.051 C 
HETATM    5  C7  UNL     1      22.363   7.195  46.954  1.00  0.00     0.072 C 
HETATM    6  N1  UNL     1      23.260   5.283  47.984  1.00  0.00    -0.175 NA
HETATM    7  N2  UNL     1      22.159   4.494  47.805  1.00  0.00    -0.243 N 
HETATM    8  C11 UNL     1      21.917   4.022  49.148  1.00  0.00     0.189 C 
HETATM    9  C12 UNL     1      23.076   3.285  49.728  1.00  0.00     0.164 C 
HETATM   10  C13 UNL     1      24.369   3.542  49.029  1.00  0.00     0.010 C 
HETATM   11  C14 UNL     1      25.564   4.060  49.369  1.00  0.00    -0.067 C 
HETATM   12  C15 UNL     1      26.464   3.159  50.123  1.00  0.00     0.061 C 
HETATM   13  C16 UNL     1      25.879   2.484  51.279  1.00  0.00    -0.024 C 
HETATM   14  C17 UNL     1      24.857   2.321  52.097  1.00  0.00    -0.005 C 
HETATM   15  C18 UNL     1      23.447   2.702  51.916  1.00  0.00     0.196 C 
HETATM   16  O1  UNL     1      23.222   3.730  51.039  1.00  0.00    -0.377 OA
ENDROOT
BRANCH   7  17
HETATM   17  C8  UNL     1      21.447   4.227  46.565  1.00  0.00     0.189 A 
HETATM   18  N3  UNL     1      21.577   4.099  45.410  1.00  0.00    -0.235 NA
HETATM   19  C9  UNL     1      20.608   3.843  44.557  1.00  0.00     0.127 A 
HETATM   20  C10 UNL     1      19.321   3.714  45.064  1.00  0.00     0.072 A 
HETATM   21  S1  UNL     1      19.640   3.992  46.861  1.00  0.00    -0.061 SA
ENDBRANCH   7  17
BRANCH   1  22
HETATM   22  C2  UNL     1      27.729   4.955  48.632  1.00  0.00    -0.024 C 
HETATM   23  C1  UNL     1      28.476   5.984  48.247  1.00  0.00     0.008 C 
ENDBRANCH   1  22
TORSDOF 2
ENDMDL
MODEL 8
REMARK VINA RESULT:      -6.9      2.590      5.273
REMARK  2 active torsions:
REMARK  status: ('A' for Active; 'I' for Inactive)
REMARK    1  A    between atoms: C2_2  and  C3_3 
REMARK    2  A    between atoms: N2_9  and  C8_10 
ROOT
HETATM    1  C3  UNL     1      21.031   2.026  50.565  1.00  0.00     0.059 C 
HETATM    2  C4  UNL     1      21.023   0.938  51.542  1.00  0.00    -0.012 C 
HETATM    3  C5  UNL     1      21.446   0.118  52.466  1.00  0.00     0.025 C 
HETATM    4  C6  UNL     1      22.773   0.102  53.058  1.00  0.00     0.051 C 
HETATM    5  C7  UNL     1      23.278  -0.813  54.107  1.00  0.00     0.072 C 
HETATM    6  N1  UNL     1      23.569   0.977  52.613  1.00  0.00    -0.175 NA
HETATM    7  N2  UNL     1      24.869   1.233  52.946  1.00  0.00    -0.243 N 
HETATM    8  C11 UNL     1      24.822   2.644  53.244  1.00  0.00     0.189 C 
HETATM    9  C12 UNL     1      24.338   3.469  52.100  1.00  0.00     0.164 C 
HETATM   10  C13 UNL     1      23.603   2.692  51.060  1.00  0.00     0.010 C 
HETATM   11  C14 UNL     1      22.360   2.704  50.545  1.00  0.00    -0.067 C 
HETATM   12  C15 UNL     1      22.085   3.768  49.553  1.00  0.00     0.061 C 
HETATM   13  C16 UNL     1      22.466   5.124  49.943  1.00  0.00    -0.024 C 
HETATM   14  C17 UNL     1      22.918   5.953  50.864  1.00  0.00    -0.005 C 
HETATM   15  C18 UNL     1      23.645   5.656  52.109  1.00  0.00     0.196 C 
HETATM   16  O1  UNL     1      23.447   4.401  52.623  1.00  0.00    -0.377 OA
ENDROOT
BRANCH   7  17
HETATM   17  C8  UNL     1      25.980   0.294  52.978  1.00  0.00     0.189 A 
HETATM   18  N3  UNL     1      26.352  -0.744  52.590  1.00  0.00    -0.235 NA
HETATM   19  C9  UNL     1      27.518  -1.289  52.866  1.00  0.00     0.127 A 
HETATM   20  C10 UNL     1      28.382  -0.578  53.688  1.00  0.00     0.072 A 
HETATM   21  S1  UNL     1      27.369   0.929  54.016  1.00  0.00    -0.061 SA
ENDBRANCH   7  17
BRANCH   1  22
HETATM   22  C2  UNL     1      20.654   1.560  49.197  1.00  0.00    -0.024 C 
HETATM   23  C1  UNL     1      21.521   0.773  48.570  1.00  0.00     0.008 C 
ENDBRANCH   1  22
TORSDOF 2
ENDMDL
MODEL 9
REMARK VINA RESULT:      -6.6      3.289      6.107
REMARK  2 active torsions:
REMARK  status: ('A' for Active; 'I' for Inactive)
REMARK    1  A    between atoms: C2_2  and  C3_3 
REMARK    2  A    between atoms: N2_9  and  C8_10 
ROOT
HETATM    1  C3  UNL     1      26.047   5.491  49.908  1.00  0.00     0.059 C 
HETATM    2  C4  UNL     1      25.156   6.641  50.062  1.00  0.00    -0.012 C 
HETATM    3  C5  UNL     1      24.066   7.327  50.276  1.00  0.00     0.025 C 
HETATM    4  C6  UNL     1      22.754   6.779  50.582  1.00  0.00     0.051 C 
HETATM    5  C7  UNL     1      21.504   7.532  50.832  1.00  0.00     0.072 C 
HETATM    6  N1  UNL     1      22.700   5.519  50.638  1.00  0.00    -0.175 NA
HETATM    7  N2  UNL     1      21.640   4.696  50.898  1.00  0.00    -0.243 N 
HETATM    8  C11 UNL     1      22.162   3.876  51.965  1.00  0.00     0.189 C 
HETATM    9  C12 UNL     1      23.398   3.134  51.583  1.00  0.00     0.164 C 
HETATM   10  C13 UNL     1      24.091   3.687  50.383  1.00  0.00     0.010 C 
HETATM   11  C14 UNL     1      25.301   4.218  50.126  1.00  0.00    -0.067 C 
HETATM   12  C15 UNL     1      26.410   3.248  49.981  1.00  0.00     0.061 C 
HETATM   13  C16 UNL     1      26.530   2.245  51.038  1.00  0.00    -0.024 C 
HETATM   14  C17 UNL     1      26.134   1.779  52.206  1.00  0.00    -0.005 C 
HETATM   15  C18 UNL     1      24.892   2.052  52.947  1.00  0.00     0.196 C 
HETATM   16  O1  UNL     1      24.280   3.243  52.654  1.00  0.00    -0.377 OA
ENDROOT
BRANCH   7  17
HETATM   17  C8  UNL     1      20.340   4.685  50.243  1.00  0.00     0.189 A 
HETATM   18  N3  UNL     1      19.188   4.732  50.432  1.00  0.00    -0.235 NA
HETATM   19  C9  UNL     1      18.260   4.690  49.499  1.00  0.00     0.127 A 
HETATM   20  C10 UNL     1      18.679   4.578  48.179  1.00  0.00     0.072 A 
HETATM   21  S1  UNL     1      20.509   4.542  48.411  1.00  0.00    -0.061 SA
ENDBRANCH   7  17
BRANCH   1  22
HETATM   22  C2  UNL     1      26.734   5.481  48.582  1.00  0.00    -0.024 C 
HETATM   23  C1  UNL     1      27.371   6.591  48.227  1.00  0.00     0.008 C 
ENDBRANCH   1  22
TORSDOF 2
ENDMDL
