MODEL 1
REMARK VINA RESULT:      -7.3      0.000      0.000
REMARK  5 active torsions:
REMARK  status: ('A' for Active; 'I' for Inactive)
REMARK    1  A    between atoms: N1_2  and  C2_3 
REMARK    2  A    between atoms: C2_3  and  C3_4 
REMARK    3  A    between atoms: C11_15  and  C12_16 
REMARK    4  A    between atoms: C15_19  and  N3_20 
REMARK    5  A    between atoms: N3_20  and  C16_21 
ROOT
HETATM    1  C3  UNL     1      20.942   1.072  52.348  1.00  0.00     0.066 C 
HETATM    2  C4  UNL     1      19.619   1.770  52.104  1.00  0.00     0.127 C 
HETATM    3  N2  UNL     1      18.986   1.214  50.969  1.00  0.00    -0.416 N 
HETATM    4  C5  UNL     1      18.505  -0.143  51.168  1.00  0.00     0.143 C 
HETATM    5  C6  UNL     1      19.377   1.512  49.683  1.00  0.00     0.118 C 
HETATM    6  C7  UNL     1      19.123   2.832  49.047  1.00  0.00     0.046 C 
HETATM    7  C8  UNL     1      20.041   2.848  47.758  1.00  0.00     0.170 C 
HETATM    8  O1  UNL     1      21.317   2.512  48.323  1.00  0.00    -0.382 OA
HETATM    9  C9  UNL     1      21.718   3.519  49.163  1.00  0.00     0.236 C 
HETATM   10  S1  UNL     1      22.855   2.960  50.423  1.00  0.00    -0.155 SA
HETATM   11  C10 UNL     1      22.018   1.943  51.658  1.00  0.00    -0.026 A 
HETATM   12  C11 UNL     1      23.172   2.615  51.952  1.00  0.00     0.103 A 
ENDROOT
BRANCH  12  13
HETATM   13  C12 UNL     1      24.225   3.043  52.960  1.00  0.00     0.020 C 
HETATM   14  C13 UNL     1      24.880   1.887  53.204  1.00  0.00     0.041 A 
HETATM   15  C14 UNL     1      25.073   0.433  52.976  1.00  0.00     0.137 A 
HETATM   16  N4  UNL     1      25.996   1.828  54.142  1.00  0.00    -0.239 NA
HETATM   17  C15 UNL     1      26.155   0.581  53.942  1.00  0.00     0.110 A 
BRANCH  17  18
HETATM   18  N3  UNL     1      27.150  -0.195  54.582  1.00  0.00    -0.344 N 
HETATM   19  H23 UNL     1      27.029  -0.494  55.595  1.00  0.00     0.167 HD
BRANCH  18  20
HETATM   20  C16 UNL     1      28.367  -0.656  54.003  1.00  0.00     0.033 A 
HETATM   21  C17 UNL     1      29.287  -1.426  53.425  1.00  0.00     0.029 A 
HETATM   22  C18 UNL     1      30.331  -0.383  53.406  1.00  0.00     0.004 A 
HETATM   23  C19 UNL     1      29.408   0.394  53.987  1.00  0.00     0.029 A 
ENDBRANCH  18  20
ENDBRANCH  17  18
ENDBRANCH  12  13
BRANCH   1  24
HETATM   24  C2  UNL     1      21.210   1.236  53.854  1.00  0.00     0.261 C 
BRANCH  24  25
HETATM   25  N1  UNL     1      20.947   0.068  54.609  1.00  0.00     0.015 NA
HETATM   26  C1  UNL     1      21.870  -0.822  54.826  1.00  0.00     0.706 C 
ENDBRANCH  24  25
ENDBRANCH   1  24
TORSDOF 5
ENDMDL
MODEL 2
REMARK VINA RESULT:      -7.1      2.231      3.426
REMARK  5 active torsions:
REMARK  status: ('A' for Active; 'I' for Inactive)
REMARK    1  A    between atoms: N1_2  and  C2_3 
REMARK    2  A    between atoms: C2_3  and  C3_4 
REMARK    3  A    between atoms: C11_15  and  C12_16 
REMARK    4  A    between atoms: C15_19  and  N3_20 
REMARK    5  A    between atoms: N3_20  and  C16_21 
ROOT
HETATM    1  C3  UNL     1      22.282   2.232  49.349  1.00  0.00     0.066 C 
HETATM    2  C4  UNL     1      21.152   3.203  49.073  1.00  0.00     0.127 C 
HETATM    3  N2  UNL     1      21.593   4.211  48.185  1.00  0.00    -0.416 N 
HETATM    4  C5  UNL     1      21.834   3.738  46.832  1.00  0.00     0.143 C 
HETATM    5  C6  UNL     1      22.390   5.257  48.589  1.00  0.00     0.118 C 
HETATM    6  C7  UNL     1      21.892   6.372  49.438  1.00  0.00     0.046 C 
HETATM    7  C8  UNL     1      23.194   7.115  49.943  1.00  0.00     0.170 C 
HETATM    8  O1  UNL     1      23.942   6.020  50.492  1.00  0.00    -0.382 OA
HETATM    9  C9  UNL     1      23.273   5.516  51.578  1.00  0.00     0.236 C 
HETATM   10  S1  UNL     1      23.670   3.804  51.905  1.00  0.00    -0.155 SA
HETATM   11  C10 UNL     1      22.951   2.714  50.657  1.00  0.00    -0.026 A 
HETATM   12  C11 UNL     1      23.255   2.260  51.911  1.00  0.00     0.103 A 
ENDROOT
BRANCH  12  13
HETATM   13  C12 UNL     1      23.234   1.151  52.950  1.00  0.00     0.020 C 
HETATM   14  C13 UNL     1      24.448   0.580  52.788  1.00  0.00     0.041 A 
HETATM   15  C14 UNL     1      25.765   0.503  52.108  1.00  0.00     0.137 A 
HETATM   16  N4  UNL     1      24.866  -0.560  53.597  1.00  0.00    -0.239 NA
HETATM   17  C15 UNL     1      25.993  -0.620  53.008  1.00  0.00     0.110 A 
BRANCH  17  18
HETATM   18  N3  UNL     1      26.990  -1.575  53.319  1.00  0.00    -0.344 N 
HETATM   19  H23 UNL     1      26.719  -2.577  53.550  1.00  0.00     0.167 HD
BRANCH  18  20
HETATM   20  C16 UNL     1      28.396  -1.348  53.362  1.00  0.00     0.033 A 
HETATM   21  C17 UNL     1      29.713  -1.528  53.301  1.00  0.00     0.029 A 
HETATM   22  C18 UNL     1      30.048  -0.137  53.660  1.00  0.00     0.004 A 
HETATM   23  C19 UNL     1      28.723   0.048  53.722  1.00  0.00     0.029 A 
ENDBRANCH  18  20
ENDBRANCH  17  18
ENDBRANCH  12  13
BRANCH   1  24
HETATM   24  C2  UNL     1      21.591   0.910  49.726  1.00  0.00     0.261 C 
BRANCH  24  25
HETATM   25  N1  UNL     1      20.271   1.077  50.212  1.00  0.00     0.015 NA
HETATM   26  C1  UNL     1      19.851   0.441  51.266  1.00  0.00     0.706 C 
ENDBRANCH  24  25
ENDBRANCH   1  24
TORSDOF 5
ENDMDL
MODEL 3
REMARK VINA RESULT:      -7.1      2.206      3.669
REMARK  5 active torsions:
REMARK  status: ('A' for Active; 'I' for Inactive)
REMARK    1  A    between atoms: N1_2  and  C2_3 
REMARK    2  A    between atoms: C2_3  and  C3_4 
REMARK    3  A    between atoms: C11_15  and  C12_16 
REMARK    4  A    between atoms: C15_19  and  N3_20 
REMARK    5  A    between atoms: N3_20  and  C16_21 
ROOT
HETATM    1  C3  UNL     1      23.155   3.187  51.235  1.00  0.00     0.066 C 
HETATM    2  C4  UNL     1      22.480   3.544  49.925  1.00  0.00     0.127 C 
HETATM    3  N2  UNL     1      21.715   4.721  50.087  1.00  0.00    -0.416 N 
HETATM    4  C5  UNL     1      22.512   5.921  50.277  1.00  0.00     0.143 C 
HETATM    5  C6  UNL     1      20.491   4.728  50.716  1.00  0.00     0.118 C 
HETATM    6  C7  UNL     1      19.266   4.142  50.109  1.00  0.00     0.046 C 
HETATM    7  C8  UNL     1      18.227   4.045  51.298  1.00  0.00     0.170 C 
HETATM    8  O1  UNL     1      18.996   3.339  52.282  1.00  0.00    -0.382 OA
HETATM    9  C9  UNL     1      19.263   2.074  51.825  1.00  0.00     0.236 C 
HETATM   10  S1  UNL     1      20.732   1.366  52.556  1.00  0.00    -0.155 SA
HETATM   11  C10 UNL     1      22.227   2.163  51.929  1.00  0.00    -0.026 A 
HETATM   12  C11 UNL     1      22.254   0.891  52.431  1.00  0.00     0.103 A 
ENDROOT
BRANCH  12  13
HETATM   13  C12 UNL     1      23.011  -0.395  52.714  1.00  0.00     0.020 C 
HETATM   14  C13 UNL     1      24.104   0.050  53.372  1.00  0.00     0.041 A 
HETATM   15  C14 UNL     1      24.913   1.155  53.942  1.00  0.00     0.137 A 
HETATM   16  N4  UNL     1      25.135  -0.869  53.841  1.00  0.00    -0.239 NA
HETATM   17  C15 UNL     1      25.825   0.085  54.327  1.00  0.00     0.110 A 
BRANCH  17  18
HETATM   18  N3  UNL     1      27.060  -0.100  54.992  1.00  0.00    -0.344 N 
HETATM   19  H23 UNL     1      27.084  -0.489  55.981  1.00  0.00     0.167 HD
BRANCH  18  20
HETATM   20  C16 UNL     1      28.354   0.185  54.468  1.00  0.00     0.033 A 
HETATM   21  C17 UNL     1      29.490   0.807  54.160  1.00  0.00     0.029 A 
HETATM   22  C18 UNL     1      30.060  -0.333  53.415  1.00  0.00     0.004 A 
HETATM   23  C19 UNL     1      28.919  -0.961  53.725  1.00  0.00     0.029 A 
ENDBRANCH  18  20
ENDBRANCH  17  18
ENDBRANCH  12  13
BRANCH   1  24
HETATM   24  C2  UNL     1      24.401   2.378  50.836  1.00  0.00     0.261 C 
BRANCH  24  25
HETATM   25  N1  UNL     1      25.603   3.126  50.881  1.00  0.00     0.015 NA
HETATM   26  C1  UNL     1      26.737   2.570  51.193  1.00  0.00     0.706 C 
ENDBRANCH  24  25
ENDBRANCH   1  24
TORSDOF 5
ENDMDL
MODEL 4
REMARK VINA RESULT:      -7.0      4.186      6.503
REMARK  5 active torsions:
REMARK  status: ('A' for Active; 'I' for Inactive)
REMARK    1  A    between atoms: N1_2  and  C2_3 
REMARK    2  A    between atoms: C2_3  and  C3_4 
REMARK    3  A    between atoms: C11_15  and  C12_16 
REMARK    4  A    between atoms: C15_19  and  N3_20 
REMARK    5  A    between atoms: N3_20  and  C16_21 
ROOT
HETATM    1  C3  UNL     1      25.514   1.439  52.496  1.00  0.00     0.066 C 
HETATM    2  C4  UNL     1      25.433   0.755  53.846  1.00  0.00     0.127 C 
HETATM    3  N2  UNL     1      25.072  -0.601  53.675  1.00  0.00    -0.416 N 
HETATM    4  C5  UNL     1      26.109  -1.413  53.060  1.00  0.00     0.143 C 
HETATM    5  C6  UNL     1      23.783  -0.996  53.401  1.00  0.00     0.118 C 
HETATM    6  C7  UNL     1      22.690  -0.942  54.408  1.00  0.00     0.046 C 
HETATM    7  C8  UNL     1      21.357  -1.127  53.576  1.00  0.00     0.170 C 
HETATM    8  O1  UNL     1      21.514  -0.112  52.573  1.00  0.00    -0.382 OA
HETATM    9  C9  UNL     1      21.492   1.121  53.172  1.00  0.00     0.236 C 
HETATM   10  S1  UNL     1      22.353   2.368  52.224  1.00  0.00    -0.155 SA
HETATM   11  C10 UNL     1      24.140   2.114  52.275  1.00  0.00    -0.026 A 
HETATM   12  C11 UNL     1      23.602   3.347  52.030  1.00  0.00     0.103 A 
ENDROOT
BRANCH  12  13
HETATM   13  C12 UNL     1      23.781   4.839  51.804  1.00  0.00     0.020 C 
HETATM   14  C13 UNL     1      24.634   4.873  50.756  1.00  0.00     0.041 A 
HETATM   15  C14 UNL     1      25.465   4.184  49.738  1.00  0.00     0.137 A 
HETATM   16  N4  UNL     1      25.096   6.136  50.192  1.00  0.00    -0.239 NA
HETATM   17  C15 UNL     1      25.807   5.538  49.322  1.00  0.00     0.110 A 
BRANCH  17  18
HETATM   18  N3  UNL     1      26.595   6.210  48.357  1.00  0.00    -0.344 N 
HETATM   19  H23 UNL     1      26.142   6.882  47.669  1.00  0.00     0.167 HD
BRANCH  18  20
HETATM   20  C16 UNL     1      28.003   6.090  48.182  1.00  0.00     0.033 A 
HETATM   21  C17 UNL     1      29.253   5.631  48.216  1.00  0.00     0.029 A 
HETATM   22  C18 UNL     1      29.831   6.786  47.503  1.00  0.00     0.004 A 
HETATM   23  C19 UNL     1      28.576   7.250  47.466  1.00  0.00     0.029 A 
ENDBRANCH  18  20
ENDBRANCH  17  18
ENDBRANCH  12  13
BRANCH   1  24
HETATM   24  C2  UNL     1      26.496   2.606  52.696  1.00  0.00     0.261 C 
BRANCH  24  25
HETATM   25  N1  UNL     1      27.857   2.227  52.595  1.00  0.00     0.015 NA
HETATM   26  C1  UNL     1      28.686   2.405  53.582  1.00  0.00     0.706 C 
ENDBRANCH  24  25
ENDBRANCH   1  24
TORSDOF 5
ENDMDL
MODEL 5
REMARK VINA RESULT:      -6.9      2.138      3.733
REMARK  5 active torsions:
REMARK  status: ('A' for Active; 'I' for Inactive)
REMARK    1  A    between atoms: N1_2  and  C2_3 
REMARK    2  A    between atoms: C2_3  and  C3_4 
REMARK    3  A    between atoms: C11_15  and  C12_16 
REMARK    4  A    between atoms: C15_19  and  N3_20 
REMARK    5  A    between atoms: N3_20  and  C16_21 
ROOT
HETATM    1  C3  UNL     1      23.490   3.624  49.607  1.00  0.00     0.066 C 
HETATM    2  C4  UNL     1      23.107   2.363  48.859  1.00  0.00     0.127 C 
HETATM    3  N2  UNL     1      21.899   2.572  48.155  1.00  0.00    -0.416 N 
HETATM    4  C5  UNL     1      22.023   3.485  47.032  1.00  0.00     0.143 C 
HETATM    5  C6  UNL     1      20.670   2.574  48.776  1.00  0.00     0.118 C 
HETATM    6  C7  UNL     1      20.028   1.340  49.301  1.00  0.00     0.046 C 
HETATM    7  C8  UNL     1      18.853   1.853  50.227  1.00  0.00     0.170 C 
HETATM    8  O1  UNL     1      19.555   2.764  51.086  1.00  0.00    -0.382 OA
HETATM    9  C9  UNL     1      20.449   2.063  51.853  1.00  0.00     0.236 C 
HETATM   10  S1  UNL     1      21.823   3.063  52.406  1.00  0.00    -0.155 SA
HETATM   11  C10 UNL     1      22.941   3.455  51.042  1.00  0.00    -0.026 A 
HETATM   12  C11 UNL     1      23.373   3.450  52.340  1.00  0.00     0.103 A 
ENDROOT
BRANCH  12  13
HETATM   13  C12 UNL     1      24.501   3.570  53.351  1.00  0.00     0.020 C 
HETATM   14  C13 UNL     1      24.967   2.303  53.418  1.00  0.00     0.041 A 
HETATM   15  C14 UNL     1      24.919   0.881  52.999  1.00  0.00     0.137 A 
HETATM   16  N4  UNL     1      26.077   1.947  54.295  1.00  0.00    -0.239 NA
HETATM   17  C15 UNL     1      26.030   0.728  53.931  1.00  0.00     0.110 A 
BRANCH  17  18
HETATM   18  N3  UNL     1      26.900  -0.272  54.426  1.00  0.00    -0.344 N 
HETATM   19  H23 UNL     1      26.647  -0.818  55.303  1.00  0.00     0.167 HD
BRANCH  18  20
HETATM   20  C16 UNL     1      28.148  -0.663  53.861  1.00  0.00     0.033 A 
HETATM   21  C17 UNL     1      29.086  -1.334  53.195  1.00  0.00     0.029 A 
HETATM   22  C18 UNL     1      30.173  -0.394  53.527  1.00  0.00     0.004 A 
HETATM   23  C19 UNL     1      29.232   0.283  54.197  1.00  0.00     0.029 A 
ENDBRANCH  18  20
ENDBRANCH  17  18
ENDBRANCH  12  13
BRANCH   1  24
HETATM   24  C2  UNL     1      25.019   3.549  49.761  1.00  0.00     0.261 C 
BRANCH  24  25
HETATM   25  N1  UNL     1      25.641   4.816  49.884  1.00  0.00     0.015 NA
HETATM   26  C1  UNL     1      26.396   5.295  48.940  1.00  0.00     0.706 C 
ENDBRANCH  24  25
ENDBRANCH   1  24
TORSDOF 5
ENDMDL
MODEL 6
REMARK VINA RESULT:      -6.9      2.705      7.936
REMARK  5 active torsions:
REMARK  status: ('A' for Active; 'I' for Inactive)
REMARK    1  A    between atoms: N1_2  and  C2_3 
REMARK    2  A    between atoms: C2_3  and  C3_4 
REMARK    3  A    between atoms: C11_15  and  C12_16 
REMARK    4  A    between atoms: C15_19  and  N3_20 
REMARK    5  A    between atoms: N3_20  and  C16_21 
ROOT
HETATM    1  C3  UNL     1      23.577   0.180  53.397  1.00  0.00     0.066 C 
HETATM    2  C4  UNL     1      24.627  -0.913  53.402  1.00  0.00     0.127 C 
HETATM    3  N2  UNL     1      25.497  -0.737  54.502  1.00  0.00    -0.416 N 
HETATM    4  C5  UNL     1      24.877  -0.999  55.790  1.00  0.00     0.143 C 
HETATM    5  C6  UNL     1      26.491   0.214  54.516  1.00  0.00     0.118 C 
HETATM    6  C7  UNL     1      27.726   0.105  53.693  1.00  0.00     0.046 C 
HETATM    7  C8  UNL     1      28.378   1.545  53.742  1.00  0.00     0.170 C 
HETATM    8  O1  UNL     1      27.270   2.365  53.340  1.00  0.00    -0.382 OA
HETATM    9  C9  UNL     1      26.941   2.073  52.042  1.00  0.00     0.236 C 
HETATM   10  S1  UNL     1      25.236   2.449  51.657  1.00  0.00    -0.155 SA
HETATM   11  C10 UNL     1      24.111   1.282  52.453  1.00  0.00    -0.026 A 
HETATM   12  C11 UNL     1      23.750   1.964  51.324  1.00  0.00     0.103 A 
ENDROOT
BRANCH  12  13
HETATM   13  C12 UNL     1      22.751   2.227  50.209  1.00  0.00     0.020 C 
HETATM   14  C13 UNL     1      21.697   2.742  50.879  1.00  0.00     0.041 A 
HETATM   15  C14 UNL     1      21.047   3.169  52.143  1.00  0.00     0.137 A 
HETATM   16  N4  UNL     1      20.478   3.143  50.186  1.00  0.00    -0.239 NA
HETATM   17  C15 UNL     1      19.926   3.506  51.275  1.00  0.00     0.110 A 
BRANCH  17  18
HETATM   18  N3  UNL     1      18.619   4.044  51.351  1.00  0.00    -0.344 N 
HETATM   19  H23 UNL     1      18.465   5.093  51.268  1.00  0.00     0.167 HD
BRANCH  18  20
HETATM   20  C16 UNL     1      17.412   3.311  51.533  1.00  0.00     0.033 A 
HETATM   21  C17 UNL     1      16.520   2.323  51.573  1.00  0.00     0.029 A 
HETATM   22  C18 UNL     1      15.414   3.172  52.060  1.00  0.00     0.004 A 
HETATM   23  C19 UNL     1      16.310   4.166  52.022  1.00  0.00     0.029 A 
ENDBRANCH  18  20
ENDBRANCH  17  18
ENDBRANCH  12  13
BRANCH   1  24
HETATM   24  C2  UNL     1      22.373  -0.424  52.655  1.00  0.00     0.261 C 
BRANCH  24  25
HETATM   25  N1  UNL     1      21.218  -0.563  53.463  1.00  0.00     0.015 NA
HETATM   26  C1  UNL     1      21.080   0.108  54.569  1.00  0.00     0.706 C 
ENDBRANCH  24  25
ENDBRANCH   1  24
TORSDOF 5
ENDMDL
MODEL 7
REMARK VINA RESULT:      -6.8      2.925      4.213
REMARK  5 active torsions:
REMARK  status: ('A' for Active; 'I' for Inactive)
REMARK    1  A    between atoms: N1_2  and  C2_3 
REMARK    2  A    between atoms: C2_3  and  C3_4 
REMARK    3  A    between atoms: C11_15  and  C12_16 
REMARK    4  A    between atoms: C15_19  and  N3_20 
REMARK    5  A    between atoms: N3_20  and  C16_21 
ROOT
HETATM    1  C3  UNL     1      21.360   4.713  50.834  1.00  0.00     0.066 C 
HETATM    2  C4  UNL     1      21.916   5.957  51.496  1.00  0.00     0.127 C 
HETATM    3  N2  UNL     1      21.995   7.007  50.553  1.00  0.00    -0.416 N 
HETATM    4  C5  UNL     1      20.702   7.521  50.135  1.00  0.00     0.143 C 
HETATM    5  C6  UNL     1      22.986   7.075  49.601  1.00  0.00     0.118 C 
HETATM    6  C7  UNL     1      24.399   7.404  49.926  1.00  0.00     0.046 C 
HETATM    7  C8  UNL     1      25.219   7.012  48.631  1.00  0.00     0.170 C 
HETATM    8  O1  UNL     1      24.784   5.659  48.427  1.00  0.00    -0.382 OA
HETATM    9  C9  UNL     1      25.214   4.884  49.472  1.00  0.00     0.236 C 
HETATM   10  S1  UNL     1      24.200   3.434  49.724  1.00  0.00    -0.155 SA
HETATM   11  C10 UNL     1      22.585   3.872  50.405  1.00  0.00    -0.026 A 
HETATM   12  C11 UNL     1      23.122   2.628  50.587  1.00  0.00     0.103 A 
ENDROOT
BRANCH  12  13
HETATM   13  C12 UNL     1      23.055   1.246  51.214  1.00  0.00     0.020 C 
HETATM   14  C13 UNL     1      24.080   1.277  52.095  1.00  0.00     0.041 A 
HETATM   15  C14 UNL     1      25.215   1.984  52.738  1.00  0.00     0.137 A 
HETATM   16  N4  UNL     1      24.396   0.127  52.935  1.00  0.00    -0.239 NA
HETATM   17  C15 UNL     1      25.370   0.740  53.481  1.00  0.00     0.110 A 
BRANCH  17  18
HETATM   18  N3  UNL     1      26.194   0.169  54.480  1.00  0.00    -0.344 N 
HETATM   19  H23 UNL     1      25.762  -0.256  55.354  1.00  0.00     0.167 HD
BRANCH  18  20
HETATM   20  C16 UNL     1      27.616   0.086  54.459  1.00  0.00     0.033 A 
HETATM   21  C17 UNL     1      28.902   0.259  54.755  1.00  0.00     0.029 A 
HETATM   22  C18 UNL     1      29.399  -0.616  53.676  1.00  0.00     0.004 A 
HETATM   23  C19 UNL     1      28.106  -0.793  53.377  1.00  0.00     0.029 A 
ENDBRANCH  18  20
ENDBRANCH  17  18
ENDBRANCH  12  13
BRANCH   1  24
HETATM   24  C2  UNL     1      20.712   3.908  51.974  1.00  0.00     0.261 C 
BRANCH  24  25
HETATM   25  N1  UNL     1      19.311   3.752  51.834  1.00  0.00     0.015 NA
HETATM   26  C1  UNL     1      18.762   3.567  50.670  1.00  0.00     0.706 C 
ENDBRANCH  24  25
ENDBRANCH   1  24
TORSDOF 5
ENDMDL
MODEL 8
REMARK VINA RESULT:      -6.8      3.464      7.731
REMARK  5 active torsions:
REMARK  status: ('A' for Active; 'I' for Inactive)
REMARK    1  A    between atoms: N1_2  and  C2_3 
REMARK    2  A    between atoms: C2_3  and  C3_4 
REMARK    3  A    between atoms: C11_15  and  C12_16 
REMARK    4  A    between atoms: C15_19  and  N3_20 
REMARK    5  A    between atoms: N3_20  and  C16_21 
ROOT
HETATM    1  C3  UNL     1      23.976   0.445  53.665  1.00  0.00     0.066 C 
HETATM    2  C4  UNL     1      24.922  -0.739  53.675  1.00  0.00     0.127 C 
HETATM    3  N2  UNL     1      25.757  -0.676  54.814  1.00  0.00    -0.416 N 
HETATM    4  C5  UNL     1      25.062  -0.917  56.067  1.00  0.00     0.143 C 
HETATM    5  C6  UNL     1      26.832   0.179  54.897  1.00  0.00     0.118 C 
HETATM    6  C7  UNL     1      28.085  -0.018  54.121  1.00  0.00     0.046 C 
HETATM    7  C8  UNL     1      28.862   1.354  54.242  1.00  0.00     0.170 C 
HETATM    8  O1  UNL     1      27.851   2.283  53.824  1.00  0.00    -0.382 OA
HETATM    9  C9  UNL     1      27.551   2.061  52.505  1.00  0.00     0.236 C 
HETATM   10  S1  UNL     1      25.905   2.603  52.066  1.00  0.00    -0.155 SA
HETATM   11  C10 UNL     1      24.647   1.521  52.778  1.00  0.00    -0.026 A 
HETATM   12  C11 UNL     1      24.396   2.266  51.659  1.00  0.00     0.103 A 
ENDROOT
BRANCH  12  13
HETATM   13  C12 UNL     1      23.474   2.652  50.515  1.00  0.00     0.020 C 
HETATM   14  C13 UNL     1      23.014   3.860  50.908  1.00  0.00     0.041 A 
HETATM   15  C14 UNL     1      22.968   4.974  51.888  1.00  0.00     0.137 A 
HETATM   16  N4  UNL     1      22.070   4.616  50.092  1.00  0.00    -0.239 NA
HETATM   17  C15 UNL     1      22.035   5.567  50.938  1.00  0.00     0.110 A 
BRANCH  17  18
HETATM   18  N3  UNL     1      21.253   6.735  50.773  1.00  0.00    -0.344 N 
HETATM   19  H23 UNL     1      20.354   6.862  51.327  1.00  0.00     0.167 HD
BRANCH  18  20
HETATM   20  C16 UNL     1      21.537   7.829  49.905  1.00  0.00     0.033 A 
HETATM   21  C17 UNL     1      21.398   8.850  49.062  1.00  0.00     0.029 A 
HETATM   22  C18 UNL     1      22.845   9.122  48.954  1.00  0.00     0.004 A 
HETATM   23  C19 UNL     1      22.987   8.096  49.803  1.00  0.00     0.029 A 
ENDBRANCH  18  20
ENDBRANCH  17  18
ENDBRANCH  12  13
BRANCH   1  24
HETATM   24  C2  UNL     1      22.755  -0.024  52.856  1.00  0.00     0.261 C 
BRANCH  24  25
HETATM   25  N1  UNL     1      22.210  -1.250  53.309  1.00  0.00     0.015 NA
HETATM   26  C1  UNL     1      21.298  -1.285  54.236  1.00  0.00     0.706 C 
ENDBRANCH  24  25
ENDBRANCH   1  24
TORSDOF 5
ENDMDL
MODEL 9
REMARK VINA RESULT:      -6.7      4.264      6.372
REMARK  5 active torsions:
REMARK  status: ('A' for Active; 'I' for Inactive)
REMARK    1  A    between atoms: N1_2  and  C2_3 
REMARK    2  A    between atoms: C2_3  and  C3_4 
REMARK    3  A    between atoms: C11_15  and  C12_16 
REMARK    4  A    between atoms: C15_19  and  N3_20 
REMARK    5  A    between atoms: N3_20  and  C16_21 
ROOT
HETATM    1  C3  UNL     1      22.171   1.309  53.074  1.00  0.00     0.066 C 
HETATM    2  C4  UNL     1      22.751   0.032  52.499  1.00  0.00     0.127 C 
HETATM    3  N2  UNL     1      23.186  -0.811  53.546  1.00  0.00    -0.416 N 
HETATM    4  C5  UNL     1      22.105  -1.377  54.335  1.00  0.00     0.143 C 
HETATM    5  C6  UNL     1      24.358  -0.592  54.234  1.00  0.00     0.118 C 
HETATM    6  C7  UNL     1      25.701  -0.818  53.636  1.00  0.00     0.046 C 
HETATM    7  C8  UNL     1      26.713  -0.107  54.623  1.00  0.00     0.170 C 
HETATM    8  O1  UNL     1      26.135   1.204  54.714  1.00  0.00    -0.382 OA
HETATM    9  C9  UNL     1      26.209   1.816  53.489  1.00  0.00     0.236 C 
HETATM   10  S1  UNL     1      24.960   3.074  53.265  1.00  0.00    -0.155 SA
HETATM   11  C10 UNL     1      23.320   2.343  53.065  1.00  0.00    -0.026 A 
HETATM   12  C11 UNL     1      23.613   3.584  52.570  1.00  0.00     0.103 A 
ENDROOT
BRANCH  12  13
HETATM   13  C12 UNL     1      23.207   4.811  51.771  1.00  0.00     0.020 C 
HETATM   14  C13 UNL     1      24.220   4.927  50.884  1.00  0.00     0.041 A 
HETATM   15  C14 UNL     1      25.508   4.455  50.317  1.00  0.00     0.137 A 
HETATM   16  N4  UNL     1      24.247   6.001  49.897  1.00  0.00    -0.239 NA
HETATM   17  C15 UNL     1      25.352   5.591  49.417  1.00  0.00     0.110 A 
BRANCH  17  18
HETATM   18  N3  UNL     1      26.020   6.219  48.338  1.00  0.00    -0.344 N 
HETATM   19  H23 UNL     1      25.534   6.329  47.398  1.00  0.00     0.167 HD
BRANCH  18  20
HETATM   20  C16 UNL     1      27.340   6.754  48.355  1.00  0.00     0.033 A 
HETATM   21  C17 UNL     1      28.367   7.598  48.435  1.00  0.00     0.029 A 
HETATM   22  C18 UNL     1      29.397   6.563  48.221  1.00  0.00     0.004 A 
HETATM   23  C19 UNL     1      28.366   5.712  48.141  1.00  0.00     0.029 A 
ENDBRANCH  18  20
ENDBRANCH  17  18
ENDBRANCH  12  13
BRANCH   1  24
HETATM   24  C2  UNL     1      21.180   1.813  52.011  1.00  0.00     0.261 C 
BRANCH  24  25
HETATM   25  N1  UNL     1      20.154   2.636  52.536  1.00  0.00     0.015 NA
HETATM   26  C1  UNL     1      19.629   3.597  51.834  1.00  0.00     0.706 C 
ENDBRANCH  24  25
ENDBRANCH   1  24
TORSDOF 5
ENDMDL
