MODEL 1
REMARK VINA RESULT:      -8.6      0.000      0.000
REMARK  4 active torsions:
REMARK  status: ('A' for Active; 'I' for Inactive)
REMARK    1  A    between atoms: C3_3  and  C17_22 
REMARK    2  A    between atoms: C4_4  and  C5_5 
REMARK    3  A    between atoms: C14_18  and  N5_19 
REMARK    4  A    between atoms: C17_22  and  C18_23 
ROOT
HETATM    1  C1  UNL     1      22.263   1.736  49.110  1.00  0.00     0.017 C 
HETATM    2  C2  UNL     1      21.452   1.289  49.917  1.00  0.00    -0.082 C 
HETATM    3  C3  UNL     1      20.524   0.754  50.863  1.00  0.00     0.000 C 
HETATM    4  C4  UNL     1      20.767   0.543  52.137  1.00  0.00     0.048 C 
ENDROOT
BRANCH   3   5
HETATM    5  C17 UNL     1      19.199   0.461  50.289  1.00  0.00     0.074 C 
BRANCH   5   6
HETATM    6  C18 UNL     1      18.273   0.063  51.379  1.00  0.00    -0.032 C 
HETATM    7  C19 UNL     1      17.065  -0.424  51.033  1.00  0.00     0.007 C 
ENDBRANCH   5   6
ENDBRANCH   3   5
BRANCH   4   8
HETATM    8  C5  UNL     1      22.030   0.828  52.791  1.00  0.00     0.059 C 
HETATM    9  C6  UNL     1      22.555  -0.421  53.029  1.00  0.00     0.032 C 
HETATM   10  C7  UNL     1      23.771  -0.748  53.566  1.00  0.00     0.011 C 
HETATM   11  C8  UNL     1      24.917  -0.195  53.101  1.00  0.00    -0.041 C 
HETATM   12  C9  UNL     1      24.863   1.037  52.456  1.00  0.00     0.121 C 
HETATM   13  C16 UNL     1      26.360  -0.550  53.075  1.00  0.00     0.042 C 
HETATM   14  N1  UNL     1      25.249   2.347  52.401  1.00  0.00    -0.262 N 
HETATM   15  N2  UNL     1      24.306   3.266  52.464  1.00  0.00    -0.165 NA
HETATM   16  C11 UNL     1      26.679   2.518  52.277  1.00  0.00     0.266 C 
HETATM   17  C10 UNL     1      22.993   2.909  52.434  1.00  0.00     0.255 C 
HETATM   18  N3  UNL     1      22.775   1.847  53.211  1.00  0.00    -0.240 NA
HETATM   19  N4  UNL     1      27.281   2.589  53.561  1.00  0.00    -0.404 N 
HETATM   20  C12 UNL     1      28.678   2.371  53.655  1.00  0.00     0.117 C 
HETATM   21  H9  UNL     1      26.946   3.371  54.158  1.00  0.00     0.154 HD
HETATM   22  C13 UNL     1      29.080   0.930  53.397  1.00  0.00     0.054 C 
HETATM   23  C14 UNL     1      28.448  -0.011  54.404  1.00  0.00     0.219 C 
HETATM   24  C15 UNL     1      26.961  -0.029  54.340  1.00  0.00     0.040 C 
BRANCH  23  25
HETATM   25  N5  UNL     1      28.912  -1.341  54.067  1.00  0.00     0.083 N 
HETATM   26  H15 UNL     1      28.361  -1.781  53.307  1.00  0.00     0.313 HD
HETATM   27  H16 UNL     1      29.034  -1.968  54.890  1.00  0.00     0.313 HD
ENDBRANCH  23  25
ENDBRANCH   4   8
TORSDOF 4
ENDMDL
MODEL 2
REMARK VINA RESULT:      -8.1      2.063      7.431
REMARK  4 active torsions:
REMARK  status: ('A' for Active; 'I' for Inactive)
REMARK    1  A    between atoms: C3_3  and  C17_22 
REMARK    2  A    between atoms: C4_4  and  C5_5 
REMARK    3  A    between atoms: C14_18  and  N5_19 
REMARK    4  A    between atoms: C17_22  and  C18_23 
ROOT
HETATM    1  C1  UNL     1      27.183  -2.179  52.334  1.00  0.00     0.017 C 
HETATM    2  C2  UNL     1      27.024  -1.199  53.057  1.00  0.00    -0.082 C 
HETATM    3  C3  UNL     1      26.828  -0.046  53.880  1.00  0.00     0.000 C 
HETATM    4  C4  UNL     1      25.715   0.645  53.975  1.00  0.00     0.048 C 
ENDROOT
BRANCH   3   5
HETATM    5  C17 UNL     1      28.014   0.319  54.675  1.00  0.00     0.074 C 
BRANCH   5   6
HETATM    6  C18 UNL     1      28.975   1.046  53.809  1.00  0.00    -0.032 C 
HETATM    7  C19 UNL     1      28.782   2.366  53.624  1.00  0.00     0.007 C 
ENDBRANCH   5   6
ENDBRANCH   3   5
BRANCH   4   8
HETATM    8  C5  UNL     1      24.494   0.342  53.253  1.00  0.00     0.059 C 
HETATM    9  C6  UNL     1      23.798  -0.461  54.126  1.00  0.00     0.032 C 
HETATM   10  C7  UNL     1      22.541  -0.985  53.987  1.00  0.00     0.011 C 
HETATM   11  C8  UNL     1      21.489  -0.205  53.637  1.00  0.00    -0.041 C 
HETATM   12  C9  UNL     1      21.723   0.976  52.940  1.00  0.00     0.121 C 
HETATM   13  C16 UNL     1      20.012  -0.245  53.792  1.00  0.00     0.042 C 
HETATM   14  N1  UNL     1      21.522   1.732  51.819  1.00  0.00    -0.262 N 
HETATM   15  N2  UNL     1      22.582   2.074  51.113  1.00  0.00    -0.165 NA
HETATM   16  C11 UNL     1      20.131   2.048  51.582  1.00  0.00     0.266 C 
HETATM   17  C10 UNL     1      23.833   1.804  51.575  1.00  0.00     0.255 C 
HETATM   18  N3  UNL     1      23.891   0.574  52.090  1.00  0.00    -0.240 NA
HETATM   19  N4  UNL     1      19.526   1.041  50.784  1.00  0.00    -0.404 N 
HETATM   20  C12 UNL     1      18.111   0.968  50.765  1.00  0.00     0.117 C 
HETATM   21  H9  UNL     1      19.957   0.908  49.848  1.00  0.00     0.154 HD
HETATM   22  C13 UNL     1      17.518   0.476  52.073  1.00  0.00     0.054 C 
HETATM   23  C14 UNL     1      17.999  -0.922  52.411  1.00  0.00     0.219 C 
HETATM   24  C15 UNL     1      19.470  -1.003  52.623  1.00  0.00     0.040 C 
BRANCH  23  25
HETATM   25  N5  UNL     1      17.361  -1.283  53.660  1.00  0.00     0.083 N 
HETATM   26  H15 UNL     1      16.396  -1.639  53.533  1.00  0.00     0.313 HD
HETATM   27  H16 UNL     1      17.424  -0.549  54.395  1.00  0.00     0.313 HD
ENDBRANCH  23  25
ENDBRANCH   4   8
TORSDOF 4
ENDMDL
MODEL 3
REMARK VINA RESULT:      -7.9      2.982      6.776
REMARK  4 active torsions:
REMARK  status: ('A' for Active; 'I' for Inactive)
REMARK    1  A    between atoms: C3_3  and  C17_22 
REMARK    2  A    between atoms: C4_4  and  C5_5 
REMARK    3  A    between atoms: C14_18  and  N5_19 
REMARK    4  A    between atoms: C17_22  and  C18_23 
ROOT
HETATM    1  C1  UNL     1      24.497   7.177  51.036  1.00  0.00     0.017 C 
HETATM    2  C2  UNL     1      25.077   6.303  50.398  1.00  0.00    -0.082 C 
HETATM    3  C3  UNL     1      25.760   5.276  49.676  1.00  0.00     0.000 C 
HETATM    4  C4  UNL     1      25.681   3.987  49.920  1.00  0.00     0.048 C 
ENDROOT
BRANCH   3   5
HETATM    5  C17 UNL     1      26.584   5.784  48.564  1.00  0.00     0.074 C 
BRANCH   5   6
HETATM    6  C18 UNL     1      27.883   5.067  48.553  1.00  0.00    -0.032 C 
HETATM    7  C19 UNL     1      28.979   5.755  48.178  1.00  0.00     0.007 C 
ENDBRANCH   5   6
ENDBRANCH   3   5
BRANCH   4   8
HETATM    8  C5  UNL     1      24.875   3.398  50.973  1.00  0.00     0.059 C 
HETATM    9  C6  UNL     1      23.608   3.391  50.439  1.00  0.00     0.032 C 
HETATM   10  C7  UNL     1      22.457   2.880  50.977  1.00  0.00     0.011 C 
HETATM   11  C8  UNL     1      22.413   1.620  51.472  1.00  0.00    -0.041 C 
HETATM   12  C9  UNL     1      23.591   1.018  51.903  1.00  0.00     0.121 C 
HETATM   13  C16 UNL     1      21.373   0.587  51.716  1.00  0.00     0.042 C 
HETATM   14  N1  UNL     1      24.308   0.443  52.915  1.00  0.00    -0.262 N 
HETATM   15  N2  UNL     1      25.444   1.016  53.261  1.00  0.00    -0.165 NA
HETATM   16  C11 UNL     1      23.685  -0.742  53.459  1.00  0.00     0.266 C 
HETATM   17  C10 UNL     1      25.944   2.051  52.533  1.00  0.00     0.255 C 
HETATM   18  N3  UNL     1      24.975   2.909  52.206  1.00  0.00    -0.240 NA
HETATM   19  N4  UNL     1      22.814  -0.396  54.526  1.00  0.00    -0.404 N 
HETATM   20  C12 UNL     1      21.840  -1.345  54.924  1.00  0.00     0.117 C 
HETATM   21  H9  UNL     1      23.272   0.084  55.325  1.00  0.00     0.154 HD
HETATM   22  C13 UNL     1      20.733  -1.535  53.903  1.00  0.00     0.054 C 
HETATM   23  C14 UNL     1      19.975  -0.244  53.658  1.00  0.00     0.219 C 
HETATM   24  C15 UNL     1      20.823   0.836  53.083  1.00  0.00     0.040 C 
BRANCH  23  25
HETATM   25  N5  UNL     1      18.946  -0.552  52.686  1.00  0.00     0.083 N 
HETATM   26  H15 UNL     1      18.358   0.267  52.447  1.00  0.00     0.313 HD
HETATM   27  H16 UNL     1      18.383  -1.396  52.919  1.00  0.00     0.313 HD
ENDBRANCH  23  25
ENDBRANCH   4   8
TORSDOF 4
ENDMDL
MODEL 4
REMARK VINA RESULT:      -7.7      3.369      6.441
REMARK  4 active torsions:
REMARK  status: ('A' for Active; 'I' for Inactive)
REMARK    1  A    between atoms: C3_3  and  C17_22 
REMARK    2  A    between atoms: C4_4  and  C5_5 
REMARK    3  A    between atoms: C14_18  and  N5_19 
REMARK    4  A    between atoms: C17_22  and  C18_23 
ROOT
HETATM    1  C1  UNL     1      24.177   6.696  51.238  1.00  0.00     0.017 C 
HETATM    2  C2  UNL     1      25.026   6.425  50.392  1.00  0.00    -0.082 C 
HETATM    3  C3  UNL     1      26.022   6.093  49.423  1.00  0.00     0.000 C 
HETATM    4  C4  UNL     1      26.345   4.877  49.044  1.00  0.00     0.048 C 
ENDROOT
BRANCH   3   5
HETATM    5  C17 UNL     1      26.682   7.269  48.829  1.00  0.00     0.074 C 
BRANCH   5   6
HETATM    6  C18 UNL     1      27.872   6.824  48.061  1.00  0.00    -0.032 C 
HETATM    7  C19 UNL     1      28.384   7.671  47.147  1.00  0.00     0.007 C 
ENDBRANCH   5   6
ENDBRANCH   3   5
BRANCH   4   8
HETATM    8  C5  UNL     1      25.730   3.666  49.554  1.00  0.00     0.059 C 
HETATM    9  C6  UNL     1      26.655   3.193  50.455  1.00  0.00     0.032 C 
HETATM   10  C7  UNL     1      26.563   2.106  51.283  1.00  0.00     0.011 C 
HETATM   11  C8  UNL     1      25.480   1.916  52.074  1.00  0.00    -0.041 C 
HETATM   12  C9  UNL     1      24.268   2.497  51.716  1.00  0.00     0.121 C 
HETATM   13  C16 UNL     1      25.174   1.197  53.338  1.00  0.00     0.042 C 
HETATM   14  N1  UNL     1      22.950   2.344  51.384  1.00  0.00    -0.262 N 
HETATM   15  N2  UNL     1      22.564   2.775  50.199  1.00  0.00    -0.165 NA
HETATM   16  C11 UNL     1      22.166   1.715  52.423  1.00  0.00     0.266 C 
HETATM   17  C10 UNL     1      23.421   3.476  49.408  1.00  0.00     0.255 C 
HETATM   18  N3  UNL     1      24.635   2.922  49.421  1.00  0.00    -0.240 NA
HETATM   19  N4  UNL     1      22.176   0.304  52.263  1.00  0.00    -0.404 N 
HETATM   20  C12 UNL     1      21.799  -0.494  53.371  1.00  0.00     0.117 C 
HETATM   21  H9  UNL     1      21.788  -0.036  51.360  1.00  0.00     0.154 HD
HETATM   22  C13 UNL     1      22.819  -0.480  54.495  1.00  0.00     0.054 C 
HETATM   23  C14 UNL     1      24.161  -1.018  54.037  1.00  0.00     0.219 C 
HETATM   24  C15 UNL     1      24.787  -0.198  52.963  1.00  0.00     0.040 C 
BRANCH  23  25
HETATM   25  N5  UNL     1      25.037  -0.967  55.188  1.00  0.00     0.083 N 
HETATM   26  H15 UNL     1      25.678  -1.779  55.245  1.00  0.00     0.313 HD
HETATM   27  H16 UNL     1      24.544  -0.781  56.087  1.00  0.00     0.313 HD
ENDBRANCH  23  25
ENDBRANCH   4   8
TORSDOF 4
ENDMDL
MODEL 5
REMARK VINA RESULT:      -7.4      3.827      5.983
REMARK  4 active torsions:
REMARK  status: ('A' for Active; 'I' for Inactive)
REMARK    1  A    between atoms: C3_3  and  C17_22 
REMARK    2  A    between atoms: C4_4  and  C5_5 
REMARK    3  A    between atoms: C14_18  and  N5_19 
REMARK    4  A    between atoms: C17_22  and  C18_23 
ROOT
HETATM    1  C1  UNL     1      22.043   5.476  46.749  1.00  0.00     0.017 C 
HETATM    2  C2  UNL     1      22.997   6.060  47.256  1.00  0.00    -0.082 C 
HETATM    3  C3  UNL     1      24.101   6.730  47.868  1.00  0.00     0.000 C 
HETATM    4  C4  UNL     1      24.924   6.204  48.747  1.00  0.00     0.048 C 
ENDROOT
BRANCH   3   5
HETATM    5  C17 UNL     1      24.278   8.118  47.404  1.00  0.00     0.074 C 
BRANCH   5   6
HETATM    6  C18 UNL     1      25.729   8.412  47.293  1.00  0.00    -0.032 C 
HETATM    7  C19 UNL     1      26.256   8.524  46.058  1.00  0.00     0.007 C 
ENDBRANCH   5   6
ENDBRANCH   3   5
BRANCH   4   8
HETATM    8  C5  UNL     1      24.841   4.841  49.238  1.00  0.00     0.059 C 
HETATM    9  C6  UNL     1      26.157   4.445  49.303  1.00  0.00     0.032 C 
HETATM   10  C7  UNL     1      26.671   3.264  49.766  1.00  0.00     0.011 C 
HETATM   11  C8  UNL     1      26.310   2.767  50.974  1.00  0.00    -0.041 C 
HETATM   12  C9  UNL     1      25.089   3.143  51.525  1.00  0.00     0.121 C 
HETATM   13  C16 UNL     1      26.891   1.845  51.984  1.00  0.00     0.042 C 
HETATM   14  N1  UNL     1      23.858   2.781  51.996  1.00  0.00    -0.262 N 
HETATM   15  N2  UNL     1      22.799   3.277  51.386  1.00  0.00    -0.165 NA
HETATM   16  C11 UNL     1      23.918   1.883  53.127  1.00  0.00     0.266 C 
HETATM   17  C10 UNL     1      22.942   4.227  50.423  1.00  0.00     0.255 C 
HETATM   18  N3  UNL     1      23.952   3.923  49.606  1.00  0.00    -0.240 NA
HETATM   19  N4  UNL     1      23.938   0.533  52.686  1.00  0.00    -0.404 N 
HETATM   20  C12 UNL     1      24.375  -0.459  53.598  1.00  0.00     0.117 C 
HETATM   21  H9  UNL     1      23.110   0.244  52.129  1.00  0.00     0.154 HD
HETATM   22  C13 UNL     1      25.863  -0.391  53.891  1.00  0.00     0.054 C 
HETATM   23  C14 UNL     1      26.687  -0.595  52.634  1.00  0.00     0.219 C 
HETATM   24  C15 UNL     1      26.467   0.462  51.609  1.00  0.00     0.040 C 
BRANCH  23  25
HETATM   25  N5  UNL     1      28.075  -0.524  53.039  1.00  0.00     0.083 N 
HETATM   26  H15 UNL     1      28.197  -0.162  54.002  1.00  0.00     0.313 HD
HETATM   27  H16 UNL     1      28.693  -0.047  52.350  1.00  0.00     0.313 HD
ENDBRANCH  23  25
ENDBRANCH   4   8
TORSDOF 4
ENDMDL
MODEL 6
REMARK VINA RESULT:      -7.4      6.056      7.766
REMARK  4 active torsions:
REMARK  status: ('A' for Active; 'I' for Inactive)
REMARK    1  A    between atoms: C3_3  and  C17_22 
REMARK    2  A    between atoms: C4_4  and  C5_5 
REMARK    3  A    between atoms: C14_18  and  N5_19 
REMARK    4  A    between atoms: C17_22  and  C18_23 
ROOT
HETATM    1  C1  UNL     1      24.694   2.873  51.609  1.00  0.00     0.017 C 
HETATM    2  C2  UNL     1      24.214   3.465  50.646  1.00  0.00    -0.082 C 
HETATM    3  C3  UNL     1      23.660   4.175  49.537  1.00  0.00     0.000 C 
HETATM    4  C4  UNL     1      24.199   5.219  48.950  1.00  0.00     0.048 C 
ENDROOT
BRANCH   3   5
HETATM    5  C17 UNL     1      22.385   3.613  49.054  1.00  0.00     0.074 C 
BRANCH   5   6
HETATM    6  C18 UNL     1      22.643   2.296  48.420  1.00  0.00    -0.032 C 
HETATM    7  C19 UNL     1      21.684   1.355  48.513  1.00  0.00     0.007 C 
ENDBRANCH   5   6
ENDBRANCH   3   5
BRANCH   4   8
HETATM    8  C5  UNL     1      25.461   5.820  49.339  1.00  0.00     0.059 C 
HETATM    9  C6  UNL     1      26.390   5.107  48.619  1.00  0.00     0.032 C 
HETATM   10  C7  UNL     1      27.744   5.296  48.548  1.00  0.00     0.011 C 
HETATM   11  C8  UNL     1      28.271   6.518  48.294  1.00  0.00    -0.041 C 
HETATM   12  C9  UNL     1      27.526   7.654  48.595  1.00  0.00     0.121 C 
HETATM   13  C16 UNL     1      29.537   7.058  47.734  1.00  0.00     0.042 C 
HETATM   14  N1  UNL     1      27.408   8.825  49.290  1.00  0.00    -0.262 N 
HETATM   15  N2  UNL     1      26.391   8.944  50.121  1.00  0.00    -0.165 NA
HETATM   16  C11 UNL     1      28.453   9.778  48.989  1.00  0.00     0.266 C 
HETATM   17  C10 UNL     1      25.422   7.990  50.164  1.00  0.00     0.255 C 
HETATM   18  N3  UNL     1      25.959   6.769  50.127  1.00  0.00    -0.240 NA
HETATM   19  N4  UNL     1      29.558   9.591  49.861  1.00  0.00    -0.404 N 
HETATM   20  C12 UNL     1      30.804  10.151  49.487  1.00  0.00     0.117 C 
HETATM   21  H9  UNL     1      29.342   9.705  50.871  1.00  0.00     0.154 HD
HETATM   22  C13 UNL     1      31.446   9.451  48.303  1.00  0.00     0.054 C 
HETATM   23  C14 UNL     1      31.726   7.991  48.605  1.00  0.00     0.219 C 
HETATM   24  C15 UNL     1      30.493   7.200  48.875  1.00  0.00     0.040 C 
BRANCH  23  25
HETATM   25  N5  UNL     1      32.344   7.439  47.418  1.00  0.00     0.083 N 
HETATM   26  H15 UNL     1      31.657   7.178  46.688  1.00  0.00     0.313 HD
HETATM   27  H16 UNL     1      33.031   6.681  47.613  1.00  0.00     0.313 HD
ENDBRANCH  23  25
ENDBRANCH   4   8
TORSDOF 4
ENDMDL
MODEL 7
REMARK VINA RESULT:      -7.3      1.879      2.887
REMARK  4 active torsions:
REMARK  status: ('A' for Active; 'I' for Inactive)
REMARK    1  A    between atoms: C3_3  and  C17_22 
REMARK    2  A    between atoms: C4_4  and  C5_5 
REMARK    3  A    between atoms: C14_18  and  N5_19 
REMARK    4  A    between atoms: C17_22  and  C18_23 
ROOT
HETATM    1  C1  UNL     1      20.158   1.877  48.838  1.00  0.00     0.017 C 
HETATM    2  C2  UNL     1      19.967   2.261  49.989  1.00  0.00    -0.082 C 
HETATM    3  C3  UNL     1      19.754   2.687  51.336  1.00  0.00     0.000 C 
HETATM    4  C4  UNL     1      20.619   2.579  52.319  1.00  0.00     0.048 C 
ENDROOT
BRANCH   3   5
HETATM    5  C17 UNL     1      18.436   3.310  51.556  1.00  0.00     0.074 C 
BRANCH   5   6
HETATM    6  C18 UNL     1      17.373   2.353  51.160  1.00  0.00    -0.032 C 
HETATM    7  C19 UNL     1      16.213   2.857  50.694  1.00  0.00     0.007 C 
ENDBRANCH   5   6
ENDBRANCH   3   5
BRANCH   4   8
HETATM    8  C5  UNL     1      21.945   2.006  52.188  1.00  0.00     0.059 C 
HETATM    9  C6  UNL     1      22.775   3.099  52.276  1.00  0.00     0.032 C 
HETATM   10  C7  UNL     1      24.144   3.134  52.283  1.00  0.00     0.011 C 
HETATM   11  C8  UNL     1      24.862   2.338  53.111  1.00  0.00    -0.041 C 
HETATM   12  C9  UNL     1      24.294   1.159  53.582  1.00  0.00     0.121 C 
HETATM   13  C16 UNL     1      26.215   2.355  53.726  1.00  0.00     0.042 C 
HETATM   14  N1  UNL     1      24.337  -0.204  53.676  1.00  0.00    -0.262 N 
HETATM   15  N2  UNL     1      23.324  -0.884  53.176  1.00  0.00    -0.165 NA
HETATM   16  C11 UNL     1      25.527  -0.696  54.333  1.00  0.00     0.266 C 
HETATM   17  C10 UNL     1      22.218  -0.237  52.721  1.00  0.00     0.255 C 
HETATM   18  N3  UNL     1      22.559   0.839  52.009  1.00  0.00    -0.240 NA
HETATM   19  N4  UNL     1      26.560  -0.917  53.383  1.00  0.00    -0.404 N 
HETATM   20  C12 UNL     1      27.890  -1.025  53.859  1.00  0.00     0.117 C 
HETATM   21  H9  UNL     1      26.331  -1.607  52.641  1.00  0.00     0.154 HD
HETATM   22  C13 UNL     1      28.454   0.289  54.369  1.00  0.00     0.054 C 
HETATM   23  C14 UNL     1      28.492   1.339  53.276  1.00  0.00     0.219 C 
HETATM   24  C15 UNL     1      27.143   1.697  52.756  1.00  0.00     0.040 C 
BRANCH  23  25
HETATM   25  N5  UNL     1      29.056   2.531  53.874  1.00  0.00     0.083 N 
HETATM   26  H15 UNL     1      30.093   2.543  53.854  1.00  0.00     0.313 HD
HETATM   27  H16 UNL     1      28.670   2.756  54.814  1.00  0.00     0.313 HD
ENDBRANCH  23  25
ENDBRANCH   4   8
TORSDOF 4
ENDMDL
MODEL 8
REMARK VINA RESULT:      -7.3      3.939      6.306
REMARK  4 active torsions:
REMARK  status: ('A' for Active; 'I' for Inactive)
REMARK    1  A    between atoms: C3_3  and  C17_22 
REMARK    2  A    between atoms: C4_4  and  C5_5 
REMARK    3  A    between atoms: C14_18  and  N5_19 
REMARK    4  A    between atoms: C17_22  and  C18_23 
ROOT
HETATM    1  C1  UNL     1      25.542   0.042  53.390  1.00  0.00     0.017 C 
HETATM    2  C2  UNL     1      24.406   0.190  52.947  1.00  0.00    -0.082 C 
HETATM    3  C3  UNL     1      23.084   0.385  52.441  1.00  0.00     0.000 C 
HETATM    4  C4  UNL     1      22.673   1.428  51.756  1.00  0.00     0.048 C 
ENDROOT
BRANCH   3   5
HETATM    5  C17 UNL     1      22.170  -0.734  52.734  1.00  0.00     0.074 C 
BRANCH   5   6
HETATM    6  C18 UNL     1      21.944  -0.807  54.199  1.00  0.00    -0.032 C 
HETATM    7  C19 UNL     1      21.025   0.018  54.737  1.00  0.00     0.007 C 
ENDBRANCH   5   6
ENDBRANCH   3   5
BRANCH   4   8
HETATM    8  C5  UNL     1      23.510   2.558  51.399  1.00  0.00     0.059 C 
HETATM    9  C6  UNL     1      23.530   2.518  50.024  1.00  0.00     0.032 C 
HETATM   10  C7  UNL     1      24.117   3.396  49.153  1.00  0.00     0.011 C 
HETATM   11  C8  UNL     1      23.912   4.732  49.256  1.00  0.00    -0.041 C 
HETATM   12  C9  UNL     1      23.543   5.268  50.486  1.00  0.00     0.121 C 
HETATM   13  C16 UNL     1      23.970   5.910  48.354  1.00  0.00     0.042 C 
HETATM   14  N1  UNL     1      23.814   6.124  51.517  1.00  0.00    -0.262 N 
HETATM   15  N2  UNL     1      23.968   5.604  52.719  1.00  0.00    -0.165 NA
HETATM   16  C11 UNL     1      23.890   7.509  51.109  1.00  0.00     0.266 C 
HETATM   17  C10 UNL     1      23.716   4.285  52.936  1.00  0.00     0.255 C 
HETATM   18  N3  UNL     1      24.219   3.540  51.949  1.00  0.00    -0.240 NA
HETATM   19  N4  UNL     1      25.218   7.841  50.732  1.00  0.00    -0.404 N 
HETATM   20  C12 UNL     1      25.417   9.008  49.953  1.00  0.00     0.117 C 
HETATM   21  H9  UNL     1      25.928   7.720  51.481  1.00  0.00     0.154 HD
HETATM   22  C13 UNL     1      24.903   8.876  48.531  1.00  0.00     0.054 C 
HETATM   23  C14 UNL     1      25.608   7.759  47.786  1.00  0.00     0.219 C 
HETATM   24  C15 UNL     1      25.377   6.415  48.386  1.00  0.00     0.040 C 
BRANCH  23  25
HETATM   25  N5  UNL     1      25.047   7.740  46.451  1.00  0.00     0.083 N 
HETATM   26  H15 UNL     1      25.244   8.607  45.918  1.00  0.00     0.313 HD
HETATM   27  H16 UNL     1      24.044   7.467  46.418  1.00  0.00     0.313 HD
ENDBRANCH  23  25
ENDBRANCH   4   8
TORSDOF 4
ENDMDL
MODEL 9
REMARK VINA RESULT:      -7.3      2.884      7.363
REMARK  4 active torsions:
REMARK  status: ('A' for Active; 'I' for Inactive)
REMARK    1  A    between atoms: C3_3  and  C17_22 
REMARK    2  A    between atoms: C4_4  and  C5_5 
REMARK    3  A    between atoms: C14_18  and  N5_19 
REMARK    4  A    between atoms: C17_22  and  C18_23 
ROOT
HETATM    1  C1  UNL     1      24.062  -0.525  53.079  1.00  0.00     0.017 C 
HETATM    2  C2  UNL     1      25.249  -0.257  52.914  1.00  0.00    -0.082 C 
HETATM    3  C3  UNL     1      26.625   0.064  52.698  1.00  0.00     0.000 C 
HETATM    4  C4  UNL     1      27.080   1.199  52.217  1.00  0.00     0.048 C 
ENDROOT
BRANCH   3   5
HETATM    5  C17 UNL     1      27.551  -1.012  53.097  1.00  0.00     0.074 C 
BRANCH   5   6
HETATM    6  C18 UNL     1      28.683  -0.424  53.855  1.00  0.00    -0.032 C 
HETATM    7  C19 UNL     1      29.930  -0.820  53.532  1.00  0.00     0.007 C 
ENDBRANCH   5   6
ENDBRANCH   3   5
BRANCH   4   8
HETATM    8  C5  UNL     1      26.245   2.319  51.826  1.00  0.00     0.059 C 
HETATM    9  C6  UNL     1      26.404   2.375  50.461  1.00  0.00     0.032 C 
HETATM   10  C7  UNL     1      25.788   3.205  49.563  1.00  0.00     0.011 C 
HETATM   11  C8  UNL     1      24.442   3.362  49.560  1.00  0.00    -0.041 C 
HETATM   12  C9  UNL     1      23.727   3.110  50.726  1.00  0.00     0.121 C 
HETATM   13  C16 UNL     1      23.401   3.765  48.580  1.00  0.00     0.042 C 
HETATM   14  N1  UNL     1      22.891   3.566  51.706  1.00  0.00    -0.262 N 
HETATM   15  N2  UNL     1      23.330   3.534  52.949  1.00  0.00    -0.165 NA
HETATM   16  C11 UNL     1      21.615   4.024  51.205  1.00  0.00     0.266 C 
HETATM   17  C10 UNL     1      24.513   2.930  53.246  1.00  0.00     0.255 C 
HETATM   18  N3  UNL     1      25.444   3.247  52.343  1.00  0.00    -0.240 NA
HETATM   19  N4  UNL     1      21.679   5.405  50.879  1.00  0.00    -0.404 N 
HETATM   20  C12 UNL     1      20.675   5.936  50.031  1.00  0.00     0.117 C 
HETATM   21  H9  UNL     1      21.920   6.030  51.673  1.00  0.00     0.154 HD
HETATM   22  C13 UNL     1      20.784   5.453  48.596  1.00  0.00     0.054 C 
HETATM   23  C14 UNL     1      22.107   5.857  47.972  1.00  0.00     0.219 C 
HETATM   24  C15 UNL     1      23.286   5.254  48.652  1.00  0.00     0.040 C 
BRANCH  23  25
HETATM   25  N5  UNL     1      22.087   5.358  46.613  1.00  0.00     0.083 N 
HETATM   26  H15 UNL     1      22.502   4.412  46.524  1.00  0.00     0.313 HD
HETATM   27  H16 UNL     1      22.462   6.028  45.911  1.00  0.00     0.313 HD
ENDBRANCH  23  25
ENDBRANCH   4   8
TORSDOF 4
ENDMDL
