MODEL 1
REMARK VINA RESULT:      -7.6      0.000      0.000
REMARK  3 active torsions:
REMARK  status: ('A' for Active; 'I' for Inactive)
REMARK    1  A    between atoms: C8_9  and  N2_10 
REMARK    2  A    between atoms: C9_11  and  S1_12 
REMARK    3  A    between atoms: S1_12  and  N3_13 
ROOT
HETATM    1  C1  UNL     1      26.712  -0.334  51.987  1.00  0.00     0.066 C 
HETATM    2  C2  UNL     1      25.750  -0.575  53.112  1.00  0.00     0.135 A 
HETATM    3  C3  UNL     1      24.407  -0.670  53.198  1.00  0.00     0.049 C 
HETATM    4  C4  UNL     1      22.964  -0.794  53.416  1.00  0.00     0.038 C 
HETATM    5  C5  UNL     1      22.164   0.410  53.101  1.00  0.00     0.000 C 
HETATM    6  C6  UNL     1      22.207   1.699  52.823  1.00  0.00     0.088 C 
HETATM    7  C7  UNL     1      20.999   2.479  52.564  1.00  0.00     0.103 C 
HETATM    8  N1  UNL     1      20.010   3.093  52.356  1.00  0.00    -0.191 NA
HETATM    9  C8  UNL     1      23.347   2.643  52.808  1.00  0.00     0.171 C 
HETATM   10  N4  UNL     1      24.594   2.946  53.080  1.00  0.00    -0.223 NA
HETATM   11  C10 UNL     1      25.410   1.962  53.734  1.00  0.00     0.215 C 
HETATM   12  N5  UNL     1      25.933   0.814  53.902  1.00  0.00    -0.306 N 
HETATM   13  C11 UNL     1      26.812   0.413  54.926  1.00  0.00     0.209 A 
HETATM   14  N6  UNL     1      26.629  -0.696  54.252  1.00  0.00    -0.252 NA
ENDROOT
BRANCH   9  15
HETATM   15  N2  UNL     1      23.543   4.006  52.496  1.00  0.00    -0.227 NA
HETATM   16  C9  UNL     1      24.020   4.353  51.355  1.00  0.00     0.244 C 
BRANCH  16  17
HETATM   17  S1  UNL     1      24.400   5.875  50.607  1.00  0.00     0.245 S 
HETATM   18  O1  UNL     1      25.748   5.753  49.970  1.00  0.00    -0.205 OA
HETATM   19  O2  UNL     1      23.349   6.229  49.583  1.00  0.00    -0.205 OA
BRANCH  17  20
HETATM   20  N3  UNL     1      24.476   7.158  51.775  1.00  0.00    -0.225 NA
HETATM   21  H9  UNL     1      23.884   7.937  51.392  1.00  0.00     0.136 HD
HETATM   22  H10 UNL     1      25.467   7.529  51.693  1.00  0.00     0.136 HD
ENDBRANCH  17  20
ENDBRANCH  16  17
ENDBRANCH   9  15
TORSDOF 3
ENDMDL
MODEL 2
REMARK VINA RESULT:      -7.3      3.501      5.555
REMARK  3 active torsions:
REMARK  status: ('A' for Active; 'I' for Inactive)
REMARK    1  A    between atoms: C8_9  and  N2_10 
REMARK    2  A    between atoms: C9_11  and  S1_12 
REMARK    3  A    between atoms: S1_12  and  N3_13 
ROOT
HETATM    1  C1  UNL     1      22.992   4.847  51.933  1.00  0.00     0.066 C 
HETATM    2  C2  UNL     1      21.972   3.823  51.531  1.00  0.00     0.135 A 
HETATM    3  C3  UNL     1      21.218   2.931  52.204  1.00  0.00     0.049 C 
HETATM    4  C4  UNL     1      20.350   1.926  52.823  1.00  0.00     0.038 C 
HETATM    5  C5  UNL     1      21.045   0.831  53.534  1.00  0.00     0.000 C 
HETATM    6  C6  UNL     1      22.206   0.241  53.748  1.00  0.00     0.088 C 
HETATM    7  C7  UNL     1      22.340  -0.911  54.637  1.00  0.00     0.103 C 
HETATM    8  N1  UNL     1      22.429  -1.841  55.362  1.00  0.00    -0.191 NA
HETATM    9  C8  UNL     1      23.531   0.472  53.131  1.00  0.00     0.171 C 
HETATM   10  N4  UNL     1      24.294   1.017  52.214  1.00  0.00    -0.223 NA
HETATM   11  C10 UNL     1      23.678   1.842  51.213  1.00  0.00     0.215 C 
HETATM   12  N5  UNL     1      22.942   2.784  50.778  1.00  0.00    -0.306 N 
HETATM   13  C11 UNL     1      22.713   3.145  49.436  1.00  0.00     0.209 A 
HETATM   14  N6  UNL     1      21.936   3.971  50.094  1.00  0.00    -0.252 NA
ENDROOT
BRANCH   9  15
HETATM   15  N2  UNL     1      24.836  -0.042  53.288  1.00  0.00    -0.227 NA
HETATM   16  C9  UNL     1      25.788   0.708  53.713  1.00  0.00     0.244 C 
BRANCH  16  17
HETATM   17  S1  UNL     1      27.479   0.466  54.034  1.00  0.00     0.245 S 
HETATM   18  O1  UNL     1      27.601  -0.329  55.294  1.00  0.00    -0.205 OA
HETATM   19  O2  UNL     1      28.131  -0.251  52.877  1.00  0.00    -0.205 OA
BRANCH  17  20
HETATM   20  N3  UNL     1      28.305   1.976  54.273  1.00  0.00    -0.225 NA
HETATM   21  H9  UNL     1      28.326   2.135  55.311  1.00  0.00     0.136 HD
HETATM   22  H10 UNL     1      27.623   2.707  53.917  1.00  0.00     0.136 HD
ENDBRANCH  17  20
ENDBRANCH  16  17
ENDBRANCH   9  15
TORSDOF 3
ENDMDL
MODEL 3
REMARK VINA RESULT:      -7.0      3.832      6.400
REMARK  3 active torsions:
REMARK  status: ('A' for Active; 'I' for Inactive)
REMARK    1  A    between atoms: C8_9  and  N2_10 
REMARK    2  A    between atoms: C9_11  and  S1_12 
REMARK    3  A    between atoms: S1_12  and  N3_13 
ROOT
HETATM    1  C1  UNL     1      22.414   3.702  49.545  1.00  0.00     0.066 C 
HETATM    2  C2  UNL     1      23.797   4.186  49.863  1.00  0.00     0.135 A 
HETATM    3  C3  UNL     1      25.021   3.620  49.843  1.00  0.00     0.049 C 
HETATM    4  C4  UNL     1      26.396   3.116  49.860  1.00  0.00     0.038 C 
HETATM    5  C5  UNL     1      26.660   2.006  50.802  1.00  0.00     0.000 C 
HETATM    6  C6  UNL     1      26.188   1.312  51.820  1.00  0.00     0.088 C 
HETATM    7  C7  UNL     1      26.932   0.205  52.418  1.00  0.00     0.103 C 
HETATM    8  N1  UNL     1      27.550  -0.687  52.887  1.00  0.00    -0.191 NA
HETATM    9  C8  UNL     1      24.965   1.503  52.631  1.00  0.00     0.171 C 
HETATM   10  N4  UNL     1      23.930   2.219  53.001  1.00  0.00    -0.223 NA
HETATM   11  C10 UNL     1      23.747   3.514  52.409  1.00  0.00     0.215 C 
HETATM   12  N5  UNL     1      23.646   4.351  51.456  1.00  0.00    -0.306 N 
HETATM   13  C11 UNL     1      23.429   5.739  51.551  1.00  0.00     0.209 A 
HETATM   14  N6  UNL     1      23.562   5.555  50.260  1.00  0.00    -0.252 NA
ENDROOT
BRANCH   9  15
HETATM   15  N2  UNL     1      24.328   0.831  53.696  1.00  0.00    -0.227 NA
HETATM   16  C9  UNL     1      23.327   0.057  53.476  1.00  0.00     0.244 C 
BRANCH  16  17
HETATM   17  S1  UNL     1      22.300  -0.921  54.480  1.00  0.00     0.245 S 
HETATM   18  O1  UNL     1      21.233  -0.039  55.047  1.00  0.00    -0.205 OA
HETATM   19  O2  UNL     1      21.698  -2.045  53.672  1.00  0.00    -0.205 OA
BRANCH  17  20
HETATM   20  N3  UNL     1      23.179  -1.615  55.807  1.00  0.00    -0.225 NA
HETATM   21  H9  UNL     1      24.177  -1.690  55.488  1.00  0.00     0.136 HD
HETATM   22  H10 UNL     1      22.847  -2.622  55.844  1.00  0.00     0.136 HD
ENDBRANCH  17  20
ENDBRANCH  16  17
ENDBRANCH   9  15
TORSDOF 3
ENDMDL
MODEL 4
REMARK VINA RESULT:      -6.6      1.985      4.329
REMARK  3 active torsions:
REMARK  status: ('A' for Active; 'I' for Inactive)
REMARK    1  A    between atoms: C8_9  and  N2_10 
REMARK    2  A    between atoms: C9_11  and  S1_12 
REMARK    3  A    between atoms: S1_12  and  N3_13 
ROOT
HETATM    1  C1  UNL     1      20.556   2.527  52.582  1.00  0.00     0.066 C 
HETATM    2  C2  UNL     1      21.301   1.228  52.489  1.00  0.00     0.135 A 
HETATM    3  C3  UNL     1      22.440   0.756  53.036  1.00  0.00     0.049 C 
HETATM    4  C4  UNL     1      23.655   0.134  53.567  1.00  0.00     0.038 C 
HETATM    5  C5  UNL     1      24.927   0.792  53.194  1.00  0.00     0.000 C 
HETATM    6  C6  UNL     1      25.495   1.688  52.409  1.00  0.00     0.088 C 
HETATM    7  C7  UNL     1      26.926   1.978  52.470  1.00  0.00     0.103 C 
HETATM    8  N1  UNL     1      28.086   2.199  52.535  1.00  0.00    -0.191 NA
HETATM    9  C8  UNL     1      24.937   2.479  51.290  1.00  0.00     0.171 C 
HETATM   10  N4  UNL     1      23.984   2.739  50.426  1.00  0.00    -0.223 NA
HETATM   11  C10 UNL     1      22.806   1.918  50.441  1.00  0.00     0.215 C 
HETATM   12  N5  UNL     1      21.804   1.336  50.965  1.00  0.00    -0.306 N 
HETATM   13  C11 UNL     1      20.850   0.523  50.323  1.00  0.00     0.209 A 
HETATM   14  N6  UNL     1      20.480   0.465  51.579  1.00  0.00    -0.252 NA
ENDROOT
BRANCH   9  15
HETATM   15  N2  UNL     1      25.405   3.479  50.411  1.00  0.00    -0.227 NA
HETATM   16  C9  UNL     1      25.042   4.703  50.558  1.00  0.00     0.244 C 
BRANCH  16  17
HETATM   17  S1  UNL     1      25.384   6.184  49.717  1.00  0.00     0.245 S 
HETATM   18  O1  UNL     1      26.405   5.893  48.664  1.00  0.00    -0.205 OA
HETATM   19  O2  UNL     1      24.120   6.739  49.105  1.00  0.00    -0.205 OA
BRANCH  17  20
HETATM   20  N3  UNL     1      26.045   7.385  50.783  1.00  0.00    -0.225 NA
HETATM   21  H9  UNL     1      25.859   8.313  50.328  1.00  0.00     0.136 HD
HETATM   22  H10 UNL     1      27.096   7.265  50.694  1.00  0.00     0.136 HD
ENDBRANCH  17  20
ENDBRANCH  16  17
ENDBRANCH   9  15
TORSDOF 3
ENDMDL
MODEL 5
REMARK VINA RESULT:      -6.5      4.200      6.036
REMARK  3 active torsions:
REMARK  status: ('A' for Active; 'I' for Inactive)
REMARK    1  A    between atoms: C8_9  and  N2_10 
REMARK    2  A    between atoms: C9_11  and  S1_12 
REMARK    3  A    between atoms: S1_12  and  N3_13 
ROOT
HETATM    1  C1  UNL     1      23.272   2.835  49.444  1.00  0.00     0.066 C 
HETATM    2  C2  UNL     1      23.999   2.831  50.756  1.00  0.00     0.135 A 
HETATM    3  C3  UNL     1      24.403   1.865  51.605  1.00  0.00     0.049 C 
HETATM    4  C4  UNL     1      24.891   0.908  52.600  1.00  0.00     0.038 C 
HETATM    5  C5  UNL     1      23.851   0.095  53.271  1.00  0.00     0.000 C 
HETATM    6  C6  UNL     1      22.557  -0.051  53.479  1.00  0.00     0.088 C 
HETATM    7  C7  UNL     1      22.020  -1.139  54.295  1.00  0.00     0.103 C 
HETATM    8  N1  UNL     1      21.604  -2.025  54.957  1.00  0.00    -0.191 NA
HETATM    9  C8  UNL     1      21.416   0.807  53.092  1.00  0.00     0.171 C 
HETATM   10  N4  UNL     1      20.929   1.934  52.628  1.00  0.00    -0.223 NA
HETATM   11  C10 UNL     1      21.845   2.978  52.265  1.00  0.00     0.215 C 
HETATM   12  N5  UNL     1      22.854   3.484  51.679  1.00  0.00    -0.306 N 
HETATM   13  C11 UNL     1      23.304   4.817  51.741  1.00  0.00     0.209 A 
HETATM   14  N6  UNL     1      24.214   4.240  50.994  1.00  0.00    -0.252 NA
ENDROOT
BRANCH   9  15
HETATM   15  N2  UNL     1      20.010   0.756  53.208  1.00  0.00    -0.227 NA
HETATM   16  C9  UNL     1      19.298   0.200  52.295  1.00  0.00     0.244 C 
BRANCH  16  17
HETATM   17  S1  UNL     1      17.595  -0.063  52.071  1.00  0.00     0.245 S 
HETATM   18  O1  UNL     1      16.932   1.272  51.957  1.00  0.00    -0.205 OA
HETATM   19  O2  UNL     1      17.354  -0.893  50.833  1.00  0.00    -0.205 OA
BRANCH  17  20
HETATM   20  N3  UNL     1      16.894  -0.892  53.426  1.00  0.00    -0.225 NA
HETATM   21  H9  UNL     1      17.215  -1.890  53.357  1.00  0.00     0.136 HD
HETATM   22  H10 UNL     1      15.858  -0.942  53.196  1.00  0.00     0.136 HD
ENDBRANCH  17  20
ENDBRANCH  16  17
ENDBRANCH   9  15
TORSDOF 3
ENDMDL
MODEL 6
REMARK VINA RESULT:      -6.4      3.030      5.499
REMARK  3 active torsions:
REMARK  status: ('A' for Active; 'I' for Inactive)
REMARK    1  A    between atoms: C8_9  and  N2_10 
REMARK    2  A    between atoms: C9_11  and  S1_12 
REMARK    3  A    between atoms: S1_12  and  N3_13 
ROOT
HETATM    1  C1  UNL     1      19.178   2.968  51.732  1.00  0.00     0.066 C 
HETATM    2  C2  UNL     1      19.318   1.496  51.481  1.00  0.00     0.135 A 
HETATM    3  C3  UNL     1      19.518   0.421  52.271  1.00  0.00     0.049 C 
HETATM    4  C4  UNL     1      19.731  -0.817  53.024  1.00  0.00     0.038 C 
HETATM    5  C5  UNL     1      21.012  -0.906  53.759  1.00  0.00     0.000 C 
HETATM    6  C6  UNL     1      22.205  -0.369  53.929  1.00  0.00     0.088 C 
HETATM    7  C7  UNL     1      23.170  -0.905  54.888  1.00  0.00     0.103 C 
HETATM    8  N1  UNL     1      23.935  -1.353  55.669  1.00  0.00    -0.191 NA
HETATM    9  C8  UNL     1      22.878   0.730  53.202  1.00  0.00     0.171 C 
HETATM   10  N4  UNL     1      22.954   1.566  52.193  1.00  0.00    -0.223 NA
HETATM   11  C10 UNL     1      21.935   1.514  51.183  1.00  0.00     0.215 C 
HETATM   12  N5  UNL     1      20.744   1.503  50.736  1.00  0.00    -0.306 N 
HETATM   13  C11 UNL     1      20.332   1.418  49.393  1.00  0.00     0.209 A 
HETATM   14  N6  UNL     1      19.195   1.414  50.044  1.00  0.00    -0.252 NA
ENDROOT
BRANCH   9  15
HETATM   15  N2  UNL     1      24.106   1.420  53.298  1.00  0.00    -0.227 NA
HETATM   16  C9  UNL     1      25.162   0.958  52.732  1.00  0.00     0.244 C 
BRANCH  16  17
HETATM   17  S1  UNL     1      26.813   1.488  52.617  1.00  0.00     0.245 S 
HETATM   18  O1  UNL     1      27.692   0.280  52.674  1.00  0.00    -0.205 OA
HETATM   19  O2  UNL     1      27.027   2.251  51.332  1.00  0.00    -0.205 OA
BRANCH  17  20
HETATM   20  N3  UNL     1      27.244   2.524  53.942  1.00  0.00    -0.225 NA
HETATM   21  H9  UNL     1      27.112   1.953  54.814  1.00  0.00     0.136 HD
HETATM   22  H10 UNL     1      26.458   3.237  53.984  1.00  0.00     0.136 HD
ENDBRANCH  17  20
ENDBRANCH  16  17
ENDBRANCH   9  15
TORSDOF 3
ENDMDL
MODEL 7
REMARK VINA RESULT:      -6.3      5.954      8.032
REMARK  3 active torsions:
REMARK  status: ('A' for Active; 'I' for Inactive)
REMARK    1  A    between atoms: C8_9  and  N2_10 
REMARK    2  A    between atoms: C9_11  and  S1_12 
REMARK    3  A    between atoms: S1_12  and  N3_13 
ROOT
HETATM    1  C1  UNL     1      23.862   7.053  51.001  1.00  0.00     0.066 C 
HETATM    2  C2  UNL     1      23.998   5.935  50.010  1.00  0.00     0.135 A 
HETATM    3  C3  UNL     1      24.937   4.998  49.772  1.00  0.00     0.049 C 
HETATM    4  C4  UNL     1      25.883   3.936  49.419  1.00  0.00     0.038 C 
HETATM    5  C5  UNL     1      27.214   4.391  48.960  1.00  0.00     0.000 C 
HETATM    6  C6  UNL     1      27.928   5.427  48.563  1.00  0.00     0.088 C 
HETATM    7  C7  UNL     1      29.340   5.305  48.203  1.00  0.00     0.103 C 
HETATM    8  N1  UNL     1      30.481   5.186  47.918  1.00  0.00    -0.191 NA
HETATM    9  C8  UNL     1      27.527   6.824  48.285  1.00  0.00     0.171 C 
HETATM   10  N4  UNL     1      26.609   7.742  48.099  1.00  0.00    -0.223 NA
HETATM   11  C10 UNL     1      25.228   7.352  48.162  1.00  0.00     0.215 C 
HETATM   12  N5  UNL     1      24.199   6.808  48.673  1.00  0.00    -0.306 N 
HETATM   13  C11 UNL     1      22.897   6.762  48.139  1.00  0.00     0.209 A 
HETATM   14  N6  UNL     1      22.782   6.057  49.239  1.00  0.00    -0.252 NA
ENDROOT
BRANCH   9  15
HETATM   15  N2  UNL     1      28.175   8.018  47.902  1.00  0.00    -0.227 NA
HETATM   16  C9  UNL     1      28.552   8.870  48.787  1.00  0.00     0.244 C 
BRANCH  16  17
HETATM   17  S1  UNL     1      29.355  10.410  48.730  1.00  0.00     0.245 S 
HETATM   18  O1  UNL     1      30.627  10.297  49.509  1.00  0.00    -0.205 OA
HETATM   19  O2  UNL     1      29.632  10.801  47.299  1.00  0.00    -0.205 OA
BRANCH  17  20
HETATM   20  N3  UNL     1      28.393  11.658  49.459  1.00  0.00    -0.225 NA
HETATM   21  H9  UNL     1      29.071  12.349  49.867  1.00  0.00     0.136 HD
HETATM   22  H10 UNL     1      27.961  11.194  50.310  1.00  0.00     0.136 HD
ENDBRANCH  17  20
ENDBRANCH  16  17
ENDBRANCH   9  15
TORSDOF 3
ENDMDL
MODEL 8
REMARK VINA RESULT:      -6.2      3.355      6.409
REMARK  3 active torsions:
REMARK  status: ('A' for Active; 'I' for Inactive)
REMARK    1  A    between atoms: C8_9  and  N2_10 
REMARK    2  A    between atoms: C9_11  and  S1_12 
REMARK    3  A    between atoms: S1_12  and  N3_13 
ROOT
HETATM    1  C1  UNL     1      23.216   5.905  48.286  1.00  0.00     0.066 C 
HETATM    2  C2  UNL     1      24.578   6.047  48.900  1.00  0.00     0.135 A 
HETATM    3  C3  UNL     1      25.632   5.220  49.053  1.00  0.00     0.049 C 
HETATM    4  C4  UNL     1      26.837   4.418  49.277  1.00  0.00     0.038 C 
HETATM    5  C5  UNL     1      26.664   3.229  50.141  1.00  0.00     0.000 C 
HETATM    6  C6  UNL     1      25.860   2.608  50.982  1.00  0.00     0.088 C 
HETATM    7  C7  UNL     1      26.217   1.332  51.599  1.00  0.00     0.103 C 
HETATM    8  N1  UNL     1      26.523   0.299  52.087  1.00  0.00    -0.191 NA
HETATM    9  C8  UNL     1      24.567   3.028  51.566  1.00  0.00     0.171 C 
HETATM   10  N4  UNL     1      23.654   3.939  51.805  1.00  0.00    -0.223 NA
HETATM   11  C10 UNL     1      23.872   5.271  51.316  1.00  0.00     0.215 C 
HETATM   12  N5  UNL     1      24.145   6.158  50.446  1.00  0.00    -0.306 N 
HETATM   13  C11 UNL     1      24.213   7.552  50.631  1.00  0.00     0.209 A 
HETATM   14  N6  UNL     1      24.562   7.411  49.376  1.00  0.00    -0.252 NA
ENDROOT
BRANCH   9  15
HETATM   15  N2  UNL     1      23.600   2.462  52.426  1.00  0.00    -0.227 NA
HETATM   16  C9  UNL     1      22.486   2.025  51.959  1.00  0.00     0.244 C 
BRANCH  16  17
HETATM   17  S1  UNL     1      21.080   1.282  52.660  1.00  0.00     0.245 S 
HETATM   18  O1  UNL     1      20.147   2.370  53.086  1.00  0.00    -0.205 OA
HETATM   19  O2  UNL     1      20.420   0.366  51.658  1.00  0.00    -0.205 OA
BRANCH  17  20
HETATM   20  N3  UNL     1      21.487   0.348  54.066  1.00  0.00    -0.225 NA
HETATM   21  H9  UNL     1      22.318   0.821  54.501  1.00  0.00     0.136 HD
HETATM   22  H10 UNL     1      21.884  -0.555  53.675  1.00  0.00     0.136 HD
ENDBRANCH  17  20
ENDBRANCH  16  17
ENDBRANCH   9  15
TORSDOF 3
ENDMDL
MODEL 9
REMARK VINA RESULT:      -6.2      6.996      9.223
REMARK  3 active torsions:
REMARK  status: ('A' for Active; 'I' for Inactive)
REMARK    1  A    between atoms: C8_9  and  N2_10 
REMARK    2  A    between atoms: C9_11  and  S1_12 
REMARK    3  A    between atoms: S1_12  and  N3_13 
ROOT
HETATM    1  C1  UNL     1      24.893   7.296  50.419  1.00  0.00     0.066 C 
HETATM    2  C2  UNL     1      25.289   6.330  49.341  1.00  0.00     0.135 A 
HETATM    3  C3  UNL     1      26.416   5.647  49.058  1.00  0.00     0.049 C 
HETATM    4  C4  UNL     1      27.580   4.856  48.649  1.00  0.00     0.038 C 
HETATM    5  C5  UNL     1      28.783   5.632  48.277  1.00  0.00     0.000 C 
HETATM    6  C6  UNL     1      29.255   6.831  47.993  1.00  0.00     0.088 C 
HETATM    7  C7  UNL     1      30.664   7.056  47.674  1.00  0.00     0.103 C 
HETATM    8  N1  UNL     1      31.807   7.217  47.419  1.00  0.00    -0.191 NA
HETATM    9  C8  UNL     1      28.558   8.125  47.821  1.00  0.00     0.171 C 
HETATM   10  N4  UNL     1      27.462   8.832  47.682  1.00  0.00    -0.223 NA
HETATM   11  C10 UNL     1      26.202   8.144  47.664  1.00  0.00     0.215 C 
HETATM   12  N5  UNL     1      25.311   7.343  48.092  1.00  0.00    -0.306 N 
HETATM   13  C11 UNL     1      24.060   7.060  47.511  1.00  0.00     0.209 A 
HETATM   14  N6  UNL     1      24.089   6.251  48.542  1.00  0.00    -0.252 NA
ENDROOT
BRANCH   9  15
HETATM   15  N2  UNL     1      28.930   9.462  47.564  1.00  0.00    -0.227 NA
HETATM   16  C9  UNL     1      29.130  10.283  48.532  1.00  0.00     0.244 C 
BRANCH  16  17
HETATM   17  S1  UNL     1      29.586  11.957  48.634  1.00  0.00     0.245 S 
HETATM   18  O1  UNL     1      30.935  12.030  49.276  1.00  0.00    -0.205 OA
HETATM   19  O2  UNL     1      29.608  12.576  47.258  1.00  0.00    -0.205 OA
BRANCH  17  20
HETATM   20  N3  UNL     1      28.477  12.860  49.619  1.00  0.00    -0.225 NA
HETATM   21  H9  UNL     1      29.058  13.328  50.359  1.00  0.00     0.136 HD
HETATM   22  H10 UNL     1      27.936  12.119  50.152  1.00  0.00     0.136 HD
ENDBRANCH  17  20
ENDBRANCH  16  17
ENDBRANCH   9  15
TORSDOF 3
ENDMDL
