MODEL 1
REMARK VINA RESULT:      -9.0      0.000      0.000
REMARK  2 active torsions:
REMARK  status: ('A' for Active; 'I' for Inactive)
REMARK    1  A    between atoms: C5_5  and  C6_6 
REMARK    2  A    between atoms: C14_18  and  N4_19 
ROOT
HETATM    1  C1  UNL     1      21.284   1.390  50.421  1.00  0.00     0.050 C 
HETATM    2  C2  UNL     1      20.511   0.589  51.388  1.00  0.00    -0.033 C 
HETATM    3  C3  UNL     1      21.024  -0.008  52.458  1.00  0.00     0.065 A 
HETATM    4  C4  UNL     1      22.108  -0.374  53.359  1.00  0.00     0.068 A 
HETATM    5  C5  UNL     1      23.443  -0.232  53.571  1.00  0.00     0.084 A 
HETATM    6  N1  UNL     1      23.943  -0.856  54.678  1.00  0.00    -0.240 NA
HETATM    7  C12 UNL     1      23.105  -1.554  55.466  1.00  0.00     0.236 A 
HETATM    8  N2  UNL     1      21.785  -1.687  55.244  1.00  0.00    -0.223 NA
HETATM    9  C13 UNL     1      21.255  -1.079  54.153  1.00  0.00     0.152 A 
HETATM   10  N3  UNL     1      20.155  -0.753  53.306  1.00  0.00    -0.279 N 
HETATM   11  C14 UNL     1      18.770  -0.842  52.996  1.00  0.00     0.118 C 
HETATM   12  C15 UNL     1      18.324  -0.431  51.826  1.00  0.00     0.023 C 
HETATM   13  C16 UNL     1      19.058   0.425  51.170  1.00  0.00     0.025 C 
ENDROOT
BRANCH   5  14
HETATM   14  C6  UNL     1      24.418   0.490  52.791  1.00  0.00    -0.005 A 
HETATM   15  C7  UNL     1      25.680  -0.103  52.698  1.00  0.00     0.014 A 
HETATM   16  C8  UNL     1      26.717   0.462  51.989  1.00  0.00     0.002 A 
HETATM   17  C9  UNL     1      26.418   1.662  51.375  1.00  0.00     0.019 A 
HETATM   18  C10 UNL     1      25.217   2.316  51.408  1.00  0.00     0.011 A 
HETATM   19 BR1  UNL     1      24.883   3.960  50.538  1.00  0.00    -0.051 Br
HETATM   20  C11 UNL     1      24.213   1.679  52.147  1.00  0.00     0.032 A 
ENDBRANCH   5  14
BRANCH  11  21
HETATM   21  N4  UNL     1      17.850  -1.368  53.929  1.00  0.00    -0.384 N 
HETATM   22  H9  UNL     1      17.056  -1.866  54.372  1.00  0.00     0.157 HD
HETATM   23  H10 UNL     1      18.037  -1.112  54.936  1.00  0.00     0.157 HD
ENDBRANCH  11  21
TORSDOF 2
ENDMDL
MODEL 2
REMARK VINA RESULT:      -8.7      2.776      4.368
REMARK  2 active torsions:
REMARK  status: ('A' for Active; 'I' for Inactive)
REMARK    1  A    between atoms: C5_5  and  C6_6 
REMARK    2  A    between atoms: C14_18  and  N4_19 
ROOT
HETATM    1  C1  UNL     1      24.732  -1.174  55.186  1.00  0.00     0.050 C 
HETATM    2  C2  UNL     1      23.538  -0.733  54.442  1.00  0.00    -0.033 C 
HETATM    3  C3  UNL     1      23.553   0.123  53.427  1.00  0.00     0.065 A 
HETATM    4  C4  UNL     1      24.200   1.020  52.481  1.00  0.00     0.068 A 
HETATM    5  C5  UNL     1      25.406   1.522  52.106  1.00  0.00     0.084 A 
HETATM    6  N1  UNL     1      25.391   2.400  51.060  1.00  0.00    -0.240 NA
HETATM    7  C12 UNL     1      24.214   2.705  50.483  1.00  0.00     0.236 A 
HETATM    8  N2  UNL     1      23.026   2.200  50.865  1.00  0.00    -0.223 NA
HETATM    9  C13 UNL     1      23.006   1.325  51.900  1.00  0.00     0.152 A 
HETATM   10  N3  UNL     1      22.318   0.459  52.801  1.00  0.00    -0.279 N 
HETATM   11  C14 UNL     1      21.107  -0.121  53.269  1.00  0.00     0.118 C 
HETATM   12  C15 UNL     1      21.087  -0.791  54.404  1.00  0.00     0.023 C 
HETATM   13  C16 UNL     1      22.219  -1.270  54.839  1.00  0.00     0.025 C 
ENDROOT
BRANCH   5  14
HETATM   14  C6  UNL     1      26.713   1.260  52.657  1.00  0.00    -0.005 A 
HETATM   15  C7  UNL     1      27.401   2.375  53.143  1.00  0.00     0.014 A 
HETATM   16  C8  UNL     1      28.659   2.289  53.699  1.00  0.00     0.002 A 
HETATM   17  C9  UNL     1      29.192   1.016  53.743  1.00  0.00     0.019 A 
HETATM   18  C10 UNL     1      28.595  -0.131  53.295  1.00  0.00     0.011 A 
HETATM   19 BR1  UNL     1      29.389  -1.843  53.390  1.00  0.00    -0.051 Br
HETATM   20  C11 UNL     1      27.319   0.038  52.744  1.00  0.00     0.032 A 
ENDBRANCH   5  14
BRANCH  11  21
HETATM   21  N4  UNL     1      19.909   0.006  52.532  1.00  0.00    -0.384 N 
HETATM   22  H9  UNL     1      19.142  -0.130  51.848  1.00  0.00     0.157 HD
HETATM   23  H10 UNL     1      19.274   0.790  52.840  1.00  0.00     0.157 HD
ENDBRANCH  11  21
TORSDOF 2
ENDMDL
MODEL 3
REMARK VINA RESULT:      -8.4      2.205      2.886
REMARK  2 active torsions:
REMARK  status: ('A' for Active; 'I' for Inactive)
REMARK    1  A    between atoms: C5_5  and  C6_6 
REMARK    2  A    between atoms: C14_18  and  N4_19 
ROOT
HETATM    1  C1  UNL     1      24.188   2.028  50.896  1.00  0.00     0.050 C 
HETATM    2  C2  UNL     1      22.986   1.341  51.402  1.00  0.00    -0.033 C 
HETATM    3  C3  UNL     1      22.958   0.552  52.470  1.00  0.00     0.065 A 
HETATM    4  C4  UNL     1      23.554  -0.126  53.613  1.00  0.00     0.068 A 
HETATM    5  C5  UNL     1      24.722  -0.307  54.284  1.00  0.00     0.084 A 
HETATM    6  N1  UNL     1      24.663  -1.122  55.378  1.00  0.00    -0.240 NA
HETATM    7  C12 UNL     1      23.485  -1.680  55.713  1.00  0.00     0.236 A 
HETATM    8  N2  UNL     1      22.335  -1.491  55.038  1.00  0.00    -0.223 NA
HETATM    9  C13 UNL     1      22.358  -0.687  53.947  1.00  0.00     0.152 A 
HETATM   10  N3  UNL     1      21.720  -0.048  52.842  1.00  0.00    -0.279 N 
HETATM   11  C14 UNL     1      20.552   0.205  52.072  1.00  0.00     0.118 C 
HETATM   12  C15 UNL     1      20.645   0.806  50.903  1.00  0.00     0.023 C 
HETATM   13  C16 UNL     1      21.708   1.528  50.682  1.00  0.00     0.025 C 
ENDROOT
BRANCH   5  14
HETATM   14  C6  UNL     1      26.026   0.242  54.007  1.00  0.00    -0.005 A 
HETATM   15  C7  UNL     1      26.078   1.628  53.842  1.00  0.00     0.014 A 
HETATM   16  C8  UNL     1      27.250   2.302  53.573  1.00  0.00     0.002 A 
HETATM   17  C9  UNL     1      28.373   1.505  53.479  1.00  0.00     0.019 A 
HETATM   18  C10 UNL     1      28.420   0.145  53.626  1.00  0.00     0.011 A 
HETATM   19 BR1  UNL     1      30.001  -0.880  53.485  1.00  0.00    -0.051 Br
HETATM   20  C11 UNL     1      27.191  -0.466  53.898  1.00  0.00     0.032 A 
ENDBRANCH   5  14
BRANCH  11  21
HETATM   21  N4  UNL     1      19.277  -0.180  52.541  1.00  0.00    -0.384 N 
HETATM   22  H9  UNL     1      18.501  -0.641  53.052  1.00  0.00     0.157 HD
HETATM   23  H10 UNL     1      18.464   0.325  52.096  1.00  0.00     0.157 HD
ENDBRANCH  11  21
TORSDOF 2
ENDMDL
MODEL 4
REMARK VINA RESULT:      -8.4      1.982      5.701
REMARK  2 active torsions:
REMARK  status: ('A' for Active; 'I' for Inactive)
REMARK    1  A    between atoms: C5_5  and  C6_6 
REMARK    2  A    between atoms: C14_18  and  N4_19 
ROOT
HETATM    1  C1  UNL     1      24.850   2.217  51.086  1.00  0.00     0.050 C 
HETATM    2  C2  UNL     1      25.720   1.683  52.149  1.00  0.00    -0.033 C 
HETATM    3  C3  UNL     1      25.327   0.835  53.093  1.00  0.00     0.065 A 
HETATM    4  C4  UNL     1      24.352  -0.002  53.777  1.00  0.00     0.068 A 
HETATM    5  C5  UNL     1      23.054  -0.402  53.755  1.00  0.00     0.084 A 
HETATM    6  N1  UNL     1      22.678  -1.275  54.736  1.00  0.00    -0.240 NA
HETATM    7  C12 UNL     1      23.593  -1.671  55.640  1.00  0.00     0.236 A 
HETATM    8  N2  UNL     1      24.877  -1.266  55.651  1.00  0.00    -0.223 NA
HETATM    9  C13 UNL     1      25.283  -0.400  54.689  1.00  0.00     0.152 A 
HETATM   10  N3  UNL     1      26.280   0.402  54.060  1.00  0.00    -0.279 N 
HETATM   11  C14 UNL     1      27.618   0.881  53.997  1.00  0.00     0.118 C 
HETATM   12  C15 UNL     1      27.929   1.879  53.195  1.00  0.00     0.023 C 
HETATM   13  C16 UNL     1      27.134   2.110  52.187  1.00  0.00     0.025 C 
ENDROOT
BRANCH   5  14
HETATM   14  C6  UNL     1      22.004  -0.038  52.836  1.00  0.00    -0.005 A 
HETATM   15  C7  UNL     1      20.705  -0.083  53.349  1.00  0.00     0.014 A 
HETATM   16  C8  UNL     1      19.596   0.237  52.597  1.00  0.00     0.002 A 
HETATM   17  C9  UNL     1      19.861   0.607  51.294  1.00  0.00     0.019 A 
HETATM   18  C10 UNL     1      21.094   0.680  50.705  1.00  0.00     0.011 A 
HETATM   19 BR1  UNL     1      21.379   1.198  48.910  1.00  0.00    -0.051 Br
HETATM   20  C11 UNL     1      22.171   0.342  51.533  1.00  0.00     0.032 A 
ENDBRANCH   5  14
BRANCH  11  21
HETATM   21  N4  UNL     1      28.634   0.299  54.787  1.00  0.00    -0.384 N 
HETATM   22  H9  UNL     1      29.167  -0.129  55.567  1.00  0.00     0.157 HD
HETATM   23  H10 UNL     1      29.563   0.178  54.303  1.00  0.00     0.157 HD
ENDBRANCH  11  21
TORSDOF 2
ENDMDL
MODEL 5
REMARK VINA RESULT:      -8.3      1.696      4.854
REMARK  2 active torsions:
REMARK  status: ('A' for Active; 'I' for Inactive)
REMARK    1  A    between atoms: C5_5  and  C6_6 
REMARK    2  A    between atoms: C14_18  and  N4_19 
ROOT
HETATM    1  C1  UNL     1      26.154   1.471  51.586  1.00  0.00     0.050 C 
HETATM    2  C2  UNL     1      25.697   0.718  52.768  1.00  0.00    -0.033 C 
HETATM    3  C3  UNL     1      24.436   0.380  53.009  1.00  0.00     0.065 A 
HETATM    4  C4  UNL     1      23.012   0.332  52.704  1.00  0.00     0.068 A 
HETATM    5  C5  UNL     1      22.081   0.712  51.790  1.00  0.00     0.084 A 
HETATM    6  N1  UNL     1      20.792   0.351  52.063  1.00  0.00    -0.240 NA
HETATM    7  C12 UNL     1      20.533  -0.338  53.190  1.00  0.00     0.236 A 
HETATM    8  N2  UNL     1      21.467  -0.707  54.087  1.00  0.00    -0.223 NA
HETATM    9  C13 UNL     1      22.757  -0.366  53.846  1.00  0.00     0.152 A 
HETATM   10  N3  UNL     1      24.139  -0.350  54.196  1.00  0.00    -0.279 N 
HETATM   11  C14 UNL     1      25.188  -0.700  55.091  1.00  0.00     0.118 C 
HETATM   12  C15 UNL     1      26.387  -0.172  54.946  1.00  0.00     0.023 C 
HETATM   13  C16 UNL     1      26.699   0.298  53.771  1.00  0.00     0.025 C 
ENDROOT
BRANCH   5  14
HETATM   14  C6  UNL     1      22.256   1.446  50.562  1.00  0.00    -0.005 A 
HETATM   15  C7  UNL     1      21.606   0.920  49.442  1.00  0.00     0.014 A 
HETATM   16  C8  UNL     1      21.675   1.506  48.197  1.00  0.00     0.002 A 
HETATM   17  C9  UNL     1      22.437   2.655  48.135  1.00  0.00     0.019 A 
HETATM   18  C10 UNL     1      23.107   3.244  49.173  1.00  0.00     0.011 A 
HETATM   19 BR1  UNL     1      24.132   4.823  49.011  1.00  0.00    -0.051 Br
HETATM   20  C11 UNL     1      22.988   2.591  50.405  1.00  0.00     0.032 A 
ENDBRANCH   5  14
BRANCH  11  21
HETATM   21  N4  UNL     1      24.968  -1.614  56.144  1.00  0.00    -0.384 N 
HETATM   22  H9  UNL     1      24.540  -2.164  56.913  1.00  0.00     0.157 HD
HETATM   23  H10 UNL     1      25.797  -2.216  56.396  1.00  0.00     0.157 HD
ENDBRANCH  11  21
TORSDOF 2
ENDMDL
MODEL 6
REMARK VINA RESULT:      -8.3      2.280      3.707
REMARK  2 active torsions:
REMARK  status: ('A' for Active; 'I' for Inactive)
REMARK    1  A    between atoms: C5_5  and  C6_6 
REMARK    2  A    between atoms: C14_18  and  N4_19 
ROOT
HETATM    1  C1  UNL     1      21.771   2.160  52.285  1.00  0.00     0.050 C 
HETATM    2  C2  UNL     1      22.242   1.039  53.119  1.00  0.00    -0.033 C 
HETATM    3  C3  UNL     1      23.510   0.661  53.231  1.00  0.00     0.065 A 
HETATM    4  C4  UNL     1      24.934   0.752  52.939  1.00  0.00     0.068 A 
HETATM    5  C5  UNL     1      25.858   1.453  52.231  1.00  0.00     0.084 A 
HETATM    6  N1  UNL     1      27.154   1.042  52.365  1.00  0.00    -0.240 NA
HETATM    7  C12 UNL     1      27.426  -0.004  53.168  1.00  0.00     0.236 A 
HETATM    8  N2  UNL     1      26.500  -0.690  53.863  1.00  0.00    -0.223 NA
HETATM    9  C13 UNL     1      25.203  -0.307  53.753  1.00  0.00     0.152 A 
HETATM   10  N3  UNL     1      23.821  -0.444  54.075  1.00  0.00    -0.279 N 
HETATM   11  C14 UNL     1      22.779  -1.114  54.774  1.00  0.00     0.118 C 
HETATM   12  C15 UNL     1      21.518  -0.866  54.483  1.00  0.00     0.023 C 
HETATM   13  C16 UNL     1      21.249   0.266  53.894  1.00  0.00     0.025 C 
ENDROOT
BRANCH   5  14
HETATM   14  C6  UNL     1      25.669   2.580  51.351  1.00  0.00    -0.005 A 
HETATM   15  C7  UNL     1      26.588   2.694  50.305  1.00  0.00     0.014 A 
HETATM   16  C8  UNL     1      26.541   3.714  49.380  1.00  0.00     0.002 A 
HETATM   17  C9  UNL     1      25.515   4.619  49.563  1.00  0.00     0.019 A 
HETATM   18  C10 UNL     1      24.571   4.590  50.553  1.00  0.00     0.011 A 
HETATM   19 BR1  UNL     1      23.191   5.868  50.737  1.00  0.00    -0.051 Br
HETATM   20  C11 UNL     1      24.684   3.523  51.452  1.00  0.00     0.032 A 
ENDBRANCH   5  14
BRANCH  11  21
HETATM   21  N4  UNL     1      23.072  -2.051  55.789  1.00  0.00    -0.384 N 
HETATM   22  H9  UNL     1      23.380  -2.498  56.673  1.00  0.00     0.157 HD
HETATM   23  H10 UNL     1      22.833  -3.052  55.558  1.00  0.00     0.157 HD
ENDBRANCH  11  21
TORSDOF 2
ENDMDL
MODEL 7
REMARK VINA RESULT:      -8.2      3.061      4.638
REMARK  2 active torsions:
REMARK  status: ('A' for Active; 'I' for Inactive)
REMARK    1  A    between atoms: C5_5  and  C6_6 
REMARK    2  A    between atoms: C14_18  and  N4_19 
ROOT
HETATM    1  C1  UNL     1      26.417   3.465  50.120  1.00  0.00     0.050 C 
HETATM    2  C2  UNL     1      24.970   3.197  50.051  1.00  0.00    -0.033 C 
HETATM    3  C3  UNL     1      24.319   2.346  50.835  1.00  0.00     0.065 A 
HETATM    4  C4  UNL     1      24.224   1.363  51.905  1.00  0.00     0.068 A 
HETATM    5  C5  UNL     1      24.952   0.693  52.837  1.00  0.00     0.084 A 
HETATM    6  N1  UNL     1      24.258  -0.176  53.629  1.00  0.00    -0.240 NA
HETATM    7  C12 UNL     1      22.932  -0.311  53.442  1.00  0.00     0.236 A 
HETATM    8  N2  UNL     1      22.223   0.359  52.514  1.00  0.00    -0.223 NA
HETATM    9  C13 UNL     1      22.882   1.231  51.711  1.00  0.00     0.152 A 
HETATM   10  N3  UNL     1      22.915   2.187  50.654  1.00  0.00    -0.279 N 
HETATM   11  C14 UNL     1      22.243   2.936  49.649  1.00  0.00     0.118 C 
HETATM   12  C15 UNL     1      22.933   3.604  48.746  1.00  0.00     0.023 C 
HETATM   13  C16 UNL     1      24.164   3.918  49.042  1.00  0.00     0.025 C 
ENDROOT
BRANCH   5  14
HETATM   14  C6  UNL     1      26.365   0.767  53.114  1.00  0.00    -0.005 A 
HETATM   15  C7  UNL     1      26.868   2.046  53.367  1.00  0.00     0.014 A 
HETATM   16  C8  UNL     1      28.196   2.282  53.648  1.00  0.00     0.002 A 
HETATM   17  C9  UNL     1      28.997   1.158  53.663  1.00  0.00     0.019 A 
HETATM   18  C10 UNL     1      28.598  -0.129  53.429  1.00  0.00     0.011 A 
HETATM   19 BR1  UNL     1      29.758  -1.621  53.468  1.00  0.00    -0.051 Br
HETATM   20  C11 UNL     1      27.235  -0.288  53.152  1.00  0.00     0.032 A 
ENDBRANCH   5  14
BRANCH  11  21
HETATM   21  N4  UNL     1      20.832   2.980  49.597  1.00  0.00    -0.384 N 
HETATM   22  H9  UNL     1      19.852   3.182  49.328  1.00  0.00     0.157 HD
HETATM   23  H10 UNL     1      20.339   2.430  50.350  1.00  0.00     0.157 HD
ENDBRANCH  11  21
TORSDOF 2
ENDMDL
MODEL 8
REMARK VINA RESULT:      -8.2      3.681      6.053
REMARK  2 active torsions:
REMARK  status: ('A' for Active; 'I' for Inactive)
REMARK    1  A    between atoms: C5_5  and  C6_6 
REMARK    2  A    between atoms: C14_18  and  N4_19 
ROOT
HETATM    1  C1  UNL     1      22.541   2.151  50.764  1.00  0.00     0.050 C 
HETATM    2  C2  UNL     1      23.867   2.732  50.489  1.00  0.00    -0.033 C 
HETATM    3  C3  UNL     1      24.971   2.457  51.175  1.00  0.00     0.065 A 
HETATM    4  C4  UNL     1      25.727   1.790  52.225  1.00  0.00     0.068 A 
HETATM    5  C5  UNL     1      25.618   0.909  53.254  1.00  0.00     0.084 A 
HETATM    6  N1  UNL     1      26.769   0.646  53.941  1.00  0.00    -0.240 NA
HETATM    7  C12 UNL     1      27.906   1.260  53.567  1.00  0.00     0.236 A 
HETATM    8  N2  UNL     1      28.000   2.131  52.545  1.00  0.00    -0.223 NA
HETATM    9  C13 UNL     1      26.876   2.415  51.841  1.00  0.00     0.152 A 
HETATM   10  N3  UNL     1      26.186   3.097  50.795  1.00  0.00    -0.279 N 
HETATM   11  C14 UNL     1      26.196   4.005  49.702  1.00  0.00     0.118 C 
HETATM   12  C15 UNL     1      25.061   4.427  49.179  1.00  0.00     0.023 C 
HETATM   13  C16 UNL     1      24.001   3.692  49.373  1.00  0.00     0.025 C 
ENDROOT
BRANCH   5  14
HETATM   14  C6  UNL     1      24.454   0.204  53.729  1.00  0.00    -0.005 A 
HETATM   15  C7  UNL     1      24.679  -0.710  54.763  1.00  0.00     0.014 A 
HETATM   16  C8  UNL     1      23.669  -1.461  55.325  1.00  0.00     0.002 A 
HETATM   17  C9  UNL     1      22.415  -1.243  54.792  1.00  0.00     0.019 A 
HETATM   18  C10 UNL     1      22.098  -0.373  53.784  1.00  0.00     0.011 A 
HETATM   19 BR1  UNL     1      20.351  -0.129  53.106  1.00  0.00    -0.051 Br
HETATM   20  C11 UNL     1      23.177   0.354  53.266  1.00  0.00     0.032 A 
ENDBRANCH   5  14
BRANCH  11  21
HETATM   21  N4  UNL     1      27.412   4.471  49.156  1.00  0.00    -0.384 N 
HETATM   22  H9  UNL     1      28.140   4.837  48.514  1.00  0.00     0.157 HD
HETATM   23  H10 UNL     1      28.224   4.497  49.828  1.00  0.00     0.157 HD
ENDBRANCH  11  21
TORSDOF 2
ENDMDL
MODEL 9
REMARK VINA RESULT:      -8.0      1.828      5.552
REMARK  2 active torsions:
REMARK  status: ('A' for Active; 'I' for Inactive)
REMARK    1  A    between atoms: C5_5  and  C6_6 
REMARK    2  A    between atoms: C14_18  and  N4_19 
ROOT
HETATM    1  C1  UNL     1      24.496   2.215  51.112  1.00  0.00     0.050 C 
HETATM    2  C2  UNL     1      25.382   1.481  52.033  1.00  0.00    -0.033 C 
HETATM    3  C3  UNL     1      24.966   0.657  52.988  1.00  0.00     0.065 A 
HETATM    4  C4  UNL     1      23.951  -0.042  53.763  1.00  0.00     0.068 A 
HETATM    5  C5  UNL     1      22.609  -0.215  53.895  1.00  0.00     0.084 A 
HETATM    6  N1  UNL     1      22.210  -1.068  54.885  1.00  0.00    -0.240 NA
HETATM    7  C12 UNL     1      23.145  -1.664  55.647  1.00  0.00     0.236 A 
HETATM    8  N2  UNL     1      24.472  -1.483  55.505  1.00  0.00    -0.223 NA
HETATM    9  C13 UNL     1      24.902  -0.643  54.531  1.00  0.00     0.152 A 
HETATM   10  N3  UNL     1      25.940   0.014  53.806  1.00  0.00    -0.279 N 
HETATM   11  C14 UNL     1      27.322   0.263  53.588  1.00  0.00     0.118 C 
HETATM   12  C15 UNL     1      27.703   1.240  52.789  1.00  0.00     0.023 C 
HETATM   13  C16 UNL     1      26.844   1.660  51.902  1.00  0.00     0.025 C 
ENDROOT
BRANCH   5  14
HETATM   14  C6  UNL     1      21.535   0.374  53.135  1.00  0.00    -0.005 A 
HETATM   15  C7  UNL     1      20.485  -0.486  52.801  1.00  0.00     0.014 A 
HETATM   16  C8  UNL     1      19.387  -0.074  52.078  1.00  0.00     0.002 A 
HETATM   17  C9  UNL     1      19.399   1.256  51.707  1.00  0.00     0.019 A 
HETATM   18  C10 UNL     1      20.378   2.170  51.986  1.00  0.00     0.011 A 
HETATM   19 BR1  UNL     1      20.322   3.979  51.442  1.00  0.00    -0.051 Br
HETATM   20  C11 UNL     1      21.459   1.676  52.724  1.00  0.00     0.032 A 
ENDBRANCH   5  14
BRANCH  11  21
HETATM   21  N4  UNL     1      28.310  -0.526  54.217  1.00  0.00    -0.384 N 
HETATM   22  H9  UNL     1      29.213  -0.917  54.544  1.00  0.00     0.157 HD
HETATM   23  H10 UNL     1      27.942  -1.327  54.797  1.00  0.00     0.157 HD
ENDBRANCH  11  21
TORSDOF 2
ENDMDL
