MODEL 1
REMARK VINA RESULT:      -8.9      0.000      0.000
REMARK  4 active torsions:
REMARK  status: ('A' for Active; 'I' for Inactive)
REMARK    1  A    between atoms: C5_5  and  C6_6 
REMARK    2  A    between atoms: N2_8  and  C7_9 
REMARK    3  A    between atoms: C8_11  and  O1_12 
REMARK    4  A    between atoms: C10_15  and  C11_16 
ROOT
HETATM    1  C6  UNL     1      26.188   2.869  51.101  1.00  0.00     0.065 C 
HETATM    2  N1  UNL     1      27.191   2.318  51.697  1.00  0.00    -0.174 NA
HETATM    3  N2  UNL     1      26.778   1.301  52.567  1.00  0.00    -0.236 N 
HETATM    4  C10 UNL     1      25.439   1.690  52.939  1.00  0.00     0.151 C 
HETATM    5  C16 UNL     1      24.939   2.197  51.579  1.00  0.00     0.094 C 
ENDROOT
BRANCH   1   6
HETATM    6  C5  UNL     1      26.204   3.954  50.131  1.00  0.00    -0.009 A 
HETATM    7  C4  UNL     1      27.199   4.329  49.336  1.00  0.00     0.011 A 
HETATM    8  C3  UNL     1      26.846   5.453  48.503  1.00  0.00     0.005 A 
HETATM    9  C2  UNL     1      25.595   5.760  48.812  1.00  0.00    -0.061 A 
HETATM   10  C1  UNL     1      24.921   6.897  48.117  1.00  0.00     0.045 C 
HETATM   11  C17 UNL     1      25.053   4.855  49.867  1.00  0.00     0.146 A 
HETATM   12 CL1  UNL     1      23.686   3.916  49.215  1.00  0.00    -0.115 Cl
ENDBRANCH   1   6
BRANCH   3  13
HETATM   13  C7  UNL     1      27.648   0.199  52.888  1.00  0.00     0.192 A 
HETATM   14  N3  UNL     1      27.595  -0.929  52.737  1.00  0.00    -0.198 NA
HETATM   15  C8  UNL     1      28.451  -1.877  53.066  1.00  0.00     0.171 A 
HETATM   16  C9  UNL     1      29.590  -1.430  53.691  1.00  0.00     0.111 A 
HETATM   17  S1  UNL     1      29.328   0.400  53.757  1.00  0.00    -0.058 SA
BRANCH  15  18
HETATM   18  O1  UNL     1      28.196  -3.237  52.790  1.00  0.00    -0.344 OA
HETATM   19  H6  UNL     1      27.247  -3.574  52.690  1.00  0.00     0.219 HD
ENDBRANCH  15  18
ENDBRANCH   3  13
BRANCH   4  20
HETATM   20  C11 UNL     1      24.605   0.561  53.431  1.00  0.00    -0.032 A 
HETATM   21  C12 UNL     1      24.658  -0.360  54.386  1.00  0.00     0.010 A 
HETATM   22  C13 UNL     1      23.476  -1.213  54.341  1.00  0.00     0.013 A 
HETATM   23  C14 UNL     1      22.761  -0.694  53.379  1.00  0.00    -0.025 A 
HETATM   24  C15 UNL     1      23.333   0.290  52.739  1.00  0.00     0.021 A 
ENDBRANCH   4  20
TORSDOF 4
ENDMDL
MODEL 2
REMARK VINA RESULT:      -8.8      2.297      3.768
REMARK  4 active torsions:
REMARK  status: ('A' for Active; 'I' for Inactive)
REMARK    1  A    between atoms: C5_5  and  C6_6 
REMARK    2  A    between atoms: N2_8  and  C7_9 
REMARK    3  A    between atoms: C8_11  and  O1_12 
REMARK    4  A    between atoms: C10_15  and  C11_16 
ROOT
HETATM    1  C6  UNL     1      25.321   2.570  51.005  1.00  0.00     0.065 C 
HETATM    2  N1  UNL     1      24.534   1.669  51.488  1.00  0.00    -0.174 NA
HETATM    3  N2  UNL     1      25.231   0.750  52.283  1.00  0.00    -0.236 N 
HETATM    4  C10 UNL     1      26.570   0.775  51.745  1.00  0.00     0.151 C 
HETATM    5  C16 UNL     1      26.707   2.283  51.488  1.00  0.00     0.094 C 
ENDROOT
BRANCH   1   6
HETATM    6  C5  UNL     1      24.979   3.689  50.138  1.00  0.00    -0.009 A 
HETATM    7  C4  UNL     1      25.779   4.641  49.674  1.00  0.00     0.011 A 
HETATM    8  C3  UNL     1      25.082   5.589  48.838  1.00  0.00     0.005 A 
HETATM    9  C2  UNL     1      23.821   5.186  48.801  1.00  0.00    -0.061 A 
HETATM   10  C1  UNL     1      22.821   5.963  48.008  1.00  0.00     0.045 C 
HETATM   11  C17 UNL     1      23.615   3.950  49.612  1.00  0.00     0.146 A 
HETATM   12 CL1  UNL     1      23.106   2.610  48.554  1.00  0.00    -0.115 Cl
ENDBRANCH   1   6
BRANCH   3  13
HETATM   13  C7  UNL     1      24.574   0.043  53.352  1.00  0.00     0.192 A 
HETATM   14  N3  UNL     1      24.919  -0.415  54.336  1.00  0.00    -0.198 NA
HETATM   15  C8  UNL     1      24.236  -1.052  55.269  1.00  0.00     0.171 A 
HETATM   16  C9  UNL     1      22.894  -1.182  55.010  1.00  0.00     0.111 A 
HETATM   17  S1  UNL     1      22.710  -0.338  53.374  1.00  0.00    -0.058 SA
BRANCH  15  18
HETATM   18  O1  UNL     1      24.859  -1.553  56.432  1.00  0.00    -0.344 OA
HETATM   19  H6  UNL     1      24.945  -2.550  56.582  1.00  0.00     0.219 HD
ENDBRANCH  15  18
ENDBRANCH   3  13
BRANCH   4  20
HETATM   20  C11 UNL     1      27.605   0.296  52.698  1.00  0.00    -0.032 A 
HETATM   21  C12 UNL     1      28.181  -0.853  53.032  1.00  0.00     0.010 A 
HETATM   22  C13 UNL     1      29.167  -0.644  54.087  1.00  0.00     0.013 A 
HETATM   23  C14 UNL     1      29.149   0.649  54.270  1.00  0.00    -0.025 A 
HETATM   24  C15 UNL     1      28.248   1.290  53.575  1.00  0.00     0.021 A 
ENDBRANCH   4  20
TORSDOF 4
ENDMDL
MODEL 3
REMARK VINA RESULT:      -8.6      4.325      6.739
REMARK  4 active torsions:
REMARK  status: ('A' for Active; 'I' for Inactive)
REMARK    1  A    between atoms: C5_5  and  C6_6 
REMARK    2  A    between atoms: N2_8  and  C7_9 
REMARK    3  A    between atoms: C8_11  and  O1_12 
REMARK    4  A    between atoms: C10_15  and  C11_16 
ROOT
HETATM    1  C6  UNL     1      25.058   0.688  52.845  1.00  0.00     0.065 C 
HETATM    2  N1  UNL     1      24.795   1.598  51.969  1.00  0.00    -0.174 NA
HETATM    3  N2  UNL     1      23.429   1.633  51.659  1.00  0.00    -0.236 N 
HETATM    4  C10 UNL     1      22.982   0.286  51.920  1.00  0.00     0.151 C 
HETATM    5  C16 UNL     1      23.778   0.003  53.202  1.00  0.00     0.094 C 
ENDROOT
BRANCH   1   6
HETATM    6  C5  UNL     1      26.351   0.342  53.419  1.00  0.00    -0.009 A 
HETATM    7  C4  UNL     1      26.816   0.633  54.627  1.00  0.00     0.011 A 
HETATM    8  C3  UNL     1      28.149   0.121  54.844  1.00  0.00     0.005 A 
HETATM    9  C2  UNL     1      28.489  -0.498  53.723  1.00  0.00    -0.061 A 
HETATM   10  C1  UNL     1      29.831  -1.148  53.618  1.00  0.00     0.045 C 
HETATM   11  C17 UNL     1      27.401  -0.429  52.705  1.00  0.00     0.146 A 
HETATM   12 CL1  UNL     1      26.807  -2.069  52.341  1.00  0.00    -0.115 Cl
ENDBRANCH   1   6
BRANCH   3  13
HETATM   13  C7  UNL     1      22.802   2.846  51.201  1.00  0.00     0.192 A 
HETATM   14  N3  UNL     1      22.643   3.881  51.650  1.00  0.00    -0.198 NA
HETATM   15  C8  UNL     1      22.050   4.948  51.150  1.00  0.00     0.171 A 
HETATM   16  C9  UNL     1      21.544   4.784  49.884  1.00  0.00     0.111 A 
HETATM   17  S1  UNL     1      21.982   3.029  49.494  1.00  0.00    -0.058 SA
BRANCH  15  18
HETATM   18  O1  UNL     1      21.954   6.154  51.878  1.00  0.00    -0.344 OA
HETATM   19  H6  UNL     1      21.335   6.227  52.675  1.00  0.00     0.219 HD
ENDBRANCH  15  18
ENDBRANCH   3  13
BRANCH   4  20
HETATM   20  C11 UNL     1      21.519   0.180  52.162  1.00  0.00    -0.032 A 
HETATM   21  C12 UNL     1      20.396   0.246  51.455  1.00  0.00     0.010 A 
HETATM   22  C13 UNL     1      19.236   0.049  52.317  1.00  0.00     0.013 A 
HETATM   23  C14 UNL     1      19.763  -0.181  53.490  1.00  0.00    -0.025 A 
HETATM   24  C15 UNL     1      21.063  -0.070  53.540  1.00  0.00     0.021 A 
ENDBRANCH   4  20
TORSDOF 4
ENDMDL
MODEL 4
REMARK VINA RESULT:      -8.4      4.311      7.248
REMARK  4 active torsions:
REMARK  status: ('A' for Active; 'I' for Inactive)
REMARK    1  A    between atoms: C5_5  and  C6_6 
REMARK    2  A    between atoms: N2_8  and  C7_9 
REMARK    3  A    between atoms: C8_11  and  O1_12 
REMARK    4  A    between atoms: C10_15  and  C11_16 
ROOT
HETATM    1  C6  UNL     1      21.687   1.337  52.349  1.00  0.00     0.065 C 
HETATM    2  N1  UNL     1      21.873   2.607  52.214  1.00  0.00    -0.174 NA
HETATM    3  N2  UNL     1      23.226   2.946  52.351  1.00  0.00    -0.236 N 
HETATM    4  C10 UNL     1      23.757   1.906  53.199  1.00  0.00     0.151 C 
HETATM    5  C16 UNL     1      23.014   0.698  52.607  1.00  0.00     0.094 C 
ENDROOT
BRANCH   1   6
HETATM    6  C5  UNL     1      20.433   0.600  52.276  1.00  0.00    -0.009 A 
HETATM    7  C4  UNL     1      19.634   0.443  51.229  1.00  0.00     0.011 A 
HETATM    8  C3  UNL     1      18.471  -0.356  51.536  1.00  0.00     0.005 A 
HETATM    9  C2  UNL     1      18.583  -0.687  52.813  1.00  0.00    -0.061 A 
HETATM   10  C1  UNL     1      17.525  -1.527  53.452  1.00  0.00     0.045 C 
HETATM   11  C17 UNL     1      19.824  -0.126  53.421  1.00  0.00     0.146 A 
HETATM   12 CL1  UNL     1      20.898  -1.450  53.939  1.00  0.00    -0.115 Cl
ENDBRANCH   1   6
BRANCH   3  13
HETATM   13  C7  UNL     1      23.768   4.113  51.705  1.00  0.00     0.192 A 
HETATM   14  N3  UNL     1      23.704   5.234  51.899  1.00  0.00    -0.198 NA
HETATM   15  C8  UNL     1      24.242   6.246  51.246  1.00  0.00     0.171 A 
HETATM   16  C9  UNL     1      25.001   5.890  50.158  1.00  0.00     0.111 A 
HETATM   17  S1  UNL     1      24.876   4.044  50.161  1.00  0.00    -0.058 SA
BRANCH  15  18
HETATM   18  O1  UNL     1      24.039   7.583  51.652  1.00  0.00    -0.344 OA
HETATM   19  H6  UNL     1      24.683   8.311  51.369  1.00  0.00     0.219 HD
ENDBRANCH  15  18
ENDBRANCH   3  13
BRANCH   4  20
HETATM   20  C11 UNL     1      25.229   1.739  53.086  1.00  0.00    -0.032 A 
HETATM   21  C12 UNL     1      26.323   2.211  53.674  1.00  0.00     0.010 A 
HETATM   22  C13 UNL     1      27.519   1.627  53.078  1.00  0.00     0.013 A 
HETATM   23  C14 UNL     1      27.042   0.788  52.197  1.00  0.00    -0.025 A 
HETATM   24  C15 UNL     1      25.743   0.809  52.066  1.00  0.00     0.021 A 
ENDBRANCH   4  20
TORSDOF 4
ENDMDL
MODEL 5
REMARK VINA RESULT:      -8.3      4.112      6.871
REMARK  4 active torsions:
REMARK  status: ('A' for Active; 'I' for Inactive)
REMARK    1  A    between atoms: C5_5  and  C6_6 
REMARK    2  A    between atoms: N2_8  and  C7_9 
REMARK    3  A    between atoms: C8_11  and  O1_12 
REMARK    4  A    between atoms: C10_15  and  C11_16 
ROOT
HETATM    1  C6  UNL     1      24.870   0.379  52.777  1.00  0.00     0.065 C 
HETATM    2  N1  UNL     1      23.717  -0.044  53.171  1.00  0.00    -0.174 NA
HETATM    3  N2  UNL     1      22.704   0.880  52.883  1.00  0.00    -0.236 N 
HETATM    4  C10 UNL     1      23.391   2.149  52.867  1.00  0.00     0.151 C 
HETATM    5  C16 UNL     1      24.682   1.725  52.151  1.00  0.00     0.094 C 
ENDROOT
BRANCH   1   6
HETATM    6  C5  UNL     1      26.160  -0.287  52.894  1.00  0.00    -0.009 A 
HETATM    7  C4  UNL     1      26.513  -1.479  52.429  1.00  0.00     0.011 A 
HETATM    8  C3  UNL     1      27.883  -1.810  52.741  1.00  0.00     0.005 A 
HETATM    9  C2  UNL     1      28.364  -0.776  53.416  1.00  0.00    -0.061 A 
HETATM   10  C1  UNL     1      29.780  -0.802  53.893  1.00  0.00     0.045 C 
HETATM   11  C17 UNL     1      27.338   0.294  53.587  1.00  0.00     0.146 A 
HETATM   12 CL1  UNL     1      27.863   1.777  52.751  1.00  0.00    -0.115 Cl
ENDBRANCH   1   6
BRANCH   3  13
HETATM   13  C7  UNL     1      21.344   0.452  52.681  1.00  0.00     0.192 A 
HETATM   14  N3  UNL     1      20.552  -0.030  53.343  1.00  0.00    -0.198 NA
HETATM   15  C8  UNL     1      19.313  -0.392  53.070  1.00  0.00     0.171 A 
HETATM   16  C9  UNL     1      18.915  -0.146  51.779  1.00  0.00     0.111 A 
HETATM   17  S1  UNL     1      20.420   0.622  51.026  1.00  0.00    -0.058 SA
BRANCH  15  18
HETATM   18  O1  UNL     1      18.481  -0.984  54.043  1.00  0.00    -0.344 OA
HETATM   19  H6  UNL     1      17.820  -1.706  53.787  1.00  0.00     0.219 HD
ENDBRANCH  15  18
ENDBRANCH   3  13
BRANCH   4  20
HETATM   20  C11 UNL     1      22.675   3.205  52.103  1.00  0.00    -0.032 A 
HETATM   21  C12 UNL     1      21.737   4.118  52.326  1.00  0.00     0.010 A 
HETATM   22  C13 UNL     1      21.463   4.877  51.111  1.00  0.00     0.013 A 
HETATM   23  C14 UNL     1      22.314   4.391  50.248  1.00  0.00    -0.025 A 
HETATM   24  C15 UNL     1      23.021   3.383  50.682  1.00  0.00     0.021 A 
ENDBRANCH   4  20
TORSDOF 4
ENDMDL
MODEL 6
REMARK VINA RESULT:      -8.2      4.433      7.916
REMARK  4 active torsions:
REMARK  status: ('A' for Active; 'I' for Inactive)
REMARK    1  A    between atoms: C5_5  and  C6_6 
REMARK    2  A    between atoms: N2_8  and  C7_9 
REMARK    3  A    between atoms: C8_11  and  O1_12 
REMARK    4  A    between atoms: C10_15  and  C11_16 
ROOT
HETATM    1  C6  UNL     1      23.580   2.173  51.307  1.00  0.00     0.065 C 
HETATM    2  N1  UNL     1      22.723   2.821  50.592  1.00  0.00    -0.174 NA
HETATM    3  N2  UNL     1      23.342   3.814  49.821  1.00  0.00    -0.236 N 
HETATM    4  C10 UNL     1      24.524   4.149  50.577  1.00  0.00     0.151 C 
HETATM    5  C16 UNL     1      24.936   2.742  51.034  1.00  0.00     0.094 C 
ENDROOT
BRANCH   1   6
HETATM    6  C5  UNL     1      23.332   1.077  52.233  1.00  0.00    -0.009 A 
HETATM    7  C4  UNL     1      24.195   0.476  53.042  1.00  0.00     0.011 A 
HETATM    8  C3  UNL     1      23.584  -0.577  53.817  1.00  0.00     0.005 A 
HETATM    9  C2  UNL     1      22.309  -0.603  53.458  1.00  0.00    -0.061 A 
HETATM   10  C1  UNL     1      21.385  -1.595  54.086  1.00  0.00     0.045 C 
HETATM   11  C17 UNL     1      22.009   0.431  52.425  1.00  0.00     0.146 A 
HETATM   12 CL1  UNL     1      20.845   1.615  53.072  1.00  0.00    -0.115 Cl
ENDBRANCH   1   6
BRANCH   3  13
HETATM   13  C7  UNL     1      22.764   4.257  48.578  1.00  0.00     0.192 A 
HETATM   14  N3  UNL     1      22.643   3.794  47.545  1.00  0.00    -0.198 NA
HETATM   15  C8  UNL     1      22.091   4.280  46.450  1.00  0.00     0.171 A 
HETATM   16  C9  UNL     1      21.580   5.548  46.578  1.00  0.00     0.111 A 
HETATM   17  S1  UNL     1      21.949   5.960  48.344  1.00  0.00    -0.058 SA
BRANCH  15  18
HETATM   18  O1  UNL     1      22.042   3.537  45.251  1.00  0.00    -0.344 OA
HETATM   19  H6  UNL     1      21.840   3.992  44.370  1.00  0.00     0.219 HD
ENDBRANCH  15  18
ENDBRANCH   3  13
BRANCH   4  20
HETATM   20  C11 UNL     1      25.593   4.784  49.761  1.00  0.00    -0.032 A 
HETATM   21  C12 UNL     1      25.866   5.980  49.253  1.00  0.00     0.010 A 
HETATM   22  C13 UNL     1      27.126   5.949  48.518  1.00  0.00     0.013 A 
HETATM   23  C14 UNL     1      27.551   4.727  48.693  1.00  0.00    -0.025 A 
HETATM   24  C15 UNL     1      26.727   3.945  49.336  1.00  0.00     0.021 A 
ENDBRANCH   4  20
TORSDOF 4
ENDMDL
MODEL 7
REMARK VINA RESULT:      -8.1      1.672      2.039
REMARK  4 active torsions:
REMARK  status: ('A' for Active; 'I' for Inactive)
REMARK    1  A    between atoms: C5_5  and  C6_6 
REMARK    2  A    between atoms: N2_8  and  C7_9 
REMARK    3  A    between atoms: C8_11  and  O1_12 
REMARK    4  A    between atoms: C10_15  and  C11_16 
ROOT
HETATM    1  C6  UNL     1      24.035   2.563  50.868  1.00  0.00     0.065 C 
HETATM    2  N1  UNL     1      25.170   2.208  51.367  1.00  0.00    -0.174 NA
HETATM    3  N2  UNL     1      25.016   1.213  52.341  1.00  0.00    -0.236 N 
HETATM    4  C10 UNL     1      23.684   1.436  52.851  1.00  0.00     0.151 C 
HETATM    5  C16 UNL     1      22.963   1.760  51.535  1.00  0.00     0.094 C 
ENDROOT
BRANCH   1   6
HETATM    6  C5  UNL     1      23.778   3.561  49.839  1.00  0.00    -0.009 A 
HETATM    7  C4  UNL     1      22.923   3.495  48.827  1.00  0.00     0.011 A 
HETATM    8  C3  UNL     1      22.945   4.682  48.006  1.00  0.00     0.005 A 
HETATM    9  C2  UNL     1      23.846   5.486  48.551  1.00  0.00    -0.061 A 
HETATM   10  C1  UNL     1      24.113   6.820  47.933  1.00  0.00     0.045 C 
HETATM   11  C17 UNL     1      24.469   4.874  49.760  1.00  0.00     0.146 A 
HETATM   12 CL1  UNL     1      24.083   5.849  51.201  1.00  0.00    -0.115 Cl
ENDBRANCH   1   6
BRANCH   3  13
HETATM   13  C7  UNL     1      26.071   0.273  52.618  1.00  0.00     0.192 A 
HETATM   14  N3  UNL     1      26.235  -0.831  52.393  1.00  0.00    -0.198 NA
HETATM   15  C8  UNL     1      27.249  -1.622  52.687  1.00  0.00     0.171 A 
HETATM   16  C9  UNL     1      28.270  -1.015  53.376  1.00  0.00     0.111 A 
HETATM   17  S1  UNL     1      27.666   0.725  53.552  1.00  0.00    -0.058 SA
BRANCH  15  18
HETATM   18  O1  UNL     1      27.260  -2.984  52.315  1.00  0.00    -0.344 OA
HETATM   19  H6  UNL     1      26.749  -3.301  51.502  1.00  0.00     0.219 HD
ENDBRANCH  15  18
ENDBRANCH   3  13
BRANCH   4  20
HETATM   20  C11 UNL     1      23.090   0.242  53.509  1.00  0.00    -0.032 A 
HETATM   21  C12 UNL     1      23.365  -0.558  54.533  1.00  0.00     0.010 A 
HETATM   22  C13 UNL     1      22.344  -1.592  54.663  1.00  0.00     0.013 A 
HETATM   23  C14 UNL     1      21.486  -1.295  53.724  1.00  0.00    -0.025 A 
HETATM   24  C15 UNL     1      21.837  -0.300  52.955  1.00  0.00     0.021 A 
ENDBRANCH   4  20
TORSDOF 4
ENDMDL
MODEL 8
REMARK VINA RESULT:      -8.1      7.063      9.782
REMARK  4 active torsions:
REMARK  status: ('A' for Active; 'I' for Inactive)
REMARK    1  A    between atoms: C5_5  and  C6_6 
REMARK    2  A    between atoms: N2_8  and  C7_9 
REMARK    3  A    between atoms: C8_11  and  O1_12 
REMARK    4  A    between atoms: C10_15  and  C11_16 
ROOT
HETATM    1  C6  UNL     1      30.094   5.841  48.174  1.00  0.00     0.065 C 
HETATM    2  N1  UNL     1      30.942   6.736  48.556  1.00  0.00    -0.174 NA
HETATM    3  N2  UNL     1      32.256   6.370  48.233  1.00  0.00    -0.236 N 
HETATM    4  C10 UNL     1      32.214   4.928  48.204  1.00  0.00     0.151 C 
HETATM    5  C16 UNL     1      30.853   4.731  47.520  1.00  0.00     0.094 C 
ENDROOT
BRANCH   1   6
HETATM    6  C5  UNL     1      28.646   5.853  48.327  1.00  0.00    -0.009 A 
HETATM    7  C4  UNL     1      27.859   4.876  48.761  1.00  0.00     0.011 A 
HETATM    8  C3  UNL     1      26.466   5.255  48.776  1.00  0.00     0.005 A 
HETATM    9  C2  UNL     1      26.422   6.504  48.337  1.00  0.00    -0.061 A 
HETATM   10  C1  UNL     1      25.106   7.203  48.231  1.00  0.00     0.045 C 
HETATM   11  C17 UNL     1      27.783   7.019  48.006  1.00  0.00     0.146 A 
HETATM   12 CL1  UNL     1      28.190   8.386  49.074  1.00  0.00    -0.115 Cl
ENDBRANCH   1   6
BRANCH   3  13
HETATM   13  C7  UNL     1      33.272   7.367  48.015  1.00  0.00     0.192 A 
HETATM   14  N3  UNL     1      34.337   7.515  48.388  1.00  0.00    -0.198 NA
HETATM   15  C8  UNL     1      35.209   8.472  48.131  1.00  0.00     0.171 A 
HETATM   16  C9  UNL     1      34.757   9.446  47.275  1.00  0.00     0.111 A 
HETATM   17  S1  UNL     1      33.037   8.883  46.888  1.00  0.00    -0.058 SA
BRANCH  15  18
HETATM   18  O1  UNL     1      36.499   8.474  48.704  1.00  0.00    -0.344 OA
HETATM   19  H6  UNL     1      36.622   8.332  49.698  1.00  0.00     0.219 HD
ENDBRANCH  15  18
ENDBRANCH   3  13
BRANCH   4  20
HETATM   20  C11 UNL     1      33.309   4.316  47.407  1.00  0.00    -0.032 A 
HETATM   21  C12 UNL     1      34.390   3.574  47.624  1.00  0.00     0.010 A 
HETATM   22  C13 UNL     1      35.078   3.292  46.369  1.00  0.00     0.013 A 
HETATM   23  C14 UNL     1      34.313   3.850  45.470  1.00  0.00    -0.025 A 
HETATM   24  C15 UNL     1      33.301   4.521  45.949  1.00  0.00     0.021 A 
ENDBRANCH   4  20
TORSDOF 4
ENDMDL
MODEL 9
REMARK VINA RESULT:      -8.1      2.543      3.367
REMARK  4 active torsions:
REMARK  status: ('A' for Active; 'I' for Inactive)
REMARK    1  A    between atoms: C5_5  and  C6_6 
REMARK    2  A    between atoms: N2_8  and  C7_9 
REMARK    3  A    between atoms: C8_11  and  O1_12 
REMARK    4  A    between atoms: C10_15  and  C11_16 
ROOT
HETATM    1  C6  UNL     1      25.707   3.959  49.904  1.00  0.00     0.065 C 
HETATM    2  N1  UNL     1      25.910   3.330  51.012  1.00  0.00    -0.174 NA
HETATM    3  N2  UNL     1      24.850   2.464  51.314  1.00  0.00    -0.236 N 
HETATM    4  C10 UNL     1      23.715   3.069  50.659  1.00  0.00     0.151 C 
HETATM    5  C16 UNL     1      24.389   3.516  49.353  1.00  0.00     0.094 C 
ENDROOT
BRANCH   1   6
HETATM    6  C5  UNL     1      26.568   4.939  49.257  1.00  0.00    -0.009 A 
HETATM    7  C4  UNL     1      27.737   4.737  48.662  1.00  0.00     0.011 A 
HETATM    8  C3  UNL     1      28.304   5.954  48.131  1.00  0.00     0.005 A 
HETATM    9  C2  UNL     1      27.440   6.916  48.419  1.00  0.00    -0.061 A 
HETATM   10  C1  UNL     1      27.732   8.320  48.000  1.00  0.00     0.045 C 
HETATM   11  C17 UNL     1      26.255   6.387  49.157  1.00  0.00     0.146 A 
HETATM   12 CL1  UNL     1      24.781   6.623  48.184  1.00  0.00    -0.115 Cl
ENDBRANCH   1   6
BRANCH   3  13
HETATM   13  C7  UNL     1      25.059   1.284  52.113  1.00  0.00     0.192 A 
HETATM   14  N3  UNL     1      24.453   0.744  52.911  1.00  0.00    -0.198 NA
HETATM   15  C8  UNL     1      24.727  -0.348  53.600  1.00  0.00     0.171 A 
HETATM   16  C9  UNL     1      25.937  -0.924  53.305  1.00  0.00     0.111 A 
HETATM   17  S1  UNL     1      26.617   0.198  52.001  1.00  0.00    -0.058 SA
BRANCH  15  18
HETATM   18  O1  UNL     1      23.830  -0.863  54.560  1.00  0.00    -0.344 OA
HETATM   19  H6  UNL     1      23.522  -0.293  55.337  1.00  0.00     0.219 HD
ENDBRANCH  15  18
ENDBRANCH   3  13
BRANCH   4  20
HETATM   20  C11 UNL     1      22.604   2.118  50.392  1.00  0.00    -0.032 A 
HETATM   21  C12 UNL     1      21.726   1.408  51.091  1.00  0.00     0.010 A 
HETATM   22  C13 UNL     1      20.864   0.639  50.200  1.00  0.00     0.013 A 
HETATM   23  C14 UNL     1      21.261   0.997  49.008  1.00  0.00    -0.025 A 
HETATM   24  C15 UNL     1      22.295   1.793  48.989  1.00  0.00     0.021 A 
ENDBRANCH   4  20
TORSDOF 4
ENDMDL
