MODEL 1
REMARK VINA RESULT:      -7.2      0.000      0.000
REMARK  5 active torsions:
REMARK  status: ('A' for Active; 'I' for Inactive)
REMARK    1  A    between atoms: N1_2  and  N2_3 
REMARK    2  A    between atoms: N2_3  and  C2_4 
REMARK    3  A    between atoms: N2_3  and  C5_10 
REMARK    4  A    between atoms: C3_6  and  O1_7 
REMARK    5  A    between atoms: C7_12  and  C9_14 
ROOT
HETATM    1  C5  UNL     1      26.085   1.880  52.853  1.00  0.00     0.126 A 
HETATM    2  C6  UNL     1      25.107   2.902  53.375  1.00  0.00     0.044 A 
HETATM    3  C7  UNL     1      24.758   1.846  52.277  1.00  0.00     0.008 A 
HETATM    4  C8  UNL     1      24.581   2.457  50.888  1.00  0.00     0.023 C 
ENDROOT
BRANCH   1   5
HETATM    5  N2  UNL     1      26.724   0.929  53.688  1.00  0.00    -0.241 N 
BRANCH   5   6
HETATM    6  N1  UNL     1      26.369   0.989  55.043  1.00  0.00    -0.194 NA
HETATM    7  C1  UNL     1      25.968  -0.072  55.666  1.00  0.00     0.173 C 
ENDBRANCH   5   6
BRANCH   5   8
HETATM    8  C2  UNL     1      27.701  -0.162  53.530  1.00  0.00     0.192 A 
HETATM    9  N3  UNL     1      27.665  -1.275  53.266  1.00  0.00    -0.198 NA
HETATM   10  C3  UNL     1      28.681  -2.107  53.167  1.00  0.00     0.171 A 
HETATM   11  C4  UNL     1      29.924  -1.602  53.403  1.00  0.00     0.111 A 
HETATM   12  S1  UNL     1      29.535   0.151  53.776  1.00  0.00    -0.058 SA
BRANCH  10  13
HETATM   13  O1  UNL     1      28.387  -3.447  52.827  1.00  0.00    -0.344 OA
HETATM   14  H3  UNL     1      28.689  -3.853  51.951  1.00  0.00     0.219 HD
ENDBRANCH  10  13
ENDBRANCH   5   8
ENDBRANCH   1   5
BRANCH   3  15
HETATM   15  C9  UNL     1      23.642   1.015  52.661  1.00  0.00    -0.048 A 
HETATM   16  C10 UNL     1      22.362   1.590  52.652  1.00  0.00     0.009 A 
HETATM   17  C11 UNL     1      21.235   0.883  52.999  1.00  0.00     0.019 A 
HETATM   18  C12 UNL     1      21.317  -0.442  53.376  1.00  0.00     0.011 A 
HETATM   19 BR1  UNL     1      19.799  -1.474  53.868  1.00  0.00    -0.051 Br
HETATM   20  C13 UNL     1      22.553  -1.036  53.397  1.00  0.00     0.019 A 
HETATM   21  C14 UNL     1      23.670  -0.291  53.040  1.00  0.00     0.009 A 
ENDBRANCH   3  15
TORSDOF 5
ENDMDL
MODEL 2
REMARK VINA RESULT:      -6.9      4.789      6.642
REMARK  5 active torsions:
REMARK  status: ('A' for Active; 'I' for Inactive)
REMARK    1  A    between atoms: N1_2  and  N2_3 
REMARK    2  A    between atoms: N2_3  and  C2_4 
REMARK    3  A    between atoms: N2_3  and  C5_10 
REMARK    4  A    between atoms: C3_6  and  O1_7 
REMARK    5  A    between atoms: C7_12  and  C9_14 
ROOT
HETATM    1  C5  UNL     1      22.650   2.512  51.159  1.00  0.00     0.126 A 
HETATM    2  C6  UNL     1      22.665   2.659  52.660  1.00  0.00     0.044 A 
HETATM    3  C7  UNL     1      23.067   1.348  51.911  1.00  0.00     0.008 A 
HETATM    4  C8  UNL     1      22.049   0.221  52.080  1.00  0.00     0.023 C 
ENDROOT
BRANCH   1   5
HETATM    5  N2  UNL     1      23.410   3.342  50.297  1.00  0.00    -0.241 N 
BRANCH   5   6
HETATM    6  N1  UNL     1      23.640   2.822  49.015  1.00  0.00    -0.194 NA
HETATM    7  C1  UNL     1      22.648   2.493  48.251  1.00  0.00     0.173 C 
ENDBRANCH   5   6
BRANCH   5   8
HETATM    8  C2  UNL     1      24.057   4.664  50.367  1.00  0.00     0.192 A 
HETATM    9  N3  UNL     1      23.856   5.658  50.896  1.00  0.00    -0.198 NA
HETATM   10  C3  UNL     1      24.577   6.758  50.832  1.00  0.00     0.171 A 
HETATM   11  C4  UNL     1      25.693   6.727  50.052  1.00  0.00     0.111 A 
HETATM   12  S1  UNL     1      25.637   5.008  49.414  1.00  0.00    -0.058 SA
BRANCH  10  13
HETATM   13  O1  UNL     1      24.125   7.870  51.580  1.00  0.00    -0.344 OA
HETATM   14  H3  UNL     1      23.141   8.036  51.746  1.00  0.00     0.219 HD
ENDBRANCH  10  13
ENDBRANCH   5   8
ENDBRANCH   1   5
BRANCH   3  15
HETATM   15  C9  UNL     1      24.411   0.932  52.234  1.00  0.00    -0.048 A 
HETATM   16  C10 UNL     1      24.570  -0.131  53.137  1.00  0.00     0.009 A 
HETATM   17  C11 UNL     1      25.806  -0.603  53.509  1.00  0.00     0.019 A 
HETATM   18  C12 UNL     1      26.961  -0.044  53.000  1.00  0.00     0.011 A 
HETATM   19 BR1  UNL     1      28.700  -0.649  53.471  1.00  0.00    -0.051 Br
HETATM   20  C13 UNL     1      26.843   0.997  52.114  1.00  0.00     0.019 A 
HETATM   21  C14 UNL     1      25.577   1.448  51.762  1.00  0.00     0.009 A 
ENDBRANCH   3  15
TORSDOF 5
ENDMDL
MODEL 3
REMARK VINA RESULT:      -6.9      3.276      4.710
REMARK  5 active torsions:
REMARK  status: ('A' for Active; 'I' for Inactive)
REMARK    1  A    between atoms: N1_2  and  N2_3 
REMARK    2  A    between atoms: N2_3  and  C2_4 
REMARK    3  A    between atoms: N2_3  and  C5_10 
REMARK    4  A    between atoms: C3_6  and  O1_7 
REMARK    5  A    between atoms: C7_12  and  C9_14 
ROOT
HETATM    1  C5  UNL     1      25.730   0.432  54.155  1.00  0.00     0.126 A 
HETATM    2  C6  UNL     1      25.662  -0.754  53.226  1.00  0.00     0.044 A 
HETATM    3  C7  UNL     1      24.560  -0.412  54.280  1.00  0.00     0.008 A 
HETATM    4  C8  UNL     1      24.524  -1.390  55.453  1.00  0.00     0.023 C 
ENDROOT
BRANCH   1   5
HETATM    5  N2  UNL     1      25.825   1.768  53.692  1.00  0.00    -0.241 N 
BRANCH   5   6
HETATM    6  N1  UNL     1      27.014   2.433  54.024  1.00  0.00    -0.194 NA
HETATM    7  C1  UNL     1      28.133   2.100  53.465  1.00  0.00     0.173 C 
ENDBRANCH   5   6
BRANCH   5   8
HETATM    8  C2  UNL     1      24.991   2.703  52.918  1.00  0.00     0.192 A 
HETATM    9  N3  UNL     1      24.170   3.467  53.146  1.00  0.00    -0.198 NA
HETATM   10  C3  UNL     1      23.529   4.233  52.289  1.00  0.00     0.171 A 
HETATM   11  C4  UNL     1      23.867   4.116  50.975  1.00  0.00     0.111 A 
HETATM   12  S1  UNL     1      25.172   2.829  51.054  1.00  0.00    -0.058 SA
BRANCH  10  13
HETATM   13  O1  UNL     1      22.547   5.106  52.813  1.00  0.00    -0.344 OA
HETATM   14  H3  UNL     1      21.787   4.769  53.389  1.00  0.00     0.219 HD
ENDBRANCH  10  13
ENDBRANCH   5   8
ENDBRANCH   1   5
BRANCH   3  15
HETATM   15  C9  UNL     1      23.265  -0.233  53.670  1.00  0.00    -0.048 A 
HETATM   16  C10 UNL     1      22.129  -0.466  54.461  1.00  0.00     0.009 A 
HETATM   17  C11 UNL     1      20.850  -0.322  53.974  1.00  0.00     0.019 A 
HETATM   18  C12 UNL     1      20.629   0.065  52.668  1.00  0.00     0.011 A 
HETATM   19 BR1  UNL     1      18.890   0.283  51.934  1.00  0.00    -0.051 Br
HETATM   20  C13 UNL     1      21.717   0.301  51.867  1.00  0.00     0.019 A 
HETATM   21  C14 UNL     1      22.993   0.145  52.393  1.00  0.00     0.009 A 
ENDBRANCH   3  15
TORSDOF 5
ENDMDL
MODEL 4
REMARK VINA RESULT:      -6.8      4.225      6.101
REMARK  5 active torsions:
REMARK  status: ('A' for Active; 'I' for Inactive)
REMARK    1  A    between atoms: N1_2  and  N2_3 
REMARK    2  A    between atoms: N2_3  and  C2_4 
REMARK    3  A    between atoms: N2_3  and  C5_10 
REMARK    4  A    between atoms: C3_6  and  O1_7 
REMARK    5  A    between atoms: C7_12  and  C9_14 
ROOT
HETATM    1  C5  UNL     1      22.458   1.292  51.466  1.00  0.00     0.126 A 
HETATM    2  C6  UNL     1      22.304   1.814  52.872  1.00  0.00     0.044 A 
HETATM    3  C7  UNL     1      23.154   0.556  52.499  1.00  0.00     0.008 A 
HETATM    4  C8  UNL     1      22.527  -0.755  52.970  1.00  0.00     0.023 C 
ENDROOT
BRANCH   1   5
HETATM    5  N2  UNL     1      22.990   2.073  50.409  1.00  0.00    -0.241 N 
BRANCH   5   6
HETATM    6  N1  UNL     1      22.429   1.833  49.147  1.00  0.00    -0.194 NA
HETATM    7  C1  UNL     1      21.447   1.001  49.010  1.00  0.00     0.173 C 
ENDBRANCH   5   6
BRANCH   5   8
HETATM    8  C2  UNL     1      24.012   3.121  50.252  1.00  0.00     0.192 A 
HETATM    9  N3  UNL     1      25.151   3.159  50.140  1.00  0.00    -0.198 NA
HETATM   10  C3  UNL     1      25.906   4.229  50.003  1.00  0.00     0.171 A 
HETATM   11  C4  UNL     1      25.278   5.437  49.993  1.00  0.00     0.111 A 
HETATM   12  S1  UNL     1      23.525   4.932  50.193  1.00  0.00    -0.058 SA
BRANCH  10  13
HETATM   13  O1  UNL     1      27.300   4.024  49.881  1.00  0.00    -0.344 OA
HETATM   14  H3  UNL     1      27.846   4.491  49.169  1.00  0.00     0.219 HD
ENDBRANCH  10  13
ENDBRANCH   5   8
ENDBRANCH   1   5
BRANCH   3  15
HETATM   15  C9  UNL     1      24.530   0.691  52.915  1.00  0.00    -0.048 A 
HETATM   16  C10 UNL     1      25.345  -0.450  52.863  1.00  0.00     0.009 A 
HETATM   17  C11 UNL     1      26.669  -0.426  53.235  1.00  0.00     0.019 A 
HETATM   18  C12 UNL     1      27.259   0.740  53.681  1.00  0.00     0.011 A 
HETATM   19 BR1  UNL     1      29.082   0.840  54.209  1.00  0.00    -0.051 Br
HETATM   20  C13 UNL     1      26.491   1.874  53.744  1.00  0.00     0.019 A 
HETATM   21  C14 UNL     1      25.157   1.812  53.360  1.00  0.00     0.009 A 
ENDBRANCH   3  15
TORSDOF 5
ENDMDL
MODEL 5
REMARK VINA RESULT:      -6.5      4.692      6.352
REMARK  5 active torsions:
REMARK  status: ('A' for Active; 'I' for Inactive)
REMARK    1  A    between atoms: N1_2  and  N2_3 
REMARK    2  A    between atoms: N2_3  and  C2_4 
REMARK    3  A    between atoms: N2_3  and  C5_10 
REMARK    4  A    between atoms: C3_6  and  O1_7 
REMARK    5  A    between atoms: C7_12  and  C9_14 
ROOT
HETATM    1  C5  UNL     1      23.021   3.860  50.859  1.00  0.00     0.126 A 
HETATM    2  C6  UNL     1      23.509   4.251  52.232  1.00  0.00     0.044 A 
HETATM    3  C7  UNL     1      23.081   2.799  51.841  1.00  0.00     0.008 A 
HETATM    4  C8  UNL     1      21.765   2.365  52.485  1.00  0.00     0.023 C 
ENDROOT
BRANCH   1   5
HETATM    5  N2  UNL     1      23.797   4.041  49.687  1.00  0.00    -0.241 N 
BRANCH   5   6
HETATM    6  N1  UNL     1      23.368   3.315  48.567  1.00  0.00    -0.194 NA
HETATM    7  C1  UNL     1      22.117   3.292  48.237  1.00  0.00     0.173 C 
ENDBRANCH   5   6
BRANCH   5   8
HETATM    8  C2  UNL     1      24.984   4.817  49.289  1.00  0.00     0.192 A 
HETATM    9  N3  UNL     1      26.119   4.675  49.327  1.00  0.00    -0.198 NA
HETATM   10  C3  UNL     1      27.045   5.510  48.903  1.00  0.00     0.171 A 
HETATM   11  C4  UNL     1      26.621   6.682  48.353  1.00  0.00     0.111 A 
HETATM   12  S1  UNL     1      24.800   6.503  48.486  1.00  0.00    -0.058 SA
BRANCH  10  13
HETATM   13  O1  UNL     1      28.393   5.113  49.058  1.00  0.00    -0.344 OA
HETATM   14  H3  UNL     1      29.057   5.172  48.297  1.00  0.00     0.219 HD
ENDBRANCH  10  13
ENDBRANCH   5   8
ENDBRANCH   1   5
BRANCH   3  15
HETATM   15  C9  UNL     1      24.143   1.846  52.059  1.00  0.00    -0.048 A 
HETATM   16  C10 UNL     1      23.873   0.738  52.877  1.00  0.00     0.009 A 
HETATM   17  C11 UNL     1      24.816  -0.227  53.145  1.00  0.00     0.019 A 
HETATM   18  C12 UNL     1      26.086  -0.145  52.610  1.00  0.00     0.011 A 
HETATM   19 BR1  UNL     1      27.433  -1.443  52.940  1.00  0.00    -0.051 Br
HETATM   20  C13 UNL     1      26.383   0.925  51.805  1.00  0.00     0.019 A 
HETATM   21  C14 UNL     1      25.406   1.881  51.557  1.00  0.00     0.009 A 
ENDBRANCH   3  15
TORSDOF 5
ENDMDL
MODEL 6
REMARK VINA RESULT:      -6.5      3.433      4.775
REMARK  5 active torsions:
REMARK  status: ('A' for Active; 'I' for Inactive)
REMARK    1  A    between atoms: N1_2  and  N2_3 
REMARK    2  A    between atoms: N2_3  and  C2_4 
REMARK    3  A    between atoms: N2_3  and  C5_10 
REMARK    4  A    between atoms: C3_6  and  O1_7 
REMARK    5  A    between atoms: C7_12  and  C9_14 
ROOT
HETATM    1  C5  UNL     1      22.267   0.788  52.843  1.00  0.00     0.126 A 
HETATM    2  C6  UNL     1      21.752   0.577  51.441  1.00  0.00     0.044 A 
HETATM    3  C7  UNL     1      21.939   1.984  52.096  1.00  0.00     0.008 A 
HETATM    4  C8  UNL     1      20.617   2.675  52.424  1.00  0.00     0.023 C 
ENDROOT
BRANCH   1   5
HETATM    5  N2  UNL     1      23.533   0.322  53.277  1.00  0.00    -0.241 N 
BRANCH   5   6
HETATM    6  N1  UNL     1      23.497  -0.702  54.234  1.00  0.00    -0.194 NA
HETATM    7  C1  UNL     1      22.376  -1.063  54.770  1.00  0.00     0.173 C 
ENDBRANCH   5   6
BRANCH   5   8
HETATM    8  C2  UNL     1      24.947   0.618  52.990  1.00  0.00     0.192 A 
HETATM    9  N3  UNL     1      25.543   1.508  52.589  1.00  0.00    -0.198 NA
HETATM   10  C3  UNL     1      26.845   1.582  52.402  1.00  0.00     0.171 A 
HETATM   11  C4  UNL     1      27.581   0.480  52.716  1.00  0.00     0.111 A 
HETATM   12  S1  UNL     1      26.276  -0.671  53.299  1.00  0.00    -0.058 SA
BRANCH  10  13
HETATM   13  O1  UNL     1      27.357   2.797  51.893  1.00  0.00    -0.344 OA
HETATM   14  H3  UNL     1      27.771   3.495  52.496  1.00  0.00     0.219 HD
ENDBRANCH  10  13
ENDBRANCH   5   8
ENDBRANCH   1   5
BRANCH   3  15
HETATM   15  C9  UNL     1      22.826   2.824  51.327  1.00  0.00    -0.048 A 
HETATM   16  C10 UNL     1      23.257   4.027  51.908  1.00  0.00     0.009 A 
HETATM   17  C11 UNL     1      24.104   4.896  51.260  1.00  0.00     0.019 A 
HETATM   18  C12 UNL     1      24.573   4.615  49.992  1.00  0.00     0.011 A 
HETATM   19 BR1  UNL     1      25.743   5.772  49.042  1.00  0.00    -0.051 Br
HETATM   20  C13 UNL     1      24.171   3.448  49.395  1.00  0.00     0.019 A 
HETATM   21  C14 UNL     1      23.315   2.595  50.080  1.00  0.00     0.009 A 
ENDBRANCH   3  15
TORSDOF 5
ENDMDL
MODEL 7
REMARK VINA RESULT:      -6.5      4.774      6.565
REMARK  5 active torsions:
REMARK  status: ('A' for Active; 'I' for Inactive)
REMARK    1  A    between atoms: N1_2  and  N2_3 
REMARK    2  A    between atoms: N2_3  and  C2_4 
REMARK    3  A    between atoms: N2_3  and  C5_10 
REMARK    4  A    between atoms: C3_6  and  O1_7 
REMARK    5  A    between atoms: C7_12  and  C9_14 
ROOT
HETATM    1  C5  UNL     1      23.681   3.654  50.499  1.00  0.00     0.126 A 
HETATM    2  C6  UNL     1      23.945   2.940  49.197  1.00  0.00     0.044 A 
HETATM    3  C7  UNL     1      24.065   4.488  49.381  1.00  0.00     0.008 A 
HETATM    4  C8  UNL     1      22.956   5.265  48.674  1.00  0.00     0.023 C 
ENDROOT
BRANCH   1   5
HETATM    5  N2  UNL     1      24.394   3.369  51.691  1.00  0.00    -0.241 N 
BRANCH   5   6
HETATM    6  N1  UNL     1      23.952   4.054  52.831  1.00  0.00    -0.194 NA
HETATM    7  C1  UNL     1      22.841   4.717  52.811  1.00  0.00     0.173 C 
ENDBRANCH   5   6
BRANCH   5   8
HETATM    8  C2  UNL     1      25.523   2.511  52.094  1.00  0.00     0.192 A 
HETATM    9  N3  UNL     1      26.641   2.651  52.291  1.00  0.00    -0.198 NA
HETATM   10  C3  UNL     1      27.510   1.732  52.658  1.00  0.00     0.171 A 
HETATM   11  C4  UNL     1      27.040   0.464  52.827  1.00  0.00     0.111 A 
HETATM   12  S1  UNL     1      25.264   0.682  52.422  1.00  0.00    -0.058 SA
BRANCH  10  13
HETATM   13  O1  UNL     1      28.849   2.146  52.843  1.00  0.00    -0.344 OA
HETATM   14  H3  UNL     1      29.606   1.764  52.290  1.00  0.00     0.219 HD
ENDBRANCH  10  13
ENDBRANCH   5   8
ENDBRANCH   1   5
BRANCH   3  15
HETATM   15  C9  UNL     1      25.382   4.972  49.042  1.00  0.00    -0.048 A 
HETATM   16  C10 UNL     1      25.499   6.299  48.601  1.00  0.00     0.009 A 
HETATM   17  C11 UNL     1      26.708   6.857  48.256  1.00  0.00     0.019 A 
HETATM   18  C12 UNL     1      27.874   6.122  48.332  1.00  0.00     0.011 A 
HETATM   19 BR1  UNL     1      29.576   6.831  47.870  1.00  0.00    -0.051 Br
HETATM   20  C13 UNL     1      27.796   4.821  48.759  1.00  0.00     0.019 A 
HETATM   21  C14 UNL     1      26.557   4.292  49.099  1.00  0.00     0.009 A 
ENDBRANCH   3  15
TORSDOF 5
ENDMDL
MODEL 8
REMARK VINA RESULT:      -6.2      4.553      5.952
REMARK  5 active torsions:
REMARK  status: ('A' for Active; 'I' for Inactive)
REMARK    1  A    between atoms: N1_2  and  N2_3 
REMARK    2  A    between atoms: N2_3  and  C2_4 
REMARK    3  A    between atoms: N2_3  and  C5_10 
REMARK    4  A    between atoms: C3_6  and  O1_7 
REMARK    5  A    between atoms: C7_12  and  C9_14 
ROOT
HETATM    1  C5  UNL     1      22.008   3.359  49.879  1.00  0.00     0.126 A 
HETATM    2  C6  UNL     1      20.870   2.928  50.772  1.00  0.00     0.044 A 
HETATM    3  C7  UNL     1      21.974   1.958  50.240  1.00  0.00     0.008 A 
HETATM    4  C8  UNL     1      21.458   0.976  49.189  1.00  0.00     0.023 C 
ENDROOT
BRANCH   1   5
HETATM    5  N2  UNL     1      22.942   4.358  50.251  1.00  0.00    -0.241 N 
BRANCH   5   6
HETATM    6  N1  UNL     1      22.598   5.106  51.386  1.00  0.00    -0.194 NA
HETATM    7  C1  UNL     1      23.266   4.977  52.486  1.00  0.00     0.173 C 
ENDBRANCH   5   6
BRANCH   5   8
HETATM    8  C2  UNL     1      24.239   4.856  49.763  1.00  0.00     0.192 A 
HETATM    9  N3  UNL     1      25.321   4.484  49.757  1.00  0.00    -0.198 NA
HETATM   10  C3  UNL     1      26.374   5.093  49.252  1.00  0.00     0.171 A 
HETATM   11  C4  UNL     1      26.171   6.305  48.666  1.00  0.00     0.111 A 
HETATM   12  S1  UNL     1      24.361   6.513  48.889  1.00  0.00    -0.058 SA
BRANCH  10  13
HETATM   13  O1  UNL     1      27.619   4.432  49.366  1.00  0.00    -0.344 OA
HETATM   14  H3  UNL     1      28.484   4.872  49.082  1.00  0.00     0.219 HD
ENDBRANCH  10  13
ENDBRANCH   5   8
ENDBRANCH   1   5
BRANCH   3  15
HETATM   15  C9  UNL     1      22.678   1.299  51.314  1.00  0.00    -0.048 A 
HETATM   16  C10 UNL     1      24.053   1.544  51.446  1.00  0.00     0.009 A 
HETATM   17  C11 UNL     1      24.813   0.967  52.436  1.00  0.00     0.019 A 
HETATM   18  C12 UNL     1      24.244   0.109  53.357  1.00  0.00     0.011 A 
HETATM   19 BR1  UNL     1      25.237  -0.721  54.748  1.00  0.00    -0.051 Br
HETATM   20  C13 UNL     1      22.902  -0.152  53.257  1.00  0.00     0.019 A 
HETATM   21  C14 UNL     1      22.166   0.448  52.243  1.00  0.00     0.009 A 
ENDBRANCH   3  15
TORSDOF 5
ENDMDL
MODEL 9
REMARK VINA RESULT:      -6.2      8.606      9.860
REMARK  5 active torsions:
REMARK  status: ('A' for Active; 'I' for Inactive)
REMARK    1  A    between atoms: N1_2  and  N2_3 
REMARK    2  A    between atoms: N2_3  and  C2_4 
REMARK    3  A    between atoms: N2_3  and  C5_10 
REMARK    4  A    between atoms: C3_6  and  O1_7 
REMARK    5  A    between atoms: C7_12  and  C9_14 
ROOT
HETATM    1  C5  UNL     1      30.624   8.197  47.257  1.00  0.00     0.126 A 
HETATM    2  C6  UNL     1      29.906   8.915  48.373  1.00  0.00     0.044 A 
HETATM    3  C7  UNL     1      29.181   8.082  47.267  1.00  0.00     0.008 A 
HETATM    4  C8  UNL     1      28.403   8.945  46.275  1.00  0.00     0.023 C 
ENDROOT
BRANCH   1   5
HETATM    5  N2  UNL     1      31.604   7.200  47.490  1.00  0.00    -0.241 N 
BRANCH   5   6
HETATM    6  N1  UNL     1      32.350   7.357  48.666  1.00  0.00    -0.194 NA
HETATM    7  C1  UNL     1      33.554   7.829  48.623  1.00  0.00     0.173 C 
ENDBRANCH   5   6
BRANCH   5   8
HETATM    8  C2  UNL     1      32.082   5.980  46.816  1.00  0.00     0.192 A 
HETATM    9  N3  UNL     1      32.375   5.682  45.751  1.00  0.00    -0.198 NA
HETATM   10  C3  UNL     1      32.796   4.505  45.336  1.00  0.00     0.171 A 
HETATM   11  C4  UNL     1      32.900   3.518  46.269  1.00  0.00     0.111 A 
HETATM   12  S1  UNL     1      32.352   4.395  47.784  1.00  0.00    -0.058 SA
BRANCH  10  13
HETATM   13  O1  UNL     1      33.099   4.375  43.962  1.00  0.00    -0.344 OA
HETATM   14  H3  UNL     1      32.570   3.763  43.355  1.00  0.00     0.219 HD
ENDBRANCH  10  13
ENDBRANCH   5   8
ENDBRANCH   1   5
BRANCH   3  15
HETATM   15  C9  UNL     1      28.377   7.023  47.828  1.00  0.00    -0.048 A 
HETATM   16  C10 UNL     1      27.025   7.295  48.092  1.00  0.00     0.009 A 
HETATM   17  C11 UNL     1      26.175   6.355  48.624  1.00  0.00     0.019 A 
HETATM   18  C12 UNL     1      26.622   5.084  48.925  1.00  0.00     0.011 A 
HETATM   19 BR1  UNL     1      25.500   3.739  49.662  1.00  0.00    -0.051 Br
HETATM   20  C13 UNL     1      27.938   4.784  48.680  1.00  0.00     0.019 A 
HETATM   21  C14 UNL     1      28.768   5.759  48.142  1.00  0.00     0.009 A 
ENDBRANCH   3  15
TORSDOF 5
ENDMDL
