MODEL 1
REMARK VINA RESULT:      -6.8      0.000      0.000
REMARK  11 active torsions:
REMARK  status: ('A' for Active; 'I' for Inactive)
REMARK    1  A    between atoms: C2_2  and  C3_3 
REMARK    2  A    between atoms: C3_3  and  N1_4 
REMARK    3  A    between atoms: N1_4  and  C4_5 
REMARK    4  A    between atoms: N1_4  and  C6_7 
REMARK    5  A    between atoms: C6_7  and  C7_8 
REMARK    6  A    between atoms: C7_8  and  N2_9 
REMARK    7  A    between atoms: C14_19  and  N4_20 
REMARK    8  A    between atoms: N4_20  and  C15_21 
REMARK    9  A    between atoms: C15_21  and  C16_22 
REMARK   10  A    between atoms: C16_22  and  C17_23 
REMARK   11  A    between atoms: C17_23  and  C18_24 
ROOT
HETATM    1  N2  UNL     1      25.304   1.942  51.891  1.00  0.00    -0.325 N 
HETATM    2  C8  UNL     1      26.704   1.954  52.188  1.00  0.00     0.246 C 
HETATM    3  O1  UNL     1      27.318   2.763  51.456  1.00  0.00    -0.268 OA
HETATM    4  C9  UNL     1      27.719   1.337  53.076  1.00  0.00     0.099 C 
HETATM    5  C10 UNL     1      27.614   0.478  54.088  1.00  0.00     0.013 C 
HETATM    6  C11 UNL     1      28.924   0.130  54.697  1.00  0.00     0.068 C 
HETATM    7  N3  UNL     1      26.473  -0.172  54.697  1.00  0.00    -0.331 N 
HETATM    8  C12 UNL     1      25.169  -0.484  54.147  1.00  0.00     0.225 C 
HETATM    9  O2  UNL     1      24.480  -0.987  55.077  1.00  0.00    -0.273 OA
HETATM   10  C13 UNL     1      24.610  -0.303  52.764  1.00  0.00     0.149 C 
HETATM   11  C14 UNL     1      24.275   1.064  52.391  1.00  0.00     0.195 C 
HETATM   12  H21 UNL     1      26.697  -0.430  55.693  1.00  0.00     0.168 HD
ENDROOT
BRANCH   1  13
HETATM   13  C7  UNL     1      24.987   3.027  51.041  1.00  0.00     0.158 C 
BRANCH  13  14
HETATM   14  C6  UNL     1      24.196   4.179  51.391  1.00  0.00     0.292 C 
BRANCH  14  15
HETATM   15  N1  UNL     1      24.822   5.354  50.697  1.00  0.00     0.089 N 
BRANCH  15  16
HETATM   16  C3  UNL     1      25.415   4.834  49.467  1.00  0.00     0.272 C 
BRANCH  16  17
HETATM   17  C2  UNL     1      26.516   5.624  48.883  1.00  0.00     0.026 C 
HETATM   18  C1  UNL     1      27.809   5.002  48.560  1.00  0.00     0.007 C 
ENDBRANCH  16  17
ENDBRANCH  15  16
BRANCH  15  19
HETATM   19  C4  UNL     1      23.592   6.088  50.285  1.00  0.00     0.268 C 
HETATM   20  C5  UNL     1      23.645   7.543  50.674  1.00  0.00     0.037 C 
ENDBRANCH  15  19
ENDBRANCH  14  15
ENDBRANCH  13  14
ENDBRANCH   1  13
BRANCH  11  21
HETATM   21  N4  UNL     1      23.152   1.063  51.480  1.00  0.00    -0.377 N 
HETATM   22  H25 UNL     1      23.371   1.024  50.471  1.00  0.00     0.161 HD
BRANCH  21  23
HETATM   23  C15 UNL     1      21.831   1.079  51.889  1.00  0.00     0.085 C 
BRANCH  23  24
HETATM   24  C16 UNL     1      20.724   0.717  52.474  1.00  0.00     0.019 C 
BRANCH  24  25
HETATM   25  C17 UNL     1      20.125  -0.109  53.489  1.00  0.00     0.038 C 
BRANCH  25  26
HETATM   26  C18 UNL     1      20.953  -0.528  54.417  1.00  0.00     0.090 C 
HETATM   27  C19 UNL     1      21.414  -1.902  54.221  1.00  0.00     0.082 C 
HETATM   28  F1  UNL     1      21.372   0.196  55.471  1.00  0.00    -0.211 F 
ENDBRANCH  25  26
ENDBRANCH  24  25
ENDBRANCH  23  24
ENDBRANCH  21  23
ENDBRANCH  11  21
TORSDOF 11
ENDMDL
MODEL 2
REMARK VINA RESULT:      -6.7      2.128      5.065
REMARK  11 active torsions:
REMARK  status: ('A' for Active; 'I' for Inactive)
REMARK    1  A    between atoms: C2_2  and  C3_3 
REMARK    2  A    between atoms: C3_3  and  N1_4 
REMARK    3  A    between atoms: N1_4  and  C4_5 
REMARK    4  A    between atoms: N1_4  and  C6_7 
REMARK    5  A    between atoms: C6_7  and  C7_8 
REMARK    6  A    between atoms: C7_8  and  N2_9 
REMARK    7  A    between atoms: C14_19  and  N4_20 
REMARK    8  A    between atoms: N4_20  and  C15_21 
REMARK    9  A    between atoms: C15_21  and  C16_22 
REMARK   10  A    between atoms: C16_22  and  C17_23 
REMARK   11  A    between atoms: C17_23  and  C18_24 
ROOT
HETATM    1  N2  UNL     1      24.049   2.292  51.999  1.00  0.00    -0.325 N 
HETATM    2  C8  UNL     1      22.704   1.944  52.341  1.00  0.00     0.246 C 
HETATM    3  O1  UNL     1      21.888   2.783  51.895  1.00  0.00    -0.268 OA
HETATM    4  C9  UNL     1      21.903   0.918  53.053  1.00  0.00     0.099 C 
HETATM    5  C10 UNL     1      22.243  -0.226  53.644  1.00  0.00     0.013 C 
HETATM    6  C11 UNL     1      21.085  -0.941  54.240  1.00  0.00     0.068 C 
HETATM    7  N3  UNL     1      23.516  -0.893  53.810  1.00  0.00    -0.331 N 
HETATM    8  C12 UNL     1      24.862  -0.354  53.825  1.00  0.00     0.225 C 
HETATM    9  O2  UNL     1      25.656  -1.330  53.925  1.00  0.00    -0.273 OA
HETATM   10  C13 UNL     1      25.361   1.061  53.745  1.00  0.00     0.149 C 
HETATM   11  C14 UNL     1      25.284   1.687  52.433  1.00  0.00     0.195 C 
HETATM   12  H21 UNL     1      23.365  -1.928  53.936  1.00  0.00     0.168 HD
ENDROOT
BRANCH   1  13
HETATM   13  C7  UNL     1      24.044   3.335  51.044  1.00  0.00     0.158 C 
BRANCH  13  14
HETATM   14  C6  UNL     1      24.419   3.221  49.659  1.00  0.00     0.292 C 
BRANCH  14  15
HETATM   15  N1  UNL     1      24.511   4.621  49.124  1.00  0.00     0.089 N 
BRANCH  15  16
HETATM   16  C3  UNL     1      23.462   5.386  49.797  1.00  0.00     0.272 C 
BRANCH  16  17
HETATM   17  C2  UNL     1      23.682   6.839  49.918  1.00  0.00     0.026 C 
HETATM   18  C1  UNL     1      22.652   7.719  50.488  1.00  0.00     0.007 C 
ENDBRANCH  16  17
ENDBRANCH  15  16
BRANCH  15  19
HETATM   19  C4  UNL     1      25.796   5.046  49.746  1.00  0.00     0.268 C 
HETATM   20  C5  UNL     1      26.984   4.386  49.092  1.00  0.00     0.037 C 
ENDBRANCH  15  19
ENDBRANCH  14  15
ENDBRANCH  13  14
ENDBRANCH   1  13
BRANCH  11  21
HETATM   21  N4  UNL     1      26.370   2.628  52.273  1.00  0.00    -0.377 N 
HETATM   22  H25 UNL     1      26.136   3.540  51.846  1.00  0.00     0.161 HD
BRANCH  21  23
HETATM   23  C15 UNL     1      27.666   2.383  52.686  1.00  0.00     0.085 C 
BRANCH  23  24
HETATM   24  C16 UNL     1      28.709   2.291  53.462  1.00  0.00     0.019 C 
BRANCH  24  25
HETATM   25  C17 UNL     1      29.466   1.448  54.350  1.00  0.00     0.038 C 
BRANCH  25  26
HETATM   26  C18 UNL     1      28.977   0.240  54.512  1.00  0.00     0.090 C 
HETATM   27  C19 UNL     1      29.567  -0.760  53.623  1.00  0.00     0.082 C 
HETATM   28  F1  UNL     1      28.023  -0.101  55.397  1.00  0.00    -0.211 F 
ENDBRANCH  25  26
ENDBRANCH  24  25
ENDBRANCH  23  24
ENDBRANCH  21  23
ENDBRANCH  11  21
TORSDOF 11
ENDMDL
MODEL 3
REMARK VINA RESULT:      -6.6      1.523      1.866
REMARK  11 active torsions:
REMARK  status: ('A' for Active; 'I' for Inactive)
REMARK    1  A    between atoms: C2_2  and  C3_3 
REMARK    2  A    between atoms: C3_3  and  N1_4 
REMARK    3  A    between atoms: N1_4  and  C4_5 
REMARK    4  A    between atoms: N1_4  and  C6_7 
REMARK    5  A    between atoms: C6_7  and  C7_8 
REMARK    6  A    between atoms: C7_8  and  N2_9 
REMARK    7  A    between atoms: C14_19  and  N4_20 
REMARK    8  A    between atoms: N4_20  and  C15_21 
REMARK    9  A    between atoms: C15_21  and  C16_22 
REMARK   10  A    between atoms: C16_22  and  C17_23 
REMARK   11  A    between atoms: C17_23  and  C18_24 
ROOT
HETATM    1  N2  UNL     1      25.231   1.650  52.175  1.00  0.00    -0.325 N 
HETATM    2  C8  UNL     1      26.661   1.637  52.129  1.00  0.00     0.246 C 
HETATM    3  O1  UNL     1      27.095   2.386  51.225  1.00  0.00    -0.268 OA
HETATM    4  C9  UNL     1      27.849   1.039  52.785  1.00  0.00     0.099 C 
HETATM    5  C10 UNL     1      27.976   0.239  53.842  1.00  0.00     0.013 C 
HETATM    6  C11 UNL     1      29.388  -0.114  54.141  1.00  0.00     0.068 C 
HETATM    7  N3  UNL     1      27.004  -0.343  54.743  1.00  0.00    -0.331 N 
HETATM    8  C12 UNL     1      25.601  -0.646  54.539  1.00  0.00     0.225 C 
HETATM    9  O2  UNL     1      25.147  -1.077  55.635  1.00  0.00    -0.273 OA
HETATM   10  C13 UNL     1      24.730  -0.523  53.321  1.00  0.00     0.149 C 
HETATM   11  C14 UNL     1      24.338   0.831  52.957  1.00  0.00     0.195 C 
HETATM   12  H21 UNL     1      27.456  -0.554  55.671  1.00  0.00     0.168 HD
ENDROOT
BRANCH   1  13
HETATM   13  C7  UNL     1      24.737   2.697  51.362  1.00  0.00     0.158 C 
BRANCH  13  14
HETATM   14  C6  UNL     1      24.175   3.939  51.824  1.00  0.00     0.292 C 
BRANCH  14  15
HETATM   15  N1  UNL     1      23.854   4.745  50.598  1.00  0.00     0.089 N 
BRANCH  15  16
HETATM   16  C3  UNL     1      25.061   5.506  50.282  1.00  0.00     0.272 C 
BRANCH  16  17
HETATM   17  C2  UNL     1      25.680   5.241  48.969  1.00  0.00     0.026 C 
HETATM   18  C1  UNL     1      27.126   5.005  48.844  1.00  0.00     0.007 C 
ENDBRANCH  16  17
ENDBRANCH  15  16
BRANCH  15  19
HETATM   19  C4  UNL     1      23.779   3.651  49.590  1.00  0.00     0.268 C 
HETATM   20  C5  UNL     1      22.516   3.726  48.769  1.00  0.00     0.037 C 
ENDBRANCH  15  19
ENDBRANCH  14  15
ENDBRANCH  13  14
ENDBRANCH   1  13
BRANCH  11  21
HETATM   21  N4  UNL     1      23.029   0.814  52.342  1.00  0.00    -0.377 N 
HETATM   22  H25 UNL     1      23.000   0.810  51.309  1.00  0.00     0.161 HD
BRANCH  21  23
HETATM   23  C15 UNL     1      21.845   0.772  53.055  1.00  0.00     0.085 C 
BRANCH  23  24
HETATM   24  C16 UNL     1      20.611   0.491  53.367  1.00  0.00     0.019 C 
BRANCH  24  25
HETATM   25  C17 UNL     1      19.579  -0.513  53.371  1.00  0.00     0.038 C 
BRANCH  25  26
HETATM   26  C18 UNL     1      18.766  -0.469  52.342  1.00  0.00     0.090 C 
HETATM   27  C19 UNL     1      17.415  -0.943  52.636  1.00  0.00     0.082 C 
HETATM   28  F1  UNL     1      19.093  -0.039  51.110  1.00  0.00    -0.211 F 
ENDBRANCH  25  26
ENDBRANCH  24  25
ENDBRANCH  23  24
ENDBRANCH  21  23
ENDBRANCH  11  21
TORSDOF 11
ENDMDL
MODEL 4
REMARK VINA RESULT:      -6.6      1.943      2.964
REMARK  11 active torsions:
REMARK  status: ('A' for Active; 'I' for Inactive)
REMARK    1  A    between atoms: C2_2  and  C3_3 
REMARK    2  A    between atoms: C3_3  and  N1_4 
REMARK    3  A    between atoms: N1_4  and  C4_5 
REMARK    4  A    between atoms: N1_4  and  C6_7 
REMARK    5  A    between atoms: C6_7  and  C7_8 
REMARK    6  A    between atoms: C7_8  and  N2_9 
REMARK    7  A    between atoms: C14_19  and  N4_20 
REMARK    8  A    between atoms: N4_20  and  C15_21 
REMARK    9  A    between atoms: C15_21  and  C16_22 
REMARK   10  A    between atoms: C16_22  and  C17_23 
REMARK   11  A    between atoms: C17_23  and  C18_24 
ROOT
HETATM    1  N2  UNL     1      25.156   1.830  52.343  1.00  0.00    -0.325 N 
HETATM    2  C8  UNL     1      26.577   1.866  52.191  1.00  0.00     0.246 C 
HETATM    3  O1  UNL     1      26.921   2.675  51.298  1.00  0.00    -0.268 OA
HETATM    4  C9  UNL     1      27.829   1.275  52.725  1.00  0.00     0.099 C 
HETATM    5  C10 UNL     1      28.058   0.427  53.726  1.00  0.00     0.013 C 
HETATM    6  C11 UNL     1      29.498   0.106  53.900  1.00  0.00     0.068 C 
HETATM    7  N3  UNL     1      27.174  -0.232  54.663  1.00  0.00    -0.331 N 
HETATM    8  C12 UNL     1      25.769  -0.570  54.547  1.00  0.00     0.225 C 
HETATM    9  O2  UNL     1      25.412  -1.071  55.649  1.00  0.00    -0.273 OA
HETATM   10  C13 UNL     1      24.806  -0.414  53.404  1.00  0.00     0.149 C 
HETATM   11  C14 UNL     1      24.348   0.943  53.144  1.00  0.00     0.195 C 
HETATM   12  H21 UNL     1      27.701  -0.475  55.543  1.00  0.00     0.168 HD
ENDROOT
BRANCH   1  13
HETATM   13  C7  UNL     1      24.571   2.900  51.625  1.00  0.00     0.158 C 
BRANCH  13  14
HETATM   14  C6  UNL     1      23.987   4.086  52.194  1.00  0.00     0.292 C 
BRANCH  14  15
HETATM   15  N1  UNL     1      22.826   4.455  51.315  1.00  0.00     0.089 N 
BRANCH  15  16
HETATM   16  C3  UNL     1      21.655   4.514  52.187  1.00  0.00     0.272 C 
BRANCH  16  17
HETATM   17  C2  UNL     1      20.586   3.534  51.919  1.00  0.00     0.026 C 
HETATM   18  C1  UNL     1      19.387   3.906  51.153  1.00  0.00     0.007 C 
ENDBRANCH  16  17
ENDBRANCH  15  16
BRANCH  15  19
HETATM   19  C4  UNL     1      23.183   5.868  51.006  1.00  0.00     0.268 C 
HETATM   20  C5  UNL     1      21.962   6.726  50.792  1.00  0.00     0.037 C 
ENDBRANCH  15  19
ENDBRANCH  14  15
ENDBRANCH  13  14
ENDBRANCH   1  13
BRANCH  11  21
HETATM   21  N4  UNL     1      22.998   0.914  52.627  1.00  0.00    -0.377 N 
HETATM   22  H25 UNL     1      22.871   1.193  51.639  1.00  0.00     0.161 HD
BRANCH  21  23
HETATM   23  C15 UNL     1      21.901   0.510  53.364  1.00  0.00     0.085 C 
BRANCH  23  24
HETATM   24  C16 UNL     1      20.715   0.047  53.645  1.00  0.00     0.019 C 
BRANCH  24  25
HETATM   25  C17 UNL     1      19.463  -0.428  53.118  1.00  0.00     0.038 C 
BRANCH  25  26
HETATM   26  C18 UNL     1      19.165   0.019  51.921  1.00  0.00     0.090 C 
HETATM   27  C19 UNL     1      17.756   0.375  51.756  1.00  0.00     0.082 C 
HETATM   28  F1  UNL     1      20.034   0.157  50.903  1.00  0.00    -0.211 F 
ENDBRANCH  25  26
ENDBRANCH  24  25
ENDBRANCH  23  24
ENDBRANCH  21  23
ENDBRANCH  11  21
TORSDOF 11
ENDMDL
MODEL 5
REMARK VINA RESULT:      -6.3      2.540      7.294
REMARK  11 active torsions:
REMARK  status: ('A' for Active; 'I' for Inactive)
REMARK    1  A    between atoms: C2_2  and  C3_3 
REMARK    2  A    between atoms: C3_3  and  N1_4 
REMARK    3  A    between atoms: N1_4  and  C4_5 
REMARK    4  A    between atoms: N1_4  and  C6_7 
REMARK    5  A    between atoms: C6_7  and  C7_8 
REMARK    6  A    between atoms: C7_8  and  N2_9 
REMARK    7  A    between atoms: C14_19  and  N4_20 
REMARK    8  A    between atoms: N4_20  and  C15_21 
REMARK    9  A    between atoms: C15_21  and  C16_22 
REMARK   10  A    between atoms: C16_22  and  C17_23 
REMARK   11  A    between atoms: C17_23  and  C18_24 
ROOT
HETATM    1  N2  UNL     1      24.406   3.481  50.821  1.00  0.00    -0.325 N 
HETATM    2  C8  UNL     1      23.417   4.183  50.063  1.00  0.00     0.246 C 
HETATM    3  O1  UNL     1      22.260   3.820  50.374  1.00  0.00    -0.268 OA
HETATM    4  C9  UNL     1      23.262   5.217  49.010  1.00  0.00     0.099 C 
HETATM    5  C10 UNL     1      24.148   5.987  48.380  1.00  0.00     0.013 C 
HETATM    6  C11 UNL     1      23.526   6.893  47.380  1.00  0.00     0.068 C 
HETATM    7  N3  UNL     1      25.586   6.103  48.489  1.00  0.00    -0.331 N 
HETATM    8  C12 UNL     1      26.573   5.141  48.939  1.00  0.00     0.225 C 
HETATM    9  O2  UNL     1      27.694   5.720  48.928  1.00  0.00    -0.273 OA
HETATM   10  C13 UNL     1      26.432   3.706  49.363  1.00  0.00     0.149 C 
HETATM   11  C14 UNL     1      25.840   3.490  50.676  1.00  0.00     0.195 C 
HETATM   12  H21 UNL     1      25.893   7.061  48.176  1.00  0.00     0.168 HD
ENDROOT
BRANCH   1  13
HETATM   13  C7  UNL     1      23.784   2.774  51.877  1.00  0.00     0.158 C 
BRANCH  13  14
HETATM   14  C6  UNL     1      23.380   1.392  51.853  1.00  0.00     0.292 C 
BRANCH  14  15
HETATM   15  N1  UNL     1      23.259   0.956  53.285  1.00  0.00     0.089 N 
BRANCH  15  16
HETATM   16  C3  UNL     1      21.863   0.569  53.479  1.00  0.00     0.272 C 
BRANCH  16  17
HETATM   17  C2  UNL     1      21.587  -0.359  54.591  1.00  0.00     0.026 C 
HETATM   18  C1  UNL     1      20.994  -1.682  54.347  1.00  0.00     0.007 C 
ENDBRANCH  16  17
ENDBRANCH  15  16
BRANCH  15  19
HETATM   19  C4  UNL     1      24.036  -0.314  53.228  1.00  0.00     0.268 C 
HETATM   20  C5  UNL     1      25.274  -0.258  54.087  1.00  0.00     0.037 C 
ENDBRANCH  15  19
ENDBRANCH  14  15
ENDBRANCH  13  14
ENDBRANCH   1  13
BRANCH  11  21
HETATM   21  N4  UNL     1      26.398   2.297  51.274  1.00  0.00    -0.377 N 
HETATM   22  H25 UNL     1      26.031   1.391  50.936  1.00  0.00     0.161 HD
BRANCH  21  23
HETATM   23  C15 UNL     1      27.396   2.311  52.230  1.00  0.00     0.085 C 
BRANCH  23  24
HETATM   24  C16 UNL     1      27.999   2.160  53.376  1.00  0.00     0.019 C 
BRANCH  24  25
HETATM   25  C17 UNL     1      29.143   1.617  54.061  1.00  0.00     0.038 C 
BRANCH  25  26
HETATM   26  C18 UNL     1      29.042   0.347  54.379  1.00  0.00     0.090 C 
HETATM   27  C19 UNL     1      29.840  -0.539  53.532  1.00  0.00     0.082 C 
HETATM   28  F1  UNL     1      28.290  -0.148  55.379  1.00  0.00    -0.211 F 
ENDBRANCH  25  26
ENDBRANCH  24  25
ENDBRANCH  23  24
ENDBRANCH  21  23
ENDBRANCH  11  21
TORSDOF 11
ENDMDL
MODEL 6
REMARK VINA RESULT:      -6.2      2.753      5.718
REMARK  11 active torsions:
REMARK  status: ('A' for Active; 'I' for Inactive)
REMARK    1  A    between atoms: C2_2  and  C3_3 
REMARK    2  A    between atoms: C3_3  and  N1_4 
REMARK    3  A    between atoms: N1_4  and  C4_5 
REMARK    4  A    between atoms: N1_4  and  C6_7 
REMARK    5  A    between atoms: C6_7  and  C7_8 
REMARK    6  A    between atoms: C7_8  and  N2_9 
REMARK    7  A    between atoms: C14_19  and  N4_20 
REMARK    8  A    between atoms: N4_20  and  C15_21 
REMARK    9  A    between atoms: C15_21  and  C16_22 
REMARK   10  A    between atoms: C16_22  and  C17_23 
REMARK   11  A    between atoms: C17_23  and  C18_24 
ROOT
HETATM    1  N2  UNL     1      21.920   0.757  51.786  1.00  0.00    -0.325 N 
HETATM    2  C8  UNL     1      20.510   0.681  51.561  1.00  0.00     0.246 C 
HETATM    3  O1  UNL     1      20.167   1.371  50.575  1.00  0.00    -0.268 OA
HETATM    4  C9  UNL     1      19.270   0.062  52.090  1.00  0.00     0.099 C 
HETATM    5  C10 UNL     1      19.059  -0.816  53.070  1.00  0.00     0.013 C 
HETATM    6  C11 UNL     1      17.624  -1.156  53.250  1.00  0.00     0.068 C 
HETATM    7  N3  UNL     1      19.960  -1.491  53.980  1.00  0.00    -0.331 N 
HETATM    8  C12 UNL     1      21.276  -1.109  54.451  1.00  0.00     0.225 C 
HETATM    9  O2  UNL     1      21.703  -2.050  55.176  1.00  0.00    -0.273 OA
HETATM   10  C13 UNL     1      22.093   0.129  54.207  1.00  0.00     0.149 C 
HETATM   11  C14 UNL     1      22.696   0.239  52.886  1.00  0.00     0.195 C 
HETATM   12  H21 UNL     1      19.525  -2.391  54.312  1.00  0.00     0.168 HD
ENDROOT
BRANCH   1  13
HETATM   13  C7  UNL     1      22.547   1.377  50.680  1.00  0.00     0.158 C 
BRANCH  13  14
HETATM   14  C6  UNL     1      23.136   2.692  50.664  1.00  0.00     0.292 C 
BRANCH  14  15
HETATM   15  N1  UNL     1      23.674   2.902  49.278  1.00  0.00     0.089 N 
BRANCH  15  16
HETATM   16  C3  UNL     1      22.713   3.765  48.593  1.00  0.00     0.272 C 
BRANCH  16  17
HETATM   17  C2  UNL     1      23.142   5.152  48.335  1.00  0.00     0.026 C 
HETATM   18  C1  UNL     1      22.676   5.884  47.148  1.00  0.00     0.007 C 
ENDBRANCH  16  17
ENDBRANCH  15  16
BRANCH  15  19
HETATM   19  C4  UNL     1      24.850   3.761  49.592  1.00  0.00     0.268 C 
HETATM   20  C5  UNL     1      25.911   3.009  50.356  1.00  0.00     0.037 C 
ENDBRANCH  15  19
ENDBRANCH  14  15
ENDBRANCH  13  14
ENDBRANCH   1  13
BRANCH  11  21
HETATM   21  N4  UNL     1      23.949   0.955  52.978  1.00  0.00    -0.377 N 
HETATM   22  H25 UNL     1      23.901   1.986  52.921  1.00  0.00     0.161 HD
BRANCH  21  23
HETATM   23  C15 UNL     1      25.173   0.341  53.165  1.00  0.00     0.085 C 
BRANCH  23  24
HETATM   24  C16 UNL     1      26.253  -0.343  52.911  1.00  0.00     0.019 C 
BRANCH  24  25
HETATM   25  C17 UNL     1      27.692  -0.359  52.943  1.00  0.00     0.038 C 
BRANCH  25  26
HETATM   26  C18 UNL     1      28.228   0.334  53.921  1.00  0.00     0.090 C 
HETATM   27  C19 UNL     1      28.618   1.691  53.538  1.00  0.00     0.082 C 
HETATM   28  F1  UNL     1      28.424  -0.111  55.175  1.00  0.00    -0.211 F 
ENDBRANCH  25  26
ENDBRANCH  24  25
ENDBRANCH  23  24
ENDBRANCH  21  23
ENDBRANCH  11  21
TORSDOF 11
ENDMDL
MODEL 7
REMARK VINA RESULT:      -6.2      2.914      5.739
REMARK  11 active torsions:
REMARK  status: ('A' for Active; 'I' for Inactive)
REMARK    1  A    between atoms: C2_2  and  C3_3 
REMARK    2  A    between atoms: C3_3  and  N1_4 
REMARK    3  A    between atoms: N1_4  and  C4_5 
REMARK    4  A    between atoms: N1_4  and  C6_7 
REMARK    5  A    between atoms: C6_7  and  C7_8 
REMARK    6  A    between atoms: C7_8  and  N2_9 
REMARK    7  A    between atoms: C14_19  and  N4_20 
REMARK    8  A    between atoms: N4_20  and  C15_21 
REMARK    9  A    between atoms: C15_21  and  C16_22 
REMARK   10  A    between atoms: C16_22  and  C17_23 
REMARK   11  A    between atoms: C17_23  and  C18_24 
ROOT
HETATM    1  N2  UNL     1      21.310   1.023  51.967  1.00  0.00    -0.325 N 
HETATM    2  C8  UNL     1      19.918   0.740  51.795  1.00  0.00     0.246 C 
HETATM    3  O1  UNL     1      19.414   1.452  50.897  1.00  0.00    -0.268 OA
HETATM    4  C9  UNL     1      18.824  -0.119  52.312  1.00  0.00     0.099 C 
HETATM    5  C10 UNL     1      18.812  -1.105  53.207  1.00  0.00     0.013 C 
HETATM    6  C11 UNL     1      17.462  -1.690  53.413  1.00  0.00     0.068 C 
HETATM    7  N3  UNL     1      19.859  -1.705  54.007  1.00  0.00    -0.331 N 
HETATM    8  C12 UNL     1      21.124  -1.158  54.458  1.00  0.00     0.225 C 
HETATM    9  O2  UNL     1      21.735  -2.079  55.067  1.00  0.00    -0.273 OA
HETATM   10  C13 UNL     1      21.719   0.214  54.304  1.00  0.00     0.149 C 
HETATM   11  C14 UNL     1      22.220   0.541  52.977  1.00  0.00     0.195 C 
HETATM   12  H21 UNL     1      19.592  -2.690  54.266  1.00  0.00     0.168 HD
ENDROOT
BRANCH   1  13
HETATM   13  C7  UNL     1      21.766   1.836  50.903  1.00  0.00     0.158 C 
BRANCH  13  14
HETATM   14  C6  UNL     1      21.945   3.265  50.941  1.00  0.00     0.292 C 
BRANCH  14  15
HETATM   15  N1  UNL     1      22.576   3.651  49.634  1.00  0.00     0.089 N 
BRANCH  15  16
HETATM   16  C3  UNL     1      23.809   2.873  49.530  1.00  0.00     0.272 C 
BRANCH  16  17
HETATM   17  C2  UNL     1      25.071   3.637  49.542  1.00  0.00     0.026 C 
HETATM   18  C1  UNL     1      26.258   3.132  50.248  1.00  0.00     0.007 C 
ENDBRANCH  16  17
ENDBRANCH  15  16
BRANCH  15  19
HETATM   19  C4  UNL     1      21.610   3.022  48.691  1.00  0.00     0.268 C 
HETATM   20  C5  UNL     1      22.189   2.867  47.308  1.00  0.00     0.037 C 
ENDBRANCH  15  19
ENDBRANCH  14  15
ENDBRANCH  13  14
ENDBRANCH   1  13
BRANCH  11  21
HETATM   21  N4  UNL     1      23.347   1.440  53.086  1.00  0.00    -0.377 N 
HETATM   22  H25 UNL     1      23.143   2.407  53.390  1.00  0.00     0.161 HD
BRANCH  21  23
HETATM   23  C15 UNL     1      24.655   1.067  52.839  1.00  0.00     0.085 C 
BRANCH  23  24
HETATM   24  C16 UNL     1      25.713   0.316  52.715  1.00  0.00     0.019 C 
BRANCH  24  25
HETATM   25  C17 UNL     1      27.152   0.276  52.680  1.00  0.00     0.038 C 
BRANCH  25  26
HETATM   26  C18 UNL     1      27.745   1.066  53.544  1.00  0.00     0.090 C 
HETATM   27  C19 UNL     1      28.520   0.354  54.560  1.00  0.00     0.082 C 
HETATM   28  F1  UNL     1      27.681   2.410  53.543  1.00  0.00    -0.211 F 
ENDBRANCH  25  26
ENDBRANCH  24  25
ENDBRANCH  23  24
ENDBRANCH  21  23
ENDBRANCH  11  21
TORSDOF 11
ENDMDL
MODEL 8
REMARK VINA RESULT:      -6.1      2.135      2.859
REMARK  11 active torsions:
REMARK  status: ('A' for Active; 'I' for Inactive)
REMARK    1  A    between atoms: C2_2  and  C3_3 
REMARK    2  A    between atoms: C3_3  and  N1_4 
REMARK    3  A    between atoms: N1_4  and  C4_5 
REMARK    4  A    between atoms: N1_4  and  C6_7 
REMARK    5  A    between atoms: C6_7  and  C7_8 
REMARK    6  A    between atoms: C7_8  and  N2_9 
REMARK    7  A    between atoms: C14_19  and  N4_20 
REMARK    8  A    between atoms: N4_20  and  C15_21 
REMARK    9  A    between atoms: C15_21  and  C16_22 
REMARK   10  A    between atoms: C16_22  and  C17_23 
REMARK   11  A    between atoms: C17_23  and  C18_24 
ROOT
HETATM    1  N2  UNL     1      24.755   1.690  52.133  1.00  0.00    -0.325 N 
HETATM    2  C8  UNL     1      26.091   1.280  51.826  1.00  0.00     0.246 C 
HETATM    3  O1  UNL     1      26.562   1.937  50.870  1.00  0.00    -0.268 OA
HETATM    4  C9  UNL     1      27.151   0.330  52.245  1.00  0.00     0.099 C 
HETATM    5  C10 UNL     1      27.220  -0.543  53.248  1.00  0.00     0.013 C 
HETATM    6  C11 UNL     1      28.500  -1.297  53.278  1.00  0.00     0.068 C 
HETATM    7  N3  UNL     1      26.290  -0.889  54.301  1.00  0.00    -0.331 N 
HETATM    8  C12 UNL     1      24.846  -0.773  54.351  1.00  0.00     0.225 C 
HETATM    9  O2  UNL     1      24.480  -1.133  55.505  1.00  0.00    -0.273 OA
HETATM   10  C13 UNL     1      23.853  -0.329  53.315  1.00  0.00     0.149 C 
HETATM   11  C14 UNL     1      23.811   1.103  53.051  1.00  0.00     0.195 C 
HETATM   12  H21 UNL     1      26.813  -1.281  55.127  1.00  0.00     0.168 HD
ENDROOT
BRANCH   1  13
HETATM   13  C7  UNL     1      24.452   2.885  51.441  1.00  0.00     0.158 C 
BRANCH  13  14
HETATM   14  C6  UNL     1      24.049   4.134  52.035  1.00  0.00     0.292 C 
BRANCH  14  15
HETATM   15  N1  UNL     1      24.204   5.183  50.972  1.00  0.00     0.089 N 
BRANCH  15  16
HETATM   16  C3  UNL     1      24.850   4.525  49.839  1.00  0.00     0.272 C 
BRANCH  16  17
HETATM   17  C2  UNL     1      25.849   5.319  49.100  1.00  0.00     0.026 C 
HETATM   18  C1  UNL     1      27.195   4.788  48.832  1.00  0.00     0.007 C 
ENDBRANCH  16  17
ENDBRANCH  15  16
BRANCH  15  19
HETATM   19  C4  UNL     1      22.776   5.364  50.587  1.00  0.00     0.268 C 
HETATM   20  C5  UNL     1      21.840   5.059  51.729  1.00  0.00     0.037 C 
ENDBRANCH  15  19
ENDBRANCH  14  15
ENDBRANCH  13  14
ENDBRANCH   1  13
BRANCH  11  21
HETATM   21  N4  UNL     1      22.468   1.495  52.685  1.00  0.00    -0.377 N 
HETATM   22  H25 UNL     1      21.990   2.162  53.314  1.00  0.00     0.161 HD
BRANCH  21  23
HETATM   23  C15 UNL     1      21.823   1.054  51.545  1.00  0.00     0.085 C 
BRANCH  23  24
HETATM   24  C16 UNL     1      21.640   0.620  50.329  1.00  0.00     0.019 C 
BRANCH  24  25
HETATM   25  C17 UNL     1      21.203   0.946  48.997  1.00  0.00     0.038 C 
BRANCH  25  26
HETATM   26  C18 UNL     1      21.413   2.191  48.639  1.00  0.00     0.090 C 
HETATM   27  C19 UNL     1      22.560   2.364  47.748  1.00  0.00     0.082 C 
HETATM   28  F1  UNL     1      20.675   3.248  49.025  1.00  0.00    -0.211 F 
ENDBRANCH  25  26
ENDBRANCH  24  25
ENDBRANCH  23  24
ENDBRANCH  21  23
ENDBRANCH  11  21
TORSDOF 11
ENDMDL
MODEL 9
REMARK VINA RESULT:      -6.0      6.939     11.117
REMARK  11 active torsions:
REMARK  status: ('A' for Active; 'I' for Inactive)
REMARK    1  A    between atoms: C2_2  and  C3_3 
REMARK    2  A    between atoms: C3_3  and  N1_4 
REMARK    3  A    between atoms: N1_4  and  C4_5 
REMARK    4  A    between atoms: N1_4  and  C6_7 
REMARK    5  A    between atoms: C6_7  and  C7_8 
REMARK    6  A    between atoms: C7_8  and  N2_9 
REMARK    7  A    between atoms: C14_19  and  N4_20 
REMARK    8  A    between atoms: N4_20  and  C15_21 
REMARK    9  A    between atoms: C15_21  and  C16_22 
REMARK   10  A    between atoms: C16_22  and  C17_23 
REMARK   11  A    between atoms: C17_23  and  C18_24 
ROOT
HETATM    1  N2  UNL     1      30.065   6.932  48.494  1.00  0.00    -0.325 N 
HETATM    2  C8  UNL     1      29.147   5.845  48.339  1.00  0.00     0.246 C 
HETATM    3  O1  UNL     1      29.702   4.849  47.823  1.00  0.00    -0.268 OA
HETATM    4  C9  UNL     1      27.734   5.462  48.578  1.00  0.00     0.099 C 
HETATM    5  C10 UNL     1      26.724   6.100  49.167  1.00  0.00     0.013 C 
HETATM    6  C11 UNL     1      25.463   5.314  49.175  1.00  0.00     0.068 C 
HETATM    7  N3  UNL     1      26.630   7.401  49.793  1.00  0.00    -0.331 N 
HETATM    8  C12 UNL     1      27.415   8.601  49.583  1.00  0.00     0.225 C 
HETATM    9  O2  UNL     1      27.012   9.464  50.412  1.00  0.00    -0.273 OA
HETATM   10  C13 UNL     1      28.520   8.902  48.610  1.00  0.00     0.149 C 
HETATM   11  C14 UNL     1      29.807   8.290  48.904  1.00  0.00     0.195 C 
HETATM   12  H21 UNL     1      25.848   7.404  50.500  1.00  0.00     0.168 HD
ENDROOT
BRANCH   1  13
HETATM   13  C7  UNL     1      31.384   6.479  48.258  1.00  0.00     0.158 C 
BRANCH  13  14
HETATM   14  C6  UNL     1      32.333   6.067  49.260  1.00  0.00     0.292 C 
BRANCH  14  15
HETATM   15  N1  UNL     1      33.575   5.649  48.526  1.00  0.00     0.089 N 
BRANCH  15  16
HETATM   16  C3  UNL     1      33.135   5.169  47.218  1.00  0.00     0.272 C 
BRANCH  16  17
HETATM   17  C2  UNL     1      33.734   3.907  46.746  1.00  0.00     0.026 C 
HETATM   18  C1  UNL     1      34.859   3.285  47.459  1.00  0.00     0.007 C 
ENDBRANCH  16  17
ENDBRANCH  15  16
BRANCH  15  19
HETATM   19  C4  UNL     1      34.190   6.985  48.291  1.00  0.00     0.268 C 
HETATM   20  C5  UNL     1      35.656   7.003  48.644  1.00  0.00     0.037 C 
ENDBRANCH  15  19
ENDBRANCH  14  15
ENDBRANCH  13  14
ENDBRANCH   1  13
BRANCH  11  21
HETATM   21  N4  UNL     1      30.876   9.149  48.444  1.00  0.00    -0.377 N 
HETATM   22  H25 UNL     1      31.588   8.717  47.831  1.00  0.00     0.161 HD
BRANCH  21  23
HETATM   23  C15 UNL     1      30.968  10.493  48.751  1.00  0.00     0.085 C 
BRANCH  23  24
HETATM   24  C16 UNL     1      30.718  11.772  48.744  1.00  0.00     0.019 C 
BRANCH  24  25
HETATM   25  C17 UNL     1      30.139  12.873  48.018  1.00  0.00     0.038 C 
BRANCH  25  26
HETATM   26  C18 UNL     1      28.942  13.228  48.420  1.00  0.00     0.090 C 
HETATM   27  C19 UNL     1      28.233  14.089  47.474  1.00  0.00     0.082 C 
HETATM   28  F1  UNL     1      28.370  12.864  49.582  1.00  0.00    -0.211 F 
ENDBRANCH  25  26
ENDBRANCH  24  25
ENDBRANCH  23  24
ENDBRANCH  21  23
ENDBRANCH  11  21
TORSDOF 11
ENDMDL
