MODEL 1
REMARK VINA RESULT:      -8.0      0.000      0.000
REMARK  5 active torsions:
REMARK  status: ('A' for Active; 'I' for Inactive)
REMARK       I    between atoms: C2_2  and  N1_4 
REMARK    1  A    between atoms: N1_4  and  C3_5 
REMARK    2  A    between atoms: C8_12  and  C9_13 
REMARK    3  A    between atoms: C10_14  and  C11_15 
REMARK    4  A    between atoms: C12_16  and  C13_17 
REMARK    5  A    between atoms: C14_18  and  N4_19 
ROOT
HETATM    1  C3  UNL     1      26.508   0.048  52.644  1.00  0.00     0.035 A 
HETATM    2  C4  UNL     1      25.336  -0.182  53.288  1.00  0.00     0.032 A 
HETATM    3  C5  UNL     1      24.164   0.534  53.110  1.00  0.00     0.035 A 
HETATM    4  C6  UNL     1      24.181   1.572  52.203  1.00  0.00     0.070 A 
HETATM    5  N2  UNL     1      23.098   2.330  51.955  1.00  0.00    -0.241 NA
HETATM    6  C7  UNL     1      23.082   3.349  51.078  1.00  0.00     0.234 A 
HETATM    7  N3  UNL     1      24.231   3.619  50.407  1.00  0.00    -0.241 NA
HETATM    8  C8  UNL     1      25.342   2.864  50.641  1.00  0.00     0.070 A 
HETATM    9  C15 UNL     1      25.364   1.835  51.525  1.00  0.00     0.024 A 
HETATM   10  C16 UNL     1      26.483   1.092  51.746  1.00  0.00     0.045 A 
ENDROOT
BRANCH   8  11
HETATM   11  C9  UNL     1      26.511   3.216  49.891  1.00  0.00     0.032 C 
HETATM   12  C10 UNL     1      26.610   4.444  49.347  1.00  0.00     0.002 C 
BRANCH  12  13
HETATM   13  C11 UNL     1      27.695   4.994  48.562  1.00  0.00     0.000 C 
HETATM   14  C12 UNL     1      27.847   6.253  48.203  1.00  0.00     0.001 C 
BRANCH  14  15
HETATM   15  C13 UNL     1      26.909   7.295  48.563  1.00  0.00     0.016 C 
HETATM   16  C14 UNL     1      27.301   8.338  49.274  1.00  0.00     0.080 C 
BRANCH  16  17
HETATM   17  N4  UNL     1      28.658   8.490  49.714  1.00  0.00    -0.408 N 
HETATM   18  H14 UNL     1      29.682   8.529  49.826  1.00  0.00     0.155 HD
HETATM   19  H15 UNL     1      28.664   8.834  50.721  1.00  0.00     0.155 HD
ENDBRANCH  16  17
ENDBRANCH  14  15
ENDBRANCH  12  13
ENDBRANCH   8  11
BRANCH   1  20
HETATM   20  N1  UNL     1      27.698  -0.659  52.807  1.00  0.00    -0.327 N 
HETATM   21  C2  UNL     1      28.755  -0.506  53.730  1.00  0.00     0.218 C 
HETATM   22  C1  UNL     1      29.980  -1.308  53.823  1.00  0.00     0.117 C 
HETATM   23  O1  UNL     1      28.659   0.415  54.579  1.00  0.00    -0.274 OA
HETATM   24  H4  UNL     1      27.933  -1.473  52.164  1.00  0.00     0.169 HD
ENDBRANCH   1  20
TORSDOF 5
ENDMDL
MODEL 2
REMARK VINA RESULT:      -7.6      2.776      3.707
REMARK  5 active torsions:
REMARK  status: ('A' for Active; 'I' for Inactive)
REMARK       I    between atoms: C2_2  and  N1_4 
REMARK    1  A    between atoms: N1_4  and  C3_5 
REMARK    2  A    between atoms: C8_12  and  C9_13 
REMARK    3  A    between atoms: C10_14  and  C11_15 
REMARK    4  A    between atoms: C12_16  and  C13_17 
REMARK    5  A    between atoms: C14_18  and  N4_19 
ROOT
HETATM    1  C3  UNL     1      24.851  -0.685  54.233  1.00  0.00     0.035 A 
HETATM    2  C4  UNL     1      23.983  -1.234  55.122  1.00  0.00     0.032 A 
HETATM    3  C5  UNL     1      22.602  -1.136  55.066  1.00  0.00     0.035 A 
HETATM    4  C6  UNL     1      22.054  -0.422  54.022  1.00  0.00     0.070 A 
HETATM    5  N2  UNL     1      20.727  -0.266  53.875  1.00  0.00    -0.241 NA
HETATM    6  C7  UNL     1      20.160   0.425  52.870  1.00  0.00     0.234 A 
HETATM    7  N3  UNL     1      20.986   0.993  51.954  1.00  0.00    -0.241 NA
HETATM    8  C8  UNL     1      22.335   0.848  52.082  1.00  0.00     0.070 A 
HETATM    9  C15 UNL     1      22.913   0.152  53.094  1.00  0.00     0.024 A 
HETATM   10  C16 UNL     1      24.263   0.019  53.206  1.00  0.00     0.045 A 
ENDROOT
BRANCH   8  11
HETATM   11  C9  UNL     1      23.134   1.478  51.073  1.00  0.00     0.032 C 
HETATM   12  C10 UNL     1      22.534   2.114  50.048  1.00  0.00     0.002 C 
BRANCH  12  13
HETATM   13  C11 UNL     1      23.151   2.807  48.937  1.00  0.00     0.000 C 
HETATM   14  C12 UNL     1      23.541   4.066  48.913  1.00  0.00     0.001 C 
BRANCH  14  15
HETATM   15  C13 UNL     1      23.399   4.956  50.045  1.00  0.00     0.016 C 
HETATM   16  C14 UNL     1      24.457   5.339  50.738  1.00  0.00     0.080 C 
BRANCH  16  17
HETATM   17  N4  UNL     1      25.782   4.900  50.406  1.00  0.00    -0.408 N 
HETATM   18  H14 UNL     1      26.767   4.595  50.386  1.00  0.00     0.155 HD
HETATM   19  H15 UNL     1      25.860   4.784  49.351  1.00  0.00     0.155 HD
ENDBRANCH  16  17
ENDBRANCH  14  15
ENDBRANCH  12  13
ENDBRANCH   8  11
BRANCH   1  20
HETATM   20  N1  UNL     1      26.240  -0.770  54.269  1.00  0.00    -0.327 N 
HETATM   21  C2  UNL     1      27.225   0.182  54.612  1.00  0.00     0.218 C 
HETATM   22  C1  UNL     1      28.681  -0.005  54.619  1.00  0.00     0.117 C 
HETATM   23  O1  UNL     1      26.836   1.326  54.953  1.00  0.00    -0.274 OA
HETATM   24  H4  UNL     1      26.732  -1.676  54.007  1.00  0.00     0.169 HD
ENDBRANCH   1  20
TORSDOF 5
ENDMDL
MODEL 3
REMARK VINA RESULT:      -7.6      2.872      5.002
REMARK  5 active torsions:
REMARK  status: ('A' for Active; 'I' for Inactive)
REMARK       I    between atoms: C2_2  and  N1_4 
REMARK    1  A    between atoms: N1_4  and  C3_5 
REMARK    2  A    between atoms: C8_12  and  C9_13 
REMARK    3  A    between atoms: C10_14  and  C11_15 
REMARK    4  A    between atoms: C12_16  and  C13_17 
REMARK    5  A    between atoms: C14_18  and  N4_19 
ROOT
HETATM    1  C3  UNL     1      23.312  -0.406  53.337  1.00  0.00     0.035 A 
HETATM    2  C4  UNL     1      23.585  -0.954  54.550  1.00  0.00     0.032 A 
HETATM    3  C5  UNL     1      24.820  -0.953  55.176  1.00  0.00     0.035 A 
HETATM    4  C6  UNL     1      25.869  -0.346  54.518  1.00  0.00     0.070 A 
HETATM    5  N2  UNL     1      27.108  -0.290  55.038  1.00  0.00    -0.241 NA
HETATM    6  C7  UNL     1      28.152   0.293  54.423  1.00  0.00     0.234 A 
HETATM    7  N3  UNL     1      27.931   0.856  53.207  1.00  0.00    -0.241 NA
HETATM    8  C8  UNL     1      26.683   0.812  52.661  1.00  0.00     0.070 A 
HETATM    9  C15 UNL     1      25.626   0.225  53.276  1.00  0.00     0.024 A 
HETATM   10  C16 UNL     1      24.387   0.190  52.715  1.00  0.00     0.045 A 
ENDROOT
BRANCH   8  11
HETATM   11  C9  UNL     1      26.537   1.430  51.376  1.00  0.00     0.032 C 
HETATM   12  C10 UNL     1      26.579   2.773  51.273  1.00  0.00     0.002 C 
BRANCH  12  13
HETATM   13  C11 UNL     1      26.454   3.586  50.083  1.00  0.00     0.000 C 
HETATM   14  C12 UNL     1      25.434   4.356  49.759  1.00  0.00     0.001 C 
BRANCH  14  15
HETATM   15  C13 UNL     1      24.256   4.495  50.590  1.00  0.00     0.016 C 
HETATM   16  C14 UNL     1      24.028   5.615  51.252  1.00  0.00     0.080 C 
BRANCH  16  17
HETATM   17  N4  UNL     1      24.922   6.736  51.180  1.00  0.00    -0.408 N 
HETATM   18  H14 UNL     1      25.390   7.643  51.033  1.00  0.00     0.155 HD
HETATM   19  H15 UNL     1      25.862   6.464  51.597  1.00  0.00     0.155 HD
ENDBRANCH  16  17
ENDBRANCH  14  15
ENDBRANCH  12  13
ENDBRANCH   8  11
BRANCH   1  20
HETATM   20  N1  UNL     1      22.080  -0.395  52.689  1.00  0.00    -0.327 N 
HETATM   21  C2  UNL     1      20.820   0.102  53.088  1.00  0.00     0.218 C 
HETATM   22  C1  UNL     1      19.566   0.066  52.326  1.00  0.00     0.117 C 
HETATM   23  O1  UNL     1      20.737   0.640  54.220  1.00  0.00    -0.274 OA
HETATM   24  H4  UNL     1      21.979  -0.815  51.717  1.00  0.00     0.169 HD
ENDBRANCH   1  20
TORSDOF 5
ENDMDL
MODEL 4
REMARK VINA RESULT:      -7.5      4.555      6.834
REMARK  5 active torsions:
REMARK  status: ('A' for Active; 'I' for Inactive)
REMARK       I    between atoms: C2_2  and  N1_4 
REMARK    1  A    between atoms: N1_4  and  C3_5 
REMARK    2  A    between atoms: C8_12  and  C9_13 
REMARK    3  A    between atoms: C10_14  and  C11_15 
REMARK    4  A    between atoms: C12_16  and  C13_17 
REMARK    5  A    between atoms: C14_18  and  N4_19 
ROOT
HETATM    1  C3  UNL     1      21.816   1.671  51.177  1.00  0.00     0.035 A 
HETATM    2  C4  UNL     1      20.654   1.517  51.863  1.00  0.00     0.032 A 
HETATM    3  C5  UNL     1      20.502   0.810  53.044  1.00  0.00     0.035 A 
HETATM    4  C6  UNL     1      21.622   0.208  53.576  1.00  0.00     0.070 A 
HETATM    5  N2  UNL     1      21.584  -0.502  54.718  1.00  0.00    -0.241 NA
HETATM    6  C7  UNL     1      22.656  -1.103  55.263  1.00  0.00     0.234 A 
HETATM    7  N3  UNL     1      23.843  -0.978  54.615  1.00  0.00    -0.241 NA
HETATM    8  C8  UNL     1      23.906  -0.264  53.456  1.00  0.00     0.070 A 
HETATM    9  C15 UNL     1      22.828   0.345  52.901  1.00  0.00     0.024 A 
HETATM   10  C16 UNL     1      22.909   1.054  51.743  1.00  0.00     0.045 A 
ENDROOT
BRANCH   8  11
HETATM   11  C9  UNL     1      25.196  -0.182  52.837  1.00  0.00     0.032 C 
HETATM   12  C10 UNL     1      26.181  -1.010  53.236  1.00  0.00     0.002 C 
BRANCH  12  13
HETATM   13  C11 UNL     1      27.541  -1.089  52.746  1.00  0.00     0.000 C 
HETATM   14  C12 UNL     1      28.625  -0.654  53.357  1.00  0.00     0.001 C 
BRANCH  14  15
HETATM   15  C13 UNL     1      28.595  -0.013  54.654  1.00  0.00     0.016 C 
HETATM   16  C14 UNL     1      28.927   1.259  54.785  1.00  0.00     0.080 C 
BRANCH  16  17
HETATM   17  N4  UNL     1      29.325   2.060  53.662  1.00  0.00    -0.408 N 
HETATM   18  H14 UNL     1      29.433   2.755  52.909  1.00  0.00     0.155 HD
HETATM   19  H15 UNL     1      30.201   1.642  53.226  1.00  0.00     0.155 HD
ENDBRANCH  16  17
ENDBRANCH  14  15
ENDBRANCH  12  13
ENDBRANCH   8  11
BRANCH   1  20
HETATM   20  N1  UNL     1      21.992   2.376  49.989  1.00  0.00    -0.327 N 
HETATM   21  C2  UNL     1      21.911   1.966  48.640  1.00  0.00     0.218 C 
HETATM   22  C1  UNL     1      22.115   2.792  47.445  1.00  0.00     0.117 C 
HETATM   23  O1  UNL     1      21.634   0.763  48.412  1.00  0.00    -0.274 OA
HETATM   24  H4  UNL     1      22.232   3.412  50.007  1.00  0.00     0.169 HD
ENDBRANCH   1  20
TORSDOF 5
ENDMDL
MODEL 5
REMARK VINA RESULT:      -7.4      1.908      2.716
REMARK  5 active torsions:
REMARK  status: ('A' for Active; 'I' for Inactive)
REMARK       I    between atoms: C2_2  and  N1_4 
REMARK    1  A    between atoms: N1_4  and  C3_5 
REMARK    2  A    between atoms: C8_12  and  C9_13 
REMARK    3  A    between atoms: C10_14  and  C11_15 
REMARK    4  A    between atoms: C12_16  and  C13_17 
REMARK    5  A    between atoms: C14_18  and  N4_19 
ROOT
HETATM    1  C3  UNL     1      24.899   0.517  53.087  1.00  0.00     0.035 A 
HETATM    2  C4  UNL     1      23.908  -0.394  53.264  1.00  0.00     0.032 A 
HETATM    3  C5  UNL     1      22.551  -0.139  53.163  1.00  0.00     0.035 A 
HETATM    4  C6  UNL     1      22.164   1.148  52.857  1.00  0.00     0.070 A 
HETATM    5  N2  UNL     1      20.872   1.502  52.736  1.00  0.00    -0.241 NA
HETATM    6  C7  UNL     1      20.461   2.748  52.440  1.00  0.00     0.234 A 
HETATM    7  N3  UNL     1      21.415   3.696  52.253  1.00  0.00    -0.241 NA
HETATM    8  C8  UNL     1      22.731   3.361  52.370  1.00  0.00     0.070 A 
HETATM    9  C15 UNL     1      23.151   2.106  52.669  1.00  0.00     0.024 A 
HETATM   10  C16 UNL     1      24.470   1.790  52.783  1.00  0.00     0.045 A 
ENDROOT
BRANCH   8  11
HETATM   11  C9  UNL     1      23.671   4.421  52.157  1.00  0.00     0.032 C 
HETATM   12  C10 UNL     1      23.734   5.025  50.955  1.00  0.00     0.002 C 
BRANCH  12  13
HETATM   13  C11 UNL     1      24.603   6.105  50.537  1.00  0.00     0.000 C 
HETATM   14  C12 UNL     1      25.687   6.000  49.793  1.00  0.00     0.001 C 
BRANCH  14  15
HETATM   15  C13 UNL     1      26.167   4.737  49.274  1.00  0.00     0.016 C 
HETATM   16  C14 UNL     1      27.401   4.624  48.814  1.00  0.00     0.080 C 
BRANCH  16  17
HETATM   17  N4  UNL     1      28.315   5.731  48.809  1.00  0.00    -0.408 N 
HETATM   18  H14 UNL     1      29.043   6.435  48.995  1.00  0.00     0.155 HD
HETATM   19  H15 UNL     1      28.137   6.330  47.948  1.00  0.00     0.155 HD
ENDBRANCH  16  17
ENDBRANCH  14  15
ENDBRANCH  12  13
ENDBRANCH   8  11
BRANCH   1  20
HETATM   20  N1  UNL     1      26.269   0.284  53.184  1.00  0.00    -0.327 N 
HETATM   21  C2  UNL     1      27.153   0.361  54.282  1.00  0.00     0.218 C 
HETATM   22  C1  UNL     1      28.596   0.094  54.284  1.00  0.00     0.117 C 
HETATM   23  O1  UNL     1      26.675   0.695  55.394  1.00  0.00    -0.274 OA
HETATM   24  H4  UNL     1      26.828  -0.007  52.328  1.00  0.00     0.169 HD
ENDBRANCH   1  20
TORSDOF 5
ENDMDL
MODEL 6
REMARK VINA RESULT:      -7.3      3.022      6.137
REMARK  5 active torsions:
REMARK  status: ('A' for Active; 'I' for Inactive)
REMARK       I    between atoms: C2_2  and  N1_4 
REMARK    1  A    between atoms: N1_4  and  C3_5 
REMARK    2  A    between atoms: C8_12  and  C9_13 
REMARK    3  A    between atoms: C10_14  and  C11_15 
REMARK    4  A    between atoms: C12_16  and  C13_17 
REMARK    5  A    between atoms: C14_18  and  N4_19 
ROOT
HETATM    1  C3  UNL     1      23.017   2.800  52.149  1.00  0.00     0.035 A 
HETATM    2  C4  UNL     1      21.663   2.769  52.048  1.00  0.00     0.032 A 
HETATM    3  C5  UNL     1      20.840   1.776  52.551  1.00  0.00     0.035 A 
HETATM    4  C6  UNL     1      21.437   0.725  53.212  1.00  0.00     0.070 A 
HETATM    5  N2  UNL     1      20.729  -0.291  53.738  1.00  0.00    -0.241 NA
HETATM    6  C7  UNL     1      21.280  -1.331  54.388  1.00  0.00     0.234 A 
HETATM    7  N3  UNL     1      22.632  -1.347  54.516  1.00  0.00    -0.241 NA
HETATM    8  C8  UNL     1      23.371  -0.328  53.992  1.00  0.00     0.070 A 
HETATM    9  C15 UNL     1      22.820   0.724  53.335  1.00  0.00     0.024 A 
HETATM   10  C16 UNL     1      23.574   1.732  52.817  1.00  0.00     0.045 A 
ENDROOT
BRANCH   8  11
HETATM   11  C9  UNL     1      24.789  -0.423  54.171  1.00  0.00     0.032 C 
HETATM   12  C10 UNL     1      25.569  -0.799  53.139  1.00  0.00     0.002 C 
BRANCH  12  13
HETATM   13  C11 UNL     1      27.008  -0.955  53.111  1.00  0.00     0.000 C 
HETATM   14  C12 UNL     1      27.901   0.006  52.986  1.00  0.00     0.001 C 
BRANCH  14  15
HETATM   15  C13 UNL     1      27.544   1.403  52.858  1.00  0.00     0.016 C 
HETATM   16  C14 UNL     1      28.230   2.335  53.495  1.00  0.00     0.080 C 
BRANCH  16  17
HETATM   17  N4  UNL     1      29.350   2.015  54.333  1.00  0.00    -0.408 N 
HETATM   18  H14 UNL     1      30.061   1.929  55.074  1.00  0.00     0.155 HD
HETATM   19  H15 UNL     1      29.968   1.305  53.837  1.00  0.00     0.155 HD
ENDBRANCH  16  17
ENDBRANCH  14  15
ENDBRANCH  12  13
ENDBRANCH   8  11
BRANCH   1  20
HETATM   20  N1  UNL     1      23.865   3.786  51.651  1.00  0.00    -0.327 N 
HETATM   21  C2  UNL     1      24.457   3.954  50.380  1.00  0.00     0.218 C 
HETATM   22  C1  UNL     1      25.346   5.038  49.948  1.00  0.00     0.117 C 
HETATM   23  O1  UNL     1      24.209   3.090  49.503  1.00  0.00    -0.274 OA
HETATM   24  H4  UNL     1      24.173   4.594  52.270  1.00  0.00     0.169 HD
ENDBRANCH   1  20
TORSDOF 5
ENDMDL
MODEL 7
REMARK VINA RESULT:      -7.2      2.836      6.355
REMARK  5 active torsions:
REMARK  status: ('A' for Active; 'I' for Inactive)
REMARK       I    between atoms: C2_2  and  N1_4 
REMARK    1  A    between atoms: N1_4  and  C3_5 
REMARK    2  A    between atoms: C8_12  and  C9_13 
REMARK    3  A    between atoms: C10_14  and  C11_15 
REMARK    4  A    between atoms: C12_16  and  C13_17 
REMARK    5  A    between atoms: C14_18  and  N4_19 
ROOT
HETATM    1  C3  UNL     1      26.072   2.551  52.083  1.00  0.00     0.035 A 
HETATM    2  C4  UNL     1      27.146   1.991  52.696  1.00  0.00     0.032 A 
HETATM    3  C5  UNL     1      27.107   0.914  53.566  1.00  0.00     0.035 A 
HETATM    4  C6  UNL     1      25.876   0.357  53.838  1.00  0.00     0.070 A 
HETATM    5  N2  UNL     1      25.727  -0.691  54.668  1.00  0.00    -0.241 NA
HETATM    6  C7  UNL     1      24.542  -1.257  54.955  1.00  0.00     0.234 A 
HETATM    7  N3  UNL     1      23.436  -0.732  54.366  1.00  0.00    -0.241 NA
HETATM    8  C8  UNL     1      23.562   0.329  53.520  1.00  0.00     0.070 A 
HETATM    9  C15 UNL     1      24.756   0.904  53.227  1.00  0.00     0.024 A 
HETATM   10  C16 UNL     1      24.862   1.965  52.381  1.00  0.00     0.045 A 
ENDROOT
BRANCH   8  11
HETATM   11  C9  UNL     1      22.347   0.820  52.942  1.00  0.00     0.032 C 
HETATM   12  C10 UNL     1      21.652   0.042  52.089  1.00  0.00     0.002 C 
BRANCH  12  13
HETATM   13  C11 UNL     1      20.414   0.344  51.403  1.00  0.00     0.000 C 
HETATM   14  C12 UNL     1      20.287   0.800  50.172  1.00  0.00     0.001 C 
BRANCH  14  15
HETATM   15  C13 UNL     1      21.419   1.068  49.310  1.00  0.00     0.016 C 
HETATM   16  C14 UNL     1      21.276   1.799  48.219  1.00  0.00     0.080 C 
BRANCH  16  17
HETATM   17  N4  UNL     1      20.010   2.360  47.841  1.00  0.00    -0.408 N 
HETATM   18  H14 UNL     1      19.190   2.952  47.644  1.00  0.00     0.155 HD
HETATM   19  H15 UNL     1      19.392   1.593  47.437  1.00  0.00     0.155 HD
ENDBRANCH  16  17
ENDBRANCH  14  15
ENDBRANCH  12  13
ENDBRANCH   8  11
BRANCH   1  20
HETATM   20  N1  UNL     1      26.087   3.633  51.206  1.00  0.00    -0.327 N 
HETATM   21  C2  UNL     1      26.529   3.745  49.869  1.00  0.00     0.218 C 
HETATM   22  C1  UNL     1      26.504   4.942  49.020  1.00  0.00     0.117 C 
HETATM   23  O1  UNL     1      27.003   2.718  49.323  1.00  0.00    -0.274 OA
HETATM   24  H4  UNL     1      25.720   4.582  51.514  1.00  0.00     0.169 HD
ENDBRANCH   1  20
TORSDOF 5
ENDMDL
MODEL 8
REMARK VINA RESULT:      -7.1      2.496      6.391
REMARK  5 active torsions:
REMARK  status: ('A' for Active; 'I' for Inactive)
REMARK       I    between atoms: C2_2  and  N1_4 
REMARK    1  A    between atoms: N1_4  and  C3_5 
REMARK    2  A    between atoms: C8_12  and  C9_13 
REMARK    3  A    between atoms: C10_14  and  C11_15 
REMARK    4  A    between atoms: C12_16  and  C13_17 
REMARK    5  A    between atoms: C14_18  and  N4_19 
ROOT
HETATM    1  C3  UNL     1      26.248   4.482  49.411  1.00  0.00     0.035 A 
HETATM    2  C4  UNL     1      25.077   5.169  49.408  1.00  0.00     0.032 A 
HETATM    3  C5  UNL     1      23.929   4.808  50.095  1.00  0.00     0.035 A 
HETATM    4  C6  UNL     1      23.972   3.655  50.848  1.00  0.00     0.070 A 
HETATM    5  N2  UNL     1      22.913   3.216  51.552  1.00  0.00    -0.241 NA
HETATM    6  C7  UNL     1      22.920   2.096  52.296  1.00  0.00     0.234 A 
HETATM    7  N3  UNL     1      24.070   1.373  52.331  1.00  0.00    -0.241 NA
HETATM    8  C8  UNL     1      25.156   1.798  51.626  1.00  0.00     0.070 A 
HETATM    9  C15 UNL     1      25.154   2.928  50.874  1.00  0.00     0.024 A 
HETATM   10  C16 UNL     1      26.248   3.337  50.176  1.00  0.00     0.045 A 
ENDROOT
BRANCH   8  11
HETATM   11  C9  UNL     1      26.327   0.978  51.719  1.00  0.00     0.032 C 
HETATM   12  C10 UNL     1      26.273  -0.188  52.392  1.00  0.00     0.002 C 
BRANCH  12  13
HETATM   13  C11 UNL     1      27.331  -1.153  52.602  1.00  0.00     0.000 C 
HETATM   14  C12 UNL     1      28.186  -1.179  53.606  1.00  0.00     0.001 C 
BRANCH  14  15
HETATM   15  C13 UNL     1      28.175  -0.203  54.675  1.00  0.00     0.016 C 
HETATM   16  C14 UNL     1      28.989   0.837  54.645  1.00  0.00     0.080 C 
BRANCH  16  17
HETATM   17  N4  UNL     1      29.910   1.051  53.565  1.00  0.00    -0.408 N 
HETATM   18  H14 UNL     1      30.723   1.138  52.937  1.00  0.00     0.155 HD
HETATM   19  H15 UNL     1      29.376   1.393  52.711  1.00  0.00     0.155 HD
ENDBRANCH  16  17
ENDBRANCH  14  15
ENDBRANCH  12  13
ENDBRANCH   8  11
BRANCH   1  20
HETATM   20  N1  UNL     1      27.414   4.825  48.729  1.00  0.00    -0.327 N 
HETATM   21  C2  UNL     1      28.006   6.079  48.465  1.00  0.00     0.218 C 
HETATM   22  C1  UNL     1      29.248   6.340  47.729  1.00  0.00     0.117 C 
HETATM   23  O1  UNL     1      27.420   7.103  48.896  1.00  0.00    -0.274 OA
HETATM   24  H4  UNL     1      28.028   4.070  48.299  1.00  0.00     0.169 HD
ENDBRANCH   1  20
TORSDOF 5
ENDMDL
MODEL 9
REMARK VINA RESULT:      -7.1      3.461      7.896
REMARK  5 active torsions:
REMARK  status: ('A' for Active; 'I' for Inactive)
REMARK       I    between atoms: C2_2  and  N1_4 
REMARK    1  A    between atoms: N1_4  and  C3_5 
REMARK    2  A    between atoms: C8_12  and  C9_13 
REMARK    3  A    between atoms: C10_14  and  C11_15 
REMARK    4  A    between atoms: C12_16  and  C13_17 
REMARK    5  A    between atoms: C14_18  and  N4_19 
ROOT
HETATM    1  C3  UNL     1      23.638   2.502  50.475  1.00  0.00     0.035 A 
HETATM    2  C4  UNL     1      24.650   3.353  50.165  1.00  0.00     0.032 A 
HETATM    3  C5  UNL     1      25.937   3.293  50.672  1.00  0.00     0.035 A 
HETATM    4  C6  UNL     1      26.225   2.286  51.568  1.00  0.00     0.070 A 
HETATM    5  N2  UNL     1      27.443   2.138  52.119  1.00  0.00    -0.241 NA
HETATM    6  C7  UNL     1      27.756   1.168  52.996  1.00  0.00     0.234 A 
HETATM    7  N3  UNL     1      26.778   0.291  53.338  1.00  0.00    -0.241 NA
HETATM    8  C8  UNL     1      25.536   0.420  52.792  1.00  0.00     0.070 A 
HETATM    9  C15 UNL     1      25.214   1.396  51.907  1.00  0.00     0.024 A 
HETATM   10  C16 UNL     1      23.967   1.510  51.372  1.00  0.00     0.045 A 
ENDROOT
BRANCH   8  11
HETATM   11  C9  UNL     1      24.563  -0.548  53.206  1.00  0.00     0.032 C 
HETATM   12  C10 UNL     1      23.856  -0.342  54.334  1.00  0.00     0.002 C 
BRANCH  12  13
HETATM   13  C11 UNL     1      22.837  -1.186  54.922  1.00  0.00     0.000 C 
HETATM   14  C12 UNL     1      21.549  -1.176  54.642  1.00  0.00     0.001 C 
BRANCH  14  15
HETATM   15  C13 UNL     1      20.961  -0.282  53.667  1.00  0.00     0.016 C 
HETATM   16  C14 UNL     1      19.694  -0.410  53.314  1.00  0.00     0.080 C 
BRANCH  16  17
HETATM   17  N4  UNL     1      18.848  -1.425  53.874  1.00  0.00    -0.408 N 
HETATM   18  H14 UNL     1      18.082  -2.001  54.253  1.00  0.00     0.155 HD
HETATM   19  H15 UNL     1      19.428  -2.293  54.079  1.00  0.00     0.155 HD
ENDBRANCH  16  17
ENDBRANCH  14  15
ENDBRANCH  12  13
ENDBRANCH   8  11
BRANCH   1  20
HETATM   20  N1  UNL     1      22.337   2.542  49.979  1.00  0.00    -0.327 N 
HETATM   21  C2  UNL     1      21.820   2.274  48.693  1.00  0.00     0.218 C 
HETATM   22  C1  UNL     1      20.418   2.346  48.264  1.00  0.00     0.117 C 
HETATM   23  O1  UNL     1      22.632   1.935  47.797  1.00  0.00    -0.274 OA
HETATM   24  H4  UNL     1      21.527   2.814  50.613  1.00  0.00     0.169 HD
ENDBRANCH   1  20
TORSDOF 5
ENDMDL
