MODEL 1
REMARK VINA RESULT:      -7.6      0.000      0.000
REMARK  4 active torsions:
REMARK  status: ('A' for Active; 'I' for Inactive)
REMARK    1  A    between atoms: N1_2  and  C2_3 
REMARK    2  A    between atoms: C7_9  and  O1_10 
REMARK    3  A    between atoms: O1_10  and  C8_11 
REMARK    4  A    between atoms: C11_14  and  N2_15 
ROOT
HETATM    1  C8  UNL     1      24.131   1.777  51.896  1.00  0.00     0.076 A 
HETATM    2  C9  UNL     1      23.924   0.658  52.709  1.00  0.00     0.039 A 
HETATM    3  C10 UNL     1      24.988  -0.163  53.014  1.00  0.00     0.032 A 
HETATM    4  C11 UNL     1      26.264   0.013  52.588  1.00  0.00     0.035 A 
HETATM    5  C15 UNL     1      26.443   1.141  51.776  1.00  0.00     0.032 A 
HETATM    6  C16 UNL     1      25.410   2.015  51.427  1.00  0.00     0.039 A 
ENDROOT
BRANCH   1   7
HETATM    7  O1  UNL     1      23.231   2.728  51.464  1.00  0.00    -0.309 OA
BRANCH   7   8
HETATM    8  C7  UNL     1      22.916   2.910  50.129  1.00  0.00     0.102 A 
HETATM    9  C2  UNL     1      23.178   4.117  49.526  1.00  0.00     0.065 A 
HETATM   10  C3  UNL     1      22.818   4.176  48.197  1.00  0.00     0.074 A 
HETATM   11  C4  UNL     1      22.250   3.128  47.524  1.00  0.00     0.118 A 
HETATM   12  F1  UNL     1      21.900   3.182  46.228  1.00  0.00    -0.206 F 
HETATM   13  C5  UNL     1      22.004   1.931  48.164  1.00  0.00     0.045 A 
HETATM   14  C6  UNL     1      22.347   1.828  49.496  1.00  0.00     0.042 A 
BRANCH   9  15
HETATM   15  N1  UNL     1      23.779   5.230  50.163  1.00  0.00    -0.392 N 
HETATM   16  C1  UNL     1      25.183   5.501  49.932  1.00  0.00     0.146 C 
HETATM   17  H4  UNL     1      23.341   5.899  50.800  1.00  0.00     0.159 HD
ENDBRANCH   9  15
ENDBRANCH   7   8
ENDBRANCH   1   7
BRANCH   4  18
HETATM   18  N2  UNL     1      27.349  -0.837  52.909  1.00  0.00    -0.335 N 
HETATM   19  C12 UNL     1      28.534  -0.249  53.428  1.00  0.00     0.114 A 
HETATM   20  C13 UNL     1      29.572  -1.008  53.742  1.00  0.00     0.158 A 
HETATM   21  N3  UNL     1      29.419  -2.404  53.528  1.00  0.00    -0.165 NA
HETATM   22  N4  UNL     1      28.374  -2.938  53.069  1.00  0.00    -0.173 NA
HETATM   23  C14 UNL     1      27.171  -2.246  52.686  1.00  0.00     0.303 A 
ENDBRANCH   4  18
TORSDOF 4
ENDMDL
MODEL 2
REMARK VINA RESULT:      -7.5      4.624      7.600
REMARK  4 active torsions:
REMARK  status: ('A' for Active; 'I' for Inactive)
REMARK    1  A    between atoms: N1_2  and  C2_3 
REMARK    2  A    between atoms: C7_9  and  O1_10 
REMARK    3  A    between atoms: O1_10  and  C8_11 
REMARK    4  A    between atoms: C11_14  and  N2_15 
ROOT
HETATM    1  C8  UNL     1      24.170   0.550  52.775  1.00  0.00     0.076 A 
HETATM    2  C9  UNL     1      23.508  -0.241  53.721  1.00  0.00     0.039 A 
HETATM    3  C10 UNL     1      22.156  -0.466  53.589  1.00  0.00     0.032 A 
HETATM    4  C11 UNL     1      21.371   0.023  52.595  1.00  0.00     0.035 A 
HETATM    5  C15 UNL     1      22.058   0.811  51.663  1.00  0.00     0.032 A 
HETATM    6  C16 UNL     1      23.427   1.079  51.735  1.00  0.00     0.039 A 
ENDROOT
BRANCH   1   7
HETATM    7  O1  UNL     1      25.499   0.907  52.703  1.00  0.00    -0.309 OA
BRANCH   7   8
HETATM    8  C7  UNL     1      26.529   0.007  52.908  1.00  0.00     0.102 A 
HETATM    9  C2  UNL     1      27.640   0.394  53.619  1.00  0.00     0.065 A 
HETATM   10  C3  UNL     1      28.596  -0.590  53.755  1.00  0.00     0.074 A 
HETATM   11  C4  UNL     1      28.460  -1.849  53.234  1.00  0.00     0.118 A 
HETATM   12  F1  UNL     1      29.390  -2.810  53.366  1.00  0.00    -0.206 F 
HETATM   13  C5  UNL     1      27.329  -2.200  52.527  1.00  0.00     0.045 A 
HETATM   14  C6  UNL     1      26.346  -1.245  52.366  1.00  0.00     0.042 A 
BRANCH   9  15
HETATM   15  N1  UNL     1      27.830   1.672  54.197  1.00  0.00    -0.392 N 
HETATM   16  C1  UNL     1      28.971   2.468  53.790  1.00  0.00     0.146 C 
HETATM   17  H4  UNL     1      27.250   2.134  54.899  1.00  0.00     0.159 HD
ENDBRANCH   9  15
ENDBRANCH   7   8
ENDBRANCH   1   7
BRANCH   4  18
HETATM   18  N2  UNL     1      19.982  -0.216  52.471  1.00  0.00    -0.335 N 
HETATM   19  C12 UNL     1      19.315   0.283  51.318  1.00  0.00     0.114 A 
HETATM   20  C13 UNL     1      18.016   0.082  51.162  1.00  0.00     0.158 A 
HETATM   21  N3  UNL     1      17.362  -0.642  52.194  1.00  0.00    -0.165 NA
HETATM   22  N4  UNL     1      17.941  -1.089  53.220  1.00  0.00    -0.173 NA
HETATM   23  C14 UNL     1      19.341  -0.951  53.526  1.00  0.00     0.303 A 
ENDBRANCH   4  18
TORSDOF 4
ENDMDL
MODEL 3
REMARK VINA RESULT:      -7.3      1.528      2.297
REMARK  4 active torsions:
REMARK  status: ('A' for Active; 'I' for Inactive)
REMARK    1  A    between atoms: N1_2  and  C2_3 
REMARK    2  A    between atoms: C7_9  and  O1_10 
REMARK    3  A    between atoms: O1_10  and  C8_11 
REMARK    4  A    between atoms: C11_14  and  N2_15 
ROOT
HETATM    1  C8  UNL     1      24.608   2.354  51.742  1.00  0.00     0.076 A 
HETATM    2  C9  UNL     1      25.968   2.497  51.448  1.00  0.00     0.039 A 
HETATM    3  C10 UNL     1      26.844   1.490  51.788  1.00  0.00     0.032 A 
HETATM    4  C11 UNL     1      26.506   0.328  52.403  1.00  0.00     0.035 A 
HETATM    5  C15 UNL     1      25.139   0.211  52.687  1.00  0.00     0.032 A 
HETATM    6  C16 UNL     1      24.196   1.193  52.369  1.00  0.00     0.039 A 
ENDROOT
BRANCH   1   7
HETATM    7  O1  UNL     1      23.561   3.217  51.500  1.00  0.00    -0.309 OA
BRANCH   7   8
HETATM    8  C7  UNL     1      22.624   2.999  50.505  1.00  0.00     0.102 A 
HETATM    9  C2  UNL     1      21.294   2.898  50.834  1.00  0.00     0.065 A 
HETATM   10  C3  UNL     1      20.460   2.680  49.758  1.00  0.00     0.074 A 
HETATM   11  C4  UNL     1      20.908   2.575  48.468  1.00  0.00     0.118 A 
HETATM   12  F1  UNL     1      20.097   2.364  47.417  1.00  0.00    -0.206 F 
HETATM   13  C5  UNL     1      22.252   2.683  48.179  1.00  0.00     0.045 A 
HETATM   14  C6  UNL     1      23.123   2.900  49.226  1.00  0.00     0.042 A 
BRANCH   9  15
HETATM   15  N1  UNL     1      20.769   3.016  52.143  1.00  0.00    -0.392 N 
HETATM   16  C1  UNL     1      20.366   1.819  52.853  1.00  0.00     0.146 C 
HETATM   17  H4  UNL     1      20.622   3.871  52.684  1.00  0.00     0.159 HD
ENDBRANCH   9  15
ENDBRANCH   7   8
ENDBRANCH   1   7
BRANCH   4  18
HETATM   18  N2  UNL     1      27.416  -0.700  52.747  1.00  0.00    -0.335 N 
HETATM   19  C12 UNL     1      28.658  -0.330  53.332  1.00  0.00     0.114 A 
HETATM   20  C13 UNL     1      29.538  -1.259  53.669  1.00  0.00     0.158 A 
HETATM   21  N3  UNL     1      29.162  -2.605  53.412  1.00  0.00    -0.165 NA
HETATM   22  N4  UNL     1      28.064  -2.946  52.896  1.00  0.00    -0.173 NA
HETATM   23  C14 UNL     1      27.015  -2.054  52.480  1.00  0.00     0.303 A 
ENDBRANCH   4  18
TORSDOF 4
ENDMDL
MODEL 4
REMARK VINA RESULT:      -7.3      2.809      3.364
REMARK  4 active torsions:
REMARK  status: ('A' for Active; 'I' for Inactive)
REMARK    1  A    between atoms: N1_2  and  C2_3 
REMARK    2  A    between atoms: C7_9  and  O1_10 
REMARK    3  A    between atoms: O1_10  and  C8_11 
REMARK    4  A    between atoms: C11_14  and  N2_15 
ROOT
HETATM    1  C8  UNL     1      22.554   1.179  52.985  1.00  0.00     0.076 A 
HETATM    2  C9  UNL     1      22.799  -0.177  53.230  1.00  0.00     0.039 A 
HETATM    3  C10 UNL     1      24.093  -0.607  53.426  1.00  0.00     0.032 A 
HETATM    4  C11 UNL     1      25.196   0.185  53.404  1.00  0.00     0.035 A 
HETATM    5  C15 UNL     1      24.922   1.536  53.157  1.00  0.00     0.032 A 
HETATM    6  C16 UNL     1      23.635   2.040  52.950  1.00  0.00     0.039 A 
ENDROOT
BRANCH   1   7
HETATM    7  O1  UNL     1      21.360   1.830  52.763  1.00  0.00    -0.309 OA
BRANCH   7   8
HETATM    8  C7  UNL     1      20.367   1.318  51.947  1.00  0.00     0.102 A 
HETATM    9  C2  UNL     1      20.279   1.730  50.639  1.00  0.00     0.065 A 
HETATM   10  C3  UNL     1      19.250   1.149  49.931  1.00  0.00     0.074 A 
HETATM   11  C4  UNL     1      18.383   0.238  50.472  1.00  0.00     0.118 A 
HETATM   12  F1  UNL     1      17.379  -0.330  49.783  1.00  0.00    -0.206 F 
HETATM   13  C5  UNL     1      18.504  -0.151  51.789  1.00  0.00     0.045 A 
HETATM   14  C6  UNL     1      19.521   0.405  52.537  1.00  0.00     0.042 A 
BRANCH   9  15
HETATM   15  N1  UNL     1      21.155   2.653  50.018  1.00  0.00    -0.392 N 
HETATM   16  C1  UNL     1      22.369   2.164  49.395  1.00  0.00     0.146 C 
HETATM   17  H4  UNL     1      21.049   3.667  49.948  1.00  0.00     0.159 HD
ENDBRANCH   9  15
ENDBRANCH   7   8
ENDBRANCH   1   7
BRANCH   4  18
HETATM   18  N2  UNL     1      26.520  -0.269  53.608  1.00  0.00    -0.335 N 
HETATM   19  C12 UNL     1      27.347   0.452  54.512  1.00  0.00     0.114 A 
HETATM   20  C13 UNL     1      28.592   0.062  54.732  1.00  0.00     0.158 A 
HETATM   21  N3  UNL     1      29.026  -1.090  54.022  1.00  0.00    -0.165 NA
HETATM   22  N4  UNL     1      28.304  -1.738  53.218  1.00  0.00    -0.173 NA
HETATM   23  C14 UNL     1      26.938  -1.436  52.880  1.00  0.00     0.303 A 
ENDBRANCH   4  18
TORSDOF 4
ENDMDL
MODEL 5
REMARK VINA RESULT:      -7.1      8.886     11.532
REMARK  4 active torsions:
REMARK  status: ('A' for Active; 'I' for Inactive)
REMARK    1  A    between atoms: N1_2  and  C2_3 
REMARK    2  A    between atoms: C7_9  and  O1_10 
REMARK    3  A    between atoms: O1_10  and  C8_11 
REMARK    4  A    between atoms: C11_14  and  N2_15 
ROOT
HETATM    1  C8  UNL     1      31.309   6.302  48.885  1.00  0.00     0.076 A 
HETATM    2  C9  UNL     1      31.918   7.453  49.397  1.00  0.00     0.039 A 
HETATM    3  C10 UNL     1      31.218   8.640  49.411  1.00  0.00     0.032 A 
HETATM    4  C11 UNL     1      29.949   8.810  48.961  1.00  0.00     0.035 A 
HETATM    5  C15 UNL     1      29.363   7.642  48.454  1.00  0.00     0.032 A 
HETATM    6  C16 UNL     1      30.014   6.406  48.410  1.00  0.00     0.039 A 
ENDROOT
BRANCH   1   7
HETATM    7  O1  UNL     1      31.806   5.022  48.771  1.00  0.00    -0.309 OA
BRANCH   7   8
HETATM    8  C7  UNL     1      32.710   4.653  47.791  1.00  0.00     0.102 A 
HETATM    9  C2  UNL     1      34.058   4.695  48.057  1.00  0.00     0.065 A 
HETATM   10  C3  UNL     1      34.855   4.305  47.003  1.00  0.00     0.074 A 
HETATM   11  C4  UNL     1      34.358   3.906  45.791  1.00  0.00     0.118 A 
HETATM   12  F1  UNL     1      35.134   3.524  44.762  1.00  0.00    -0.206 F 
HETATM   13  C5  UNL     1      32.999   3.876  45.563  1.00  0.00     0.045 A 
HETATM   14  C6  UNL     1      32.163   4.260  46.591  1.00  0.00     0.042 A 
BRANCH   9  15
HETATM   15  N1  UNL     1      34.630   5.079  49.294  1.00  0.00    -0.392 N 
HETATM   16  C1  UNL     1      35.828   5.895  49.293  1.00  0.00     0.146 C 
HETATM   17  H4  UNL     1      34.304   4.847  50.234  1.00  0.00     0.159 HD
ENDBRANCH   9  15
ENDBRANCH   7   8
ENDBRANCH   1   7
BRANCH   4  18
HETATM   18  N2  UNL     1      29.241  10.035  48.981  1.00  0.00    -0.335 N 
HETATM   19  C12 UNL     1      29.981  11.241  48.844  1.00  0.00     0.114 A 
HETATM   20  C13 UNL     1      29.358  12.409  48.857  1.00  0.00     0.158 A 
HETATM   21  N3  UNL     1      27.947  12.368  49.013  1.00  0.00    -0.165 NA
HETATM   22  N4  UNL     1      27.279  11.307  49.135  1.00  0.00    -0.173 NA
HETATM   23  C14 UNL     1      27.814   9.970  49.139  1.00  0.00     0.303 A 
ENDBRANCH   4  18
TORSDOF 4
ENDMDL
MODEL 6
REMARK VINA RESULT:      -7.0      3.050      3.936
REMARK  4 active torsions:
REMARK  status: ('A' for Active; 'I' for Inactive)
REMARK    1  A    between atoms: N1_2  and  C2_3 
REMARK    2  A    between atoms: C7_9  and  O1_10 
REMARK    3  A    between atoms: O1_10  and  C8_11 
REMARK    4  A    between atoms: C11_14  and  N2_15 
ROOT
HETATM    1  C8  UNL     1      23.357   1.979  52.733  1.00  0.00     0.076 A 
HETATM    2  C9  UNL     1      24.436   2.769  53.146  1.00  0.00     0.039 A 
HETATM    3  C10 UNL     1      25.667   2.183  53.344  1.00  0.00     0.032 A 
HETATM    4  C11 UNL     1      25.948   0.866  53.171  1.00  0.00     0.035 A 
HETATM    5  C15 UNL     1      24.851   0.099  52.758  1.00  0.00     0.032 A 
HETATM    6  C16 UNL     1      23.576   0.628  52.538  1.00  0.00     0.039 A 
ENDROOT
BRANCH   1   7
HETATM    7  O1  UNL     1      22.052   2.340  52.475  1.00  0.00    -0.309 OA
BRANCH   7   8
HETATM    8  C7  UNL     1      21.020   1.423  52.406  1.00  0.00     0.102 A 
HETATM    9  C2  UNL     1      20.373   1.214  51.211  1.00  0.00     0.065 A 
HETATM   10  C3  UNL     1      19.363   0.278  51.270  1.00  0.00     0.074 A 
HETATM   11  C4  UNL     1      19.027  -0.395  52.414  1.00  0.00     0.118 A 
HETATM   12  F1  UNL     1      18.044  -1.309  52.474  1.00  0.00    -0.206 F 
HETATM   13  C5  UNL     1      19.701  -0.159  53.594  1.00  0.00     0.045 A 
HETATM   14  C6  UNL     1      20.719   0.772  53.581  1.00  0.00     0.042 A 
BRANCH   9  15
HETATM   15  N1  UNL     1      20.687   1.865  49.993  1.00  0.00    -0.392 N 
HETATM   16  C1  UNL     1      21.501   1.173  49.014  1.00  0.00     0.146 C 
HETATM   17  H4  UNL     1      20.410   2.802  49.694  1.00  0.00     0.159 HD
ENDBRANCH   9  15
ENDBRANCH   7   8
ENDBRANCH   1   7
BRANCH   4  18
HETATM   18  N2  UNL     1      27.217   0.276  53.378  1.00  0.00    -0.335 N 
HETATM   19  C12 UNL     1      28.278   1.106  53.833  1.00  0.00     0.114 A 
HETATM   20  C13 UNL     1      29.481   0.595  54.040  1.00  0.00     0.158 A 
HETATM   21  N3  UNL     1      29.629  -0.794  53.781  1.00  0.00    -0.165 NA
HETATM   22  N4  UNL     1      28.697  -1.541  53.378  1.00  0.00    -0.173 NA
HETATM   23  C14 UNL     1      27.343  -1.130  53.111  1.00  0.00     0.303 A 
ENDBRANCH   4  18
TORSDOF 4
ENDMDL
MODEL 7
REMARK VINA RESULT:      -6.9      3.197      4.818
REMARK  4 active torsions:
REMARK  status: ('A' for Active; 'I' for Inactive)
REMARK    1  A    between atoms: N1_2  and  C2_3 
REMARK    2  A    between atoms: C7_9  and  O1_10 
REMARK    3  A    between atoms: O1_10  and  C8_11 
REMARK    4  A    between atoms: C11_14  and  N2_15 
ROOT
HETATM    1  C8  UNL     1      25.273   4.423  49.957  1.00  0.00     0.076 A 
HETATM    2  C9  UNL     1      24.324   4.078  50.926  1.00  0.00     0.039 A 
HETATM    3  C10 UNL     1      24.529   2.963  51.708  1.00  0.00     0.032 A 
HETATM    4  C11 UNL     1      25.602   2.135  51.630  1.00  0.00     0.035 A 
HETATM    5  C15 UNL     1      26.536   2.503  50.653  1.00  0.00     0.032 A 
HETATM    6  C16 UNL     1      26.391   3.620  49.826  1.00  0.00     0.039 A 
ENDROOT
BRANCH   1   7
HETATM    7  O1  UNL     1      25.281   5.479  49.072  1.00  0.00    -0.309 OA
BRANCH   7   8
HETATM    8  C7  UNL     1      26.155   6.545  49.183  1.00  0.00     0.102 A 
HETATM    9  C2  UNL     1      25.904   7.539  50.099  1.00  0.00     0.065 A 
HETATM   10  C3  UNL     1      26.846   8.545  50.114  1.00  0.00     0.074 A 
HETATM   11  C4  UNL     1      27.942   8.563  49.294  1.00  0.00     0.118 A 
HETATM   12  F1  UNL     1      28.862   9.542  49.308  1.00  0.00    -0.206 F 
HETATM   13  C5  UNL     1      28.160   7.546  48.389  1.00  0.00     0.045 A 
HETATM   14  C6  UNL     1      27.242   6.518  48.338  1.00  0.00     0.042 A 
BRANCH   9  15
HETATM   15  N1  UNL     1      24.800   7.567  50.985  1.00  0.00    -0.392 N 
HETATM   16  C1  UNL     1      23.510   8.002  50.490  1.00  0.00     0.146 C 
HETATM   17  H4  UNL     1      24.786   7.316  51.976  1.00  0.00     0.159 HD
ENDBRANCH   9  15
ENDBRANCH   7   8
ENDBRANCH   1   7
BRANCH   4  18
HETATM   18  N2  UNL     1      25.802   0.992  52.440  1.00  0.00    -0.335 N 
HETATM   19  C12 UNL     1      27.024   0.278  52.305  1.00  0.00     0.114 A 
HETATM   20  C13 UNL     1      27.253  -0.796  53.044  1.00  0.00     0.158 A 
HETATM   21  N3  UNL     1      26.222  -1.170  53.948  1.00  0.00    -0.165 NA
HETATM   22  N4  UNL     1      25.135  -0.546  54.077  1.00  0.00    -0.173 NA
HETATM   23  C14 UNL     1      24.747   0.633  53.348  1.00  0.00     0.303 A 
ENDBRANCH   4  18
TORSDOF 4
ENDMDL
MODEL 8
REMARK VINA RESULT:      -6.9      1.764      2.792
REMARK  4 active torsions:
REMARK  status: ('A' for Active; 'I' for Inactive)
REMARK    1  A    between atoms: N1_2  and  C2_3 
REMARK    2  A    between atoms: C7_9  and  O1_10 
REMARK    3  A    between atoms: O1_10  and  C8_11 
REMARK    4  A    between atoms: C11_14  and  N2_15 
ROOT
HETATM    1  C8  UNL     1      24.288   2.645  52.079  1.00  0.00     0.076 A 
HETATM    2  C9  UNL     1      25.471   2.559  51.336  1.00  0.00     0.039 A 
HETATM    3  C10 UNL     1      26.373   1.556  51.613  1.00  0.00     0.032 A 
HETATM    4  C11 UNL     1      26.223   0.606  52.571  1.00  0.00     0.035 A 
HETATM    5  C15 UNL     1      25.031   0.715  53.300  1.00  0.00     0.032 A 
HETATM    6  C16 UNL     1      24.073   1.707  53.072  1.00  0.00     0.039 A 
ENDROOT
BRANCH   1   7
HETATM    7  O1  UNL     1      23.253   3.550  51.982  1.00  0.00    -0.309 OA
BRANCH   7   8
HETATM    8  C7  UNL     1      23.302   4.660  51.158  1.00  0.00     0.102 A 
HETATM    9  C2  UNL     1      22.768   4.594  49.893  1.00  0.00     0.065 A 
HETATM   10  C3  UNL     1      22.878   5.761  49.170  1.00  0.00     0.074 A 
HETATM   11  C4  UNL     1      23.466   6.897  49.660  1.00  0.00     0.118 A 
HETATM   12  F1  UNL     1      23.574   8.037  48.957  1.00  0.00    -0.206 F 
HETATM   13  C5  UNL     1      23.991   6.925  50.934  1.00  0.00     0.045 A 
HETATM   14  C6  UNL     1      23.903   5.777  51.694  1.00  0.00     0.042 A 
BRANCH   9  15
HETATM   15  N1  UNL     1      22.132   3.456  49.339  1.00  0.00    -0.392 N 
HETATM   16  C1  UNL     1      22.875   2.604  48.433  1.00  0.00     0.146 C 
HETATM   17  H4  UNL     1      21.172   3.139  49.492  1.00  0.00     0.159 HD
ENDBRANCH   9  15
ENDBRANCH   7   8
ENDBRANCH   1   7
BRANCH   4  18
HETATM   18  N2  UNL     1      27.158  -0.421  52.846  1.00  0.00    -0.335 N 
HETATM   19  C12 UNL     1      28.410  -0.055  53.411  1.00  0.00     0.114 A 
HETATM   20  C13 UNL     1      29.313  -0.984  53.684  1.00  0.00     0.158 A 
HETATM   21  N3  UNL     1      28.950  -2.324  53.381  1.00  0.00    -0.165 NA
HETATM   22  N4  UNL     1      27.844  -2.661  52.881  1.00  0.00    -0.173 NA
HETATM   23  C14 UNL     1      26.769  -1.768  52.533  1.00  0.00     0.303 A 
ENDBRANCH   4  18
TORSDOF 4
ENDMDL
MODEL 9
REMARK VINA RESULT:      -6.7      3.527      7.822
REMARK  4 active torsions:
REMARK  status: ('A' for Active; 'I' for Inactive)
REMARK    1  A    between atoms: N1_2  and  C2_3 
REMARK    2  A    between atoms: C7_9  and  O1_10 
REMARK    3  A    between atoms: O1_10  and  C8_11 
REMARK    4  A    between atoms: C11_14  and  N2_15 
ROOT
HETATM    1  C8  UNL     1      25.012   2.383  53.143  1.00  0.00     0.076 A 
HETATM    2  C9  UNL     1      24.821   1.502  52.072  1.00  0.00     0.039 A 
HETATM    3  C10 UNL     1      23.801   1.737  51.176  1.00  0.00     0.032 A 
HETATM    4  C11 UNL     1      22.930   2.777  51.231  1.00  0.00     0.035 A 
HETATM    5  C15 UNL     1      23.144   3.642  52.312  1.00  0.00     0.032 A 
HETATM    6  C16 UNL     1      24.158   3.464  53.257  1.00  0.00     0.039 A 
ENDROOT
BRANCH   1   7
HETATM    7  O1  UNL     1      25.953   2.351  54.149  1.00  0.00    -0.309 OA
BRANCH   7   8
HETATM    8  C7  UNL     1      27.091   1.568  54.087  1.00  0.00     0.102 A 
HETATM    9  C2  UNL     1      27.106   0.338  54.700  1.00  0.00     0.065 A 
HETATM   10  C3  UNL     1      28.295  -0.346  54.569  1.00  0.00     0.074 A 
HETATM   11  C4  UNL     1      29.375   0.147  53.887  1.00  0.00     0.118 A 
HETATM   12  F1  UNL     1      30.535  -0.519  53.756  1.00  0.00    -0.206 F 
HETATM   13  C5  UNL     1      29.321   1.385  53.284  1.00  0.00     0.045 A 
HETATM   14  C6  UNL     1      28.150   2.106  53.391  1.00  0.00     0.042 A 
BRANCH   9  15
HETATM   15  N1  UNL     1      26.017  -0.232  55.403  1.00  0.00    -0.392 N 
HETATM   16  C1  UNL     1      25.004  -0.959  54.664  1.00  0.00     0.146 C 
HETATM   17  H4  UNL     1      25.833  -0.198  56.408  1.00  0.00     0.159 HD
ENDBRANCH   9  15
ENDBRANCH   7   8
ENDBRANCH   1   7
BRANCH   4  18
HETATM   18  N2  UNL     1      21.886   3.007  50.304  1.00  0.00    -0.335 N 
HETATM   19  C12 UNL     1      21.299   4.301  50.261  1.00  0.00     0.114 A 
HETATM   20  C13 UNL     1      20.320   4.559  49.408  1.00  0.00     0.158 A 
HETATM   21  N3  UNL     1      19.915   3.486  48.570  1.00  0.00    -0.165 NA
HETATM   22  N4  UNL     1      20.428   2.335  48.597  1.00  0.00    -0.173 NA
HETATM   23  C14 UNL     1      21.494   1.908  49.465  1.00  0.00     0.303 A 
ENDBRANCH   4  18
TORSDOF 4
ENDMDL
