MODEL 1
REMARK VINA RESULT:      -7.8      0.000      0.000
REMARK  4 active torsions:
REMARK  status: ('A' for Active; 'I' for Inactive)
REMARK    1  A    between atoms: C9_10  and  O1_11 
REMARK    2  A    between atoms: O1_11  and  C10_12 
REMARK    3  A    between atoms: C10_12  and  C11_13 
REMARK    4  A    between atoms: C17_19  and  O2_20 
ROOT
HETATM    1  C1  UNL     1      20.923   0.856  50.751  1.00  0.00     0.143 C 
HETATM    2  N1  UNL     1      21.261   1.964  51.681  1.00  0.00    -0.413 N 
HETATM    3  C2  UNL     1      21.749   1.376  52.848  1.00  0.00     0.143 C 
HETATM    4  C3  UNL     1      23.087   0.811  52.950  1.00  0.00    -0.011 C 
HETATM    5  C4  UNL     1      24.366   0.568  52.471  1.00  0.00    -0.025 C 
HETATM    6  C5  UNL     1      25.590  -0.172  53.010  1.00  0.00     0.054 C 
HETATM    7  C6  UNL     1      26.411   0.893  53.931  1.00  0.00    -0.023 C 
HETATM    8  C7  UNL     1      25.857   2.257  53.840  1.00  0.00    -0.001 C 
HETATM    9  C8  UNL     1      24.867   2.704  52.986  1.00  0.00     0.035 C 
HETATM   10  C9  UNL     1      23.956   3.159  52.240  1.00  0.00     0.076 C 
HETATM   11  C17 UNL     1      23.247   4.337  52.644  1.00  0.00     0.092 C 
HETATM   12  C18 UNL     1      21.918   4.347  51.961  1.00  0.00     0.134 C 
HETATM   13  C19 UNL     1      21.569   3.163  51.049  1.00  0.00     0.125 C 
ENDROOT
BRANCH  10  14
HETATM   14  O1  UNL     1      23.368   2.819  50.991  1.00  0.00    -0.348 OA
BRANCH  14  15
HETATM   15  C10 UNL     1      24.555   2.932  50.171  1.00  0.00     0.214 C 
BRANCH  15  16
HETATM   16  C11 UNL     1      25.318   3.787  49.463  1.00  0.00    -0.034 A 
HETATM   17  C12 UNL     1      26.690   3.720  49.311  1.00  0.00     0.009 A 
HETATM   18  C13 UNL     1      27.453   4.759  48.883  1.00  0.00     0.001 A 
HETATM   19  C14 UNL     1      26.900   5.920  48.576  1.00  0.00     0.000 A 
HETATM   20  C15 UNL     1      25.522   6.179  48.672  1.00  0.00     0.001 A 
HETATM   21  C16 UNL     1      24.804   5.026  49.123  1.00  0.00     0.009 A 
ENDBRANCH  15  16
ENDBRANCH  14  15
ENDBRANCH  10  14
BRANCH  11  22
HETATM   22  O2  UNL     1      24.145   4.895  53.451  1.00  0.00    -0.388 OA
HETATM   23  H20 UNL     1      25.116   4.881  53.163  1.00  0.00     0.210 HD
ENDBRANCH  11  22
TORSDOF 4
ENDMDL
MODEL 2
REMARK VINA RESULT:      -7.0      1.537      2.120
REMARK  4 active torsions:
REMARK  status: ('A' for Active; 'I' for Inactive)
REMARK    1  A    between atoms: C9_10  and  O1_11 
REMARK    2  A    between atoms: O1_11  and  C10_12 
REMARK    3  A    between atoms: C10_12  and  C11_13 
REMARK    4  A    between atoms: C17_19  and  O2_20 
ROOT
HETATM    1  C1  UNL     1      20.334   3.887  49.050  1.00  0.00     0.143 C 
HETATM    2  N1  UNL     1      20.878   4.709  50.161  1.00  0.00    -0.413 N 
HETATM    3  C2  UNL     1      20.770   3.942  51.322  1.00  0.00     0.143 C 
HETATM    4  C3  UNL     1      21.670   2.838  51.627  1.00  0.00    -0.011 C 
HETATM    5  C4  UNL     1      22.796   2.061  51.396  1.00  0.00    -0.025 C 
HETATM    6  C5  UNL     1      23.416   0.843  52.080  1.00  0.00     0.054 C 
HETATM    7  C6  UNL     1      24.365   1.412  53.277  1.00  0.00    -0.023 C 
HETATM    8  C7  UNL     1      24.488   2.882  53.244  1.00  0.00    -0.001 C 
HETATM    9  C8  UNL     1      24.022   3.740  52.266  1.00  0.00     0.035 C 
HETATM   10  C9  UNL     1      23.602   4.568  51.411  1.00  0.00     0.076 C 
HETATM   11  C17 UNL     1      23.391   5.930  51.804  1.00  0.00     0.092 C 
HETATM   12  C18 UNL     1      22.401   6.544  50.867  1.00  0.00     0.134 C 
HETATM   13  C19 UNL     1      21.811   5.659  49.762  1.00  0.00     0.125 C 
ENDROOT
BRANCH  10  14
HETATM   14  O1  UNL     1      23.245   4.551  50.035  1.00  0.00    -0.348 OA
BRANCH  14  15
HETATM   15  C10 UNL     1      24.556   4.275  49.489  1.00  0.00     0.214 C 
BRANCH  15  16
HETATM   16  C11 UNL     1      25.643   4.830  48.918  1.00  0.00    -0.034 A 
HETATM   17  C12 UNL     1      26.931   4.331  48.963  1.00  0.00     0.009 A 
HETATM   18  C13 UNL     1      28.036   5.067  48.674  1.00  0.00     0.001 A 
HETATM   19  C14 UNL     1      27.926   6.336  48.319  1.00  0.00     0.000 A 
HETATM   20  C15 UNL     1      26.701   7.018  48.222  1.00  0.00     0.001 A 
HETATM   21  C16 UNL     1      25.600   6.160  48.538  1.00  0.00     0.009 A 
ENDBRANCH  15  16
ENDBRANCH  14  15
ENDBRANCH  10  14
BRANCH  11  22
HETATM   22  O2  UNL     1      24.217   6.014  52.843  1.00  0.00    -0.388 OA
HETATM   23  H20 UNL     1      24.777   5.201  53.070  1.00  0.00     0.210 HD
ENDBRANCH  11  22
TORSDOF 4
ENDMDL
MODEL 3
REMARK VINA RESULT:      -6.9      5.769      9.762
REMARK  4 active torsions:
REMARK  status: ('A' for Active; 'I' for Inactive)
REMARK    1  A    between atoms: C9_10  and  O1_11 
REMARK    2  A    between atoms: O1_11  and  C10_12 
REMARK    3  A    between atoms: C10_12  and  C11_13 
REMARK    4  A    between atoms: C17_19  and  O2_20 
ROOT
HETATM    1  C1  UNL     1      32.475   6.508  44.924  1.00  0.00     0.143 C 
HETATM    2  N1  UNL     1      32.779   6.374  46.371  1.00  0.00    -0.413 N 
HETATM    3  C2  UNL     1      33.285   7.603  46.794  1.00  0.00     0.143 C 
HETATM    4  C3  UNL     1      32.441   8.767  47.025  1.00  0.00    -0.011 C 
HETATM    5  C4  UNL     1      31.212   9.399  47.147  1.00  0.00    -0.025 C 
HETATM    6  C5  UNL     1      30.766  10.831  47.441  1.00  0.00     0.054 C 
HETATM    7  C6  UNL     1      30.721  10.983  49.063  1.00  0.00    -0.023 C 
HETATM    8  C7  UNL     1      30.940   9.698  49.753  1.00  0.00    -0.001 C 
HETATM    9  C8  UNL     1      31.024   8.443  49.180  1.00  0.00     0.035 C 
HETATM   10  C9  UNL     1      31.126   7.278  48.706  1.00  0.00     0.076 C 
HETATM   11  C17 UNL     1      31.814   6.274  49.464  1.00  0.00     0.092 C 
HETATM   12  C18 UNL     1      32.297   5.219  48.521  1.00  0.00     0.134 C 
HETATM   13  C19 UNL     1      32.020   5.409  47.025  1.00  0.00     0.125 C 
ENDROOT
BRANCH  10  14
HETATM   14  O1  UNL     1      30.716   6.595  47.529  1.00  0.00    -0.348 OA
BRANCH  14  15
HETATM   15  C10 UNL     1      29.291   6.817  47.652  1.00  0.00     0.214 C 
BRANCH  15  16
HETATM   16  C11 UNL     1      28.117   6.236  47.965  1.00  0.00    -0.034 A 
HETATM   17  C12 UNL     1      26.910   6.886  48.141  1.00  0.00     0.009 A 
HETATM   18  C13 UNL     1      25.841   6.332  48.772  1.00  0.00     0.001 A 
HETATM   19  C14 UNL     1      25.906   5.104  49.256  1.00  0.00     0.000 A 
HETATM   20  C15 UNL     1      27.050   4.291  49.176  1.00  0.00     0.001 A 
HETATM   21  C16 UNL     1      28.116   4.957  48.492  1.00  0.00     0.009 A 
ENDBRANCH  15  16
ENDBRANCH  14  15
ENDBRANCH  10  14
BRANCH  11  22
HETATM   22  O2  UNL     1      31.677   6.763  50.693  1.00  0.00    -0.388 OA
HETATM   23  H20 UNL     1      31.040   6.291  51.323  1.00  0.00     0.210 HD
ENDBRANCH  11  22
TORSDOF 4
ENDMDL
MODEL 4
REMARK VINA RESULT:      -6.8      2.248      3.877
REMARK  4 active torsions:
REMARK  status: ('A' for Active; 'I' for Inactive)
REMARK    1  A    between atoms: C9_10  and  O1_11 
REMARK    2  A    between atoms: O1_11  and  C10_12 
REMARK    3  A    between atoms: C10_12  and  C11_13 
REMARK    4  A    between atoms: C17_19  and  O2_20 
ROOT
HETATM    1  C1  UNL     1      22.396   2.105  47.742  1.00  0.00     0.143 C 
HETATM    2  N1  UNL     1      21.177   2.488  48.498  1.00  0.00    -0.413 N 
HETATM    3  C2  UNL     1      20.680   1.322  49.081  1.00  0.00     0.143 C 
HETATM    4  C3  UNL     1      21.281   0.707  50.257  1.00  0.00    -0.011 C 
HETATM    5  C4  UNL     1      22.168   0.685  51.323  1.00  0.00    -0.025 C 
HETATM    6  C5  UNL     1      22.472  -0.309  52.444  1.00  0.00     0.054 C 
HETATM    7  C6  UNL     1      21.423   0.012  53.650  1.00  0.00    -0.023 C 
HETATM    8  C7  UNL     1      20.635   1.233  53.397  1.00  0.00    -0.001 C 
HETATM    9  C8  UNL     1      20.803   2.142  52.371  1.00  0.00     0.035 C 
HETATM   10  C9  UNL     1      20.904   2.993  51.444  1.00  0.00     0.076 C 
HETATM   11  C17 UNL     1      19.766   3.796  51.107  1.00  0.00     0.092 C 
HETATM   12  C18 UNL     1      19.921   4.270  49.698  1.00  0.00     0.134 C 
HETATM   13  C19 UNL     1      21.161   3.813  48.918  1.00  0.00     0.125 C 
ENDROOT
BRANCH  10  14
HETATM   14  O1  UNL     1      21.913   3.439  50.547  1.00  0.00    -0.348 OA
BRANCH  14  15
HETATM   15  C10 UNL     1      22.955   3.683  51.521  1.00  0.00     0.214 C 
BRANCH  15  16
HETATM   16  C11 UNL     1      24.210   3.356  51.887  1.00  0.00    -0.034 A 
HETATM   17  C12 UNL     1      25.264   3.094  51.033  1.00  0.00     0.009 A 
HETATM   18  C13 UNL     1      26.400   2.453  51.412  1.00  0.00     0.001 A 
HETATM   19  C14 UNL     1      26.557   2.040  52.659  1.00  0.00     0.000 A 
HETATM   20  C15 UNL     1      25.593   2.212  53.667  1.00  0.00     0.001 A 
HETATM   21  C16 UNL     1      24.440   2.901  53.174  1.00  0.00     0.009 A 
ENDBRANCH  15  16
ENDBRANCH  14  15
ENDBRANCH  10  14
BRANCH  11  22
HETATM   22  O2  UNL     1      19.092   3.754  52.253  1.00  0.00    -0.388 OA
HETATM   23  H20 UNL     1      19.195   4.532  52.893  1.00  0.00     0.210 HD
ENDBRANCH  11  22
TORSDOF 4
ENDMDL
MODEL 5
REMARK VINA RESULT:      -6.7      2.524      3.988
REMARK  4 active torsions:
REMARK  status: ('A' for Active; 'I' for Inactive)
REMARK    1  A    between atoms: C9_10  and  O1_11 
REMARK    2  A    between atoms: O1_11  and  C10_12 
REMARK    3  A    between atoms: C10_12  and  C11_13 
REMARK    4  A    between atoms: C17_19  and  O2_20 
ROOT
HETATM    1  C1  UNL     1      21.160   6.382  47.552  1.00  0.00     0.143 C 
HETATM    2  N1  UNL     1      21.610   6.830  48.895  1.00  0.00    -0.413 N 
HETATM    3  C2  UNL     1      21.118   5.903  49.815  1.00  0.00     0.143 C 
HETATM    4  C3  UNL     1      21.706   4.583  49.999  1.00  0.00    -0.011 C 
HETATM    5  C4  UNL     1      22.684   3.624  49.780  1.00  0.00    -0.025 C 
HETATM    6  C5  UNL     1      22.903   2.188  50.257  1.00  0.00     0.054 C 
HETATM    7  C6  UNL     1      23.674   2.284  51.689  1.00  0.00    -0.023 C 
HETATM    8  C7  UNL     1      24.082   3.663  52.015  1.00  0.00    -0.001 C 
HETATM    9  C8  UNL     1      24.003   4.776  51.199  1.00  0.00     0.035 C 
HETATM   10  C9  UNL     1      23.938   5.825  50.501  1.00  0.00     0.076 C 
HETATM   11  C17 UNL     1      23.916   7.099  51.157  1.00  0.00     0.092 C 
HETATM   12  C18 UNL     1      23.279   8.092  50.240  1.00  0.00     0.134 C 
HETATM   13  C19 UNL     1      22.771   7.595  48.881  1.00  0.00     0.125 C 
ENDROOT
BRANCH  10  14
HETATM   14  O1  UNL     1      23.876   6.152  49.119  1.00  0.00    -0.348 OA
BRANCH  14  15
HETATM   15  C10 UNL     1      25.201   5.703  48.747  1.00  0.00     0.214 C 
BRANCH  15  16
HETATM   16  C11 UNL     1      26.486   6.083  48.607  1.00  0.00    -0.034 A 
HETATM   17  C12 UNL     1      26.928   7.274  48.064  1.00  0.00     0.009 A 
HETATM   18  C13 UNL     1      28.201   7.482  47.637  1.00  0.00     0.001 A 
HETATM   19  C14 UNL     1      29.107   6.523  47.729  1.00  0.00     0.000 A 
HETATM   20  C15 UNL     1      28.844   5.245  48.249  1.00  0.00     0.001 A 
HETATM   21  C16 UNL     1      27.483   5.126  48.677  1.00  0.00     0.009 A 
ENDBRANCH  15  16
ENDBRANCH  14  15
ENDBRANCH  10  14
BRANCH  11  22
HETATM   22  O2  UNL     1      24.509   6.790  52.307  1.00  0.00    -0.388 OA
HETATM   23  H20 UNL     1      25.507   6.617  52.294  1.00  0.00     0.210 HD
ENDBRANCH  11  22
TORSDOF 4
ENDMDL
MODEL 6
REMARK VINA RESULT:      -6.7      2.034      4.632
REMARK  4 active torsions:
REMARK  status: ('A' for Active; 'I' for Inactive)
REMARK    1  A    between atoms: C9_10  and  O1_11 
REMARK    2  A    between atoms: O1_11  and  C10_12 
REMARK    3  A    between atoms: C10_12  and  C11_13 
REMARK    4  A    between atoms: C17_19  and  O2_20 
ROOT
HETATM    1  C1  UNL     1      24.302   3.242  53.150  1.00  0.00     0.143 C 
HETATM    2  N1  UNL     1      23.326   3.068  52.044  1.00  0.00    -0.413 N 
HETATM    3  C2  UNL     1      22.446   4.148  52.108  1.00  0.00     0.143 C 
HETATM    4  C3  UNL     1      22.801   5.486  51.655  1.00  0.00    -0.011 C 
HETATM    5  C4  UNL     1      23.638   6.398  51.029  1.00  0.00    -0.025 C 
HETATM    6  C5  UNL     1      23.576   7.901  50.759  1.00  0.00     0.054 C 
HETATM    7  C6  UNL     1      22.745   8.093  49.370  1.00  0.00    -0.023 C 
HETATM    8  C7  UNL     1      22.459   6.807  48.706  1.00  0.00    -0.001 C 
HETATM    9  C8  UNL     1      22.930   5.557  49.060  1.00  0.00     0.035 C 
HETATM   10  C9  UNL     1      23.319   4.392  49.351  1.00  0.00     0.076 C 
HETATM   11  C17 UNL     1      22.551   3.269  48.903  1.00  0.00     0.092 C 
HETATM   12  C18 UNL     1      22.843   2.109  49.800  1.00  0.00     0.134 C 
HETATM   13  C19 UNL     1      23.810   2.329  50.970  1.00  0.00     0.125 C 
ENDROOT
BRANCH  10  14
HETATM   14  O1  UNL     1      24.404   3.805  50.058  1.00  0.00    -0.348 OA
BRANCH  14  15
HETATM   15  C10 UNL     1      25.469   4.204  49.163  1.00  0.00     0.214 C 
BRANCH  15  16
HETATM   16  C11 UNL     1      26.433   5.120  48.950  1.00  0.00    -0.034 A 
HETATM   17  C12 UNL     1      26.238   6.431  48.557  1.00  0.00     0.009 A 
HETATM   18  C13 UNL     1      27.216   7.215  48.035  1.00  0.00     0.001 A 
HETATM   19  C14 UNL     1      28.443   6.748  47.879  1.00  0.00     0.000 A 
HETATM   20  C15 UNL     1      28.831   5.439  48.217  1.00  0.00     0.001 A 
HETATM   21  C16 UNL     1      27.737   4.696  48.762  1.00  0.00     0.009 A 
ENDBRANCH  15  16
ENDBRANCH  14  15
ENDBRANCH  10  14
BRANCH  11  22
HETATM   22  O2  UNL     1      21.933   3.801  47.852  1.00  0.00    -0.388 OA
HETATM   23  H20 UNL     1      22.223   4.722  47.548  1.00  0.00     0.210 HD
ENDBRANCH  11  22
TORSDOF 4
ENDMDL
MODEL 7
REMARK VINA RESULT:      -6.6      2.672      5.636
REMARK  4 active torsions:
REMARK  status: ('A' for Active; 'I' for Inactive)
REMARK    1  A    between atoms: C9_10  and  O1_11 
REMARK    2  A    between atoms: O1_11  and  C10_12 
REMARK    3  A    between atoms: C10_12  and  C11_13 
REMARK    4  A    between atoms: C17_19  and  O2_20 
ROOT
HETATM    1  C1  UNL     1      18.584   3.832  51.466  1.00  0.00     0.143 C 
HETATM    2  N1  UNL     1      19.389   3.766  50.219  1.00  0.00    -0.413 N 
HETATM    3  C2  UNL     1      20.481   4.616  50.398  1.00  0.00     0.143 C 
HETATM    4  C3  UNL     1      21.630   4.267  51.222  1.00  0.00    -0.011 C 
HETATM    5  C4  UNL     1      22.383   3.384  51.982  1.00  0.00    -0.025 C 
HETATM    6  C5  UNL     1      23.700   3.485  52.750  1.00  0.00     0.054 C 
HETATM    7  C6  UNL     1      24.890   3.182  51.679  1.00  0.00    -0.023 C 
HETATM    8  C7  UNL     1      24.369   2.740  50.372  1.00  0.00    -0.001 C 
HETATM    9  C8  UNL     1      23.059   2.439  50.051  1.00  0.00     0.035 C 
HETATM   10  C9  UNL     1      21.877   2.169  49.701  1.00  0.00     0.076 C 
HETATM   11  C17 UNL     1      21.525   2.246  48.313  1.00  0.00     0.092 C 
HETATM   12  C18 UNL     1      20.049   2.455  48.211  1.00  0.00     0.134 C 
HETATM   13  C19 UNL     1      19.247   2.577  49.513  1.00  0.00     0.125 C 
ENDROOT
BRANCH  10  14
HETATM   14  O1  UNL     1      20.670   1.768  50.337  1.00  0.00    -0.348 OA
BRANCH  14  15
HETATM   15  C10 UNL     1      21.166   0.566  50.971  1.00  0.00     0.214 C 
BRANCH  15  16
HETATM   16  C11 UNL     1      21.392  -0.032  52.157  1.00  0.00    -0.034 A 
HETATM   17  C12 UNL     1      20.480  -0.165  53.188  1.00  0.00     0.009 A 
HETATM   18  C13 UNL     1      20.827  -0.464  54.467  1.00  0.00     0.001 A 
HETATM   19  C14 UNL     1      22.094  -0.655  54.795  1.00  0.00     0.000 A 
HETATM   20  C15 UNL     1      23.160  -0.558  53.885  1.00  0.00     0.001 A 
HETATM   21  C16 UNL     1      22.696  -0.247  52.567  1.00  0.00     0.009 A 
ENDBRANCH  15  16
ENDBRANCH  14  15
ENDBRANCH  10  14
BRANCH  11  22
HETATM   22  O2  UNL     1      22.718   2.070  47.751  1.00  0.00    -0.388 OA
HETATM   23  H20 UNL     1      23.190   1.188  47.907  1.00  0.00     0.210 HD
ENDBRANCH  11  22
TORSDOF 4
ENDMDL
MODEL 8
REMARK VINA RESULT:      -6.6      2.172      4.560
REMARK  4 active torsions:
REMARK  status: ('A' for Active; 'I' for Inactive)
REMARK    1  A    between atoms: C9_10  and  O1_11 
REMARK    2  A    between atoms: O1_11  and  C10_12 
REMARK    3  A    between atoms: C10_12  and  C11_13 
REMARK    4  A    between atoms: C17_19  and  O2_20 
ROOT
HETATM    1  C1  UNL     1      22.765   2.123  47.461  1.00  0.00     0.143 C 
HETATM    2  N1  UNL     1      22.366   3.233  48.364  1.00  0.00    -0.413 N 
HETATM    3  C2  UNL     1      21.096   2.922  48.850  1.00  0.00     0.143 C 
HETATM    4  C3  UNL     1      20.868   1.926  49.887  1.00  0.00    -0.011 C 
HETATM    5  C4  UNL     1      21.295   1.033  50.860  1.00  0.00    -0.025 C 
HETATM    6  C5  UNL     1      20.590   0.081  51.825  1.00  0.00     0.054 C 
HETATM    7  C6  UNL     1      20.214   0.954  53.150  1.00  0.00    -0.023 C 
HETATM    8  C7  UNL     1      20.796   2.309  53.113  1.00  0.00    -0.001 C 
HETATM    9  C8  UNL     1      21.691   2.811  52.187  1.00  0.00     0.035 C 
HETATM   10  C9  UNL     1      22.495   3.324  51.361  1.00  0.00     0.076 C 
HETATM   11  C17 UNL     1      22.539   4.750  51.223  1.00  0.00     0.092 C 
HETATM   12  C18 UNL     1      23.084   5.077  49.870  1.00  0.00     0.134 C 
HETATM   13  C19 UNL     1      23.435   3.914  48.934  1.00  0.00     0.125 C 
ENDROOT
BRANCH  10  14
HETATM   14  O1  UNL     1      23.470   2.861  50.435  1.00  0.00    -0.348 OA
BRANCH  14  15
HETATM   15  C10 UNL     1      24.409   2.312  51.389  1.00  0.00     0.214 C 
BRANCH  15  16
HETATM   16  C11 UNL     1      24.888   1.170  51.920  1.00  0.00    -0.034 A 
HETATM   17  C12 UNL     1      24.291   0.424  52.918  1.00  0.00     0.009 A 
HETATM   18  C13 UNL     1      24.944  -0.515  53.651  1.00  0.00     0.001 A 
HETATM   19  C14 UNL     1      26.223  -0.772  53.432  1.00  0.00     0.000 A 
HETATM   20  C15 UNL     1      26.998  -0.112  52.463  1.00  0.00     0.001 A 
HETATM   21  C16 UNL     1      26.222   0.850  51.741  1.00  0.00     0.009 A 
ENDBRANCH  15  16
ENDBRANCH  14  15
ENDBRANCH  10  14
BRANCH  11  22
HETATM   22  O2  UNL     1      22.075   5.122  52.412  1.00  0.00    -0.388 OA
HETATM   23  H20 UNL     1      22.480   4.693  53.235  1.00  0.00     0.210 HD
ENDBRANCH  11  22
TORSDOF 4
ENDMDL
MODEL 9
REMARK VINA RESULT:      -6.6      2.194      6.089
REMARK  4 active torsions:
REMARK  status: ('A' for Active; 'I' for Inactive)
REMARK    1  A    between atoms: C9_10  and  O1_11 
REMARK    2  A    between atoms: O1_11  and  C10_12 
REMARK    3  A    between atoms: C10_12  and  C11_13 
REMARK    4  A    between atoms: C17_19  and  O2_20 
ROOT
HETATM    1  C1  UNL     1      26.413   2.903  50.247  1.00  0.00     0.143 C 
HETATM    2  N1  UNL     1      25.335   3.721  50.860  1.00  0.00    -0.413 N 
HETATM    3  C2  UNL     1      24.660   4.349  49.813  1.00  0.00     0.143 C 
HETATM    4  C3  UNL     1      23.715   3.652  48.951  1.00  0.00    -0.011 C 
HETATM    5  C4  UNL     1      22.943   2.556  48.594  1.00  0.00    -0.025 C 
HETATM    6  C5  UNL     1      21.975   2.253  47.450  1.00  0.00     0.054 C 
HETATM    7  C6  UNL     1      20.516   2.811  47.914  1.00  0.00    -0.023 C 
HETATM    8  C7  UNL     1      20.510   3.267  49.317  1.00  0.00    -0.001 C 
HETATM    9  C8  UNL     1      21.523   3.132  50.247  1.00  0.00     0.035 C 
HETATM   10  C9  UNL     1      22.423   3.049  51.128  1.00  0.00     0.076 C 
HETATM   11  C17 UNL     1      22.407   3.967  52.229  1.00  0.00     0.092 C 
HETATM   12  C18 UNL     1      23.793   4.066  52.781  1.00  0.00     0.134 C 
HETATM   13  C19 UNL     1      24.901   3.255  52.096  1.00  0.00     0.125 C 
ENDROOT
BRANCH  10  14
HETATM   14  O1  UNL     1      23.558   2.232  51.381  1.00  0.00    -0.348 OA
BRANCH  14  15
HETATM   15  C10 UNL     1      22.858   1.032  51.786  1.00  0.00     0.214 C 
BRANCH  15  16
HETATM   16  C11 UNL     1      22.360   0.360  52.843  1.00  0.00    -0.034 A 
HETATM   17  C12 UNL     1      23.094  -0.347  53.776  1.00  0.00     0.009 A 
HETATM   18  C13 UNL     1      22.557  -1.272  54.614  1.00  0.00     0.001 A 
HETATM   19  C14 UNL     1      21.263  -1.543  54.578  1.00  0.00     0.000 A 
HETATM   20  C15 UNL     1      20.359  -0.929  53.694  1.00  0.00     0.001 A 
HETATM   21  C16 UNL     1      21.016   0.031  52.860  1.00  0.00     0.009 A 
ENDBRANCH  15  16
ENDBRANCH  14  15
ENDBRANCH  10  14
BRANCH  11  22
HETATM   22  O2  UNL     1      21.119   4.295  52.252  1.00  0.00    -0.388 OA
HETATM   23  H20 UNL     1      20.449   3.572  52.483  1.00  0.00     0.210 HD
ENDBRANCH  11  22
TORSDOF 4
ENDMDL
