MODEL 1
REMARK VINA RESULT:      -7.9      0.000      0.000
REMARK  10 active torsions:
REMARK  status: ('A' for Active; 'I' for Inactive)
REMARK    1  A    between atoms: C2_2  and  O1_3 
REMARK    2  A    between atoms: O1_3  and  C3_4 
REMARK    3  A    between atoms: C3_4  and  C4_5 
REMARK    4  A    between atoms: C4_5  and  C5_6 
REMARK    5  A    between atoms: C5_6  and  C6_7 
REMARK    6  A    between atoms: C6_7  and  C7_8 
REMARK    7  A    between atoms: C7_8  and  C8_9 
REMARK    8  A    between atoms: C8_9  and  O3_11 
REMARK    9  A    between atoms: C15_19  and  C16_20 
REMARK   10  A    between atoms: C16_20  and  O5_22 
ROOT
HETATM    1  C5  UNL     1      25.771   1.850  51.479  1.00  0.00    -0.047 C 
HETATM    2  C9  UNL     1      24.335   1.949  51.548  1.00  0.00    -0.005 C 
HETATM    3  C10 UNL     1      23.552   2.849  51.000  1.00  0.00     0.003 C 
HETATM    4  C11 UNL     1      22.642   2.388  50.151  1.00  0.00     0.101 C 
HETATM    5  N1  UNL     1      21.670   1.465  50.690  1.00  0.00    -0.364 N 
HETATM    6  C12 UNL     1      22.110   0.691  51.827  1.00  0.00     0.043 A 
HETATM    7  C13 UNL     1      21.371  -0.222  52.527  1.00  0.00     0.031 A 
HETATM    8  C14 UNL     1      21.924  -0.870  53.618  1.00  0.00     0.020 A 
HETATM    9  C15 UNL     1      23.229  -0.629  54.049  1.00  0.00     0.038 A 
HETATM   10  C17 UNL     1      23.909   0.301  53.294  1.00  0.00     0.032 A 
HETATM   11  C18 UNL     1      23.406   0.987  52.179  1.00  0.00     0.003 A 
HETATM   12  H15 UNL     1      20.693   1.292  50.360  1.00  0.00     0.165 HD
ENDROOT
BRANCH   1  13
HETATM   13  C4  UNL     1      26.649   0.886  51.863  1.00  0.00     0.007 C 
BRANCH  13  14
HETATM   14  C3  UNL     1      27.406  -0.064  52.683  1.00  0.00     0.195 C 
BRANCH  14  15
HETATM   15  O1  UNL     1      27.660   0.300  53.986  1.00  0.00    -0.388 OA
BRANCH  15  16
HETATM   16  C2  UNL     1      28.932   0.186  54.446  1.00  0.00     0.163 C 
HETATM   17  C1  UNL     1      29.741  -0.868  53.693  1.00  0.00     0.033 C 
ENDBRANCH  15  16
ENDBRANCH  14  15
ENDBRANCH  13  14
ENDBRANCH   1  13
BRANCH   1  18
HETATM   18  C6  UNL     1      26.364   3.116  50.970  1.00  0.00     0.049 C 
BRANCH  18  19
HETATM   19  C7  UNL     1      26.648   3.140  49.520  1.00  0.00     0.114 C 
BRANCH  19  20
HETATM   20  C8  UNL     1      26.912   4.588  49.127  1.00  0.00     0.139 C 
HETATM   21  O2  UNL     1      25.988   5.394  48.769  1.00  0.00    -0.650 OA
BRANCH  20  22
HETATM   22  O3  UNL     1      28.257   4.958  49.193  1.00  0.00    -0.776 OA
HETATM   23  H13 UNL     1      28.536   5.591  49.946  1.00  0.00     0.167 HD
ENDBRANCH  20  22
ENDBRANCH  19  20
ENDBRANCH  18  19
ENDBRANCH   1  18
BRANCH   9  24
HETATM   24  C16 UNL     1      23.831  -1.295  55.191  1.00  0.00     0.176 C 
HETATM   25  O4  UNL     1      25.067  -1.194  55.376  1.00  0.00    -0.646 OA
BRANCH  24  26
HETATM   26  O5  UNL     1      23.016  -2.014  56.028  1.00  0.00    -0.773 OA
HETATM   27  H18 UNL     1      23.378  -2.793  56.600  1.00  0.00     0.167 HD
ENDBRANCH  24  26
ENDBRANCH   9  24
TORSDOF 10
ENDMDL
MODEL 2
REMARK VINA RESULT:      -7.8      2.660      4.436
REMARK  10 active torsions:
REMARK  status: ('A' for Active; 'I' for Inactive)
REMARK    1  A    between atoms: C2_2  and  O1_3 
REMARK    2  A    between atoms: O1_3  and  C3_4 
REMARK    3  A    between atoms: C3_4  and  C4_5 
REMARK    4  A    between atoms: C4_5  and  C5_6 
REMARK    5  A    between atoms: C5_6  and  C6_7 
REMARK    6  A    between atoms: C6_7  and  C7_8 
REMARK    7  A    between atoms: C7_8  and  C8_9 
REMARK    8  A    between atoms: C8_9  and  O3_11 
REMARK    9  A    between atoms: C15_19  and  C16_20 
REMARK   10  A    between atoms: C16_20  and  O5_22 
ROOT
HETATM    1  C5  UNL     1      25.296   2.343  51.901  1.00  0.00    -0.047 C 
HETATM    2  C9  UNL     1      25.374   1.002  52.424  1.00  0.00    -0.005 C 
HETATM    3  C10 UNL     1      26.372   0.154  52.348  1.00  0.00     0.003 C 
HETATM    4  C11 UNL     1      26.870  -0.263  53.506  1.00  0.00     0.101 C 
HETATM    5  N1  UNL     1      25.963  -0.979  54.374  1.00  0.00    -0.364 N 
HETATM    6  C12 UNL     1      24.566  -0.648  54.222  1.00  0.00     0.043 A 
HETATM    7  C13 UNL     1      23.519  -1.203  54.904  1.00  0.00     0.031 A 
HETATM    8  C14 UNL     1      22.223  -0.802  54.628  1.00  0.00     0.020 A 
HETATM    9  C15 UNL     1      21.927   0.163  53.666  1.00  0.00     0.038 A 
HETATM   10  C17 UNL     1      23.032   0.676  53.023  1.00  0.00     0.032 A 
HETATM   11  C18 UNL     1      24.366   0.313  53.259  1.00  0.00     0.003 A 
HETATM   12  H15 UNL     1      26.195  -1.701  55.093  1.00  0.00     0.165 HD
ENDROOT
BRANCH   1  13
HETATM   13  C4  UNL     1      24.391   3.346  52.063  1.00  0.00     0.007 C 
BRANCH  13  14
HETATM   14  C3  UNL     1      23.176   4.158  51.957  1.00  0.00     0.195 C 
BRANCH  14  15
HETATM   15  O1  UNL     1      22.076   3.563  51.381  1.00  0.00    -0.388 OA
BRANCH  15  16
HETATM   16  C2  UNL     1      22.108   3.317  50.046  1.00  0.00     0.163 C 
HETATM   17  C1  UNL     1      22.139   1.826  49.720  1.00  0.00     0.033 C 
ENDBRANCH  15  16
ENDBRANCH  14  15
ENDBRANCH  13  14
ENDBRANCH   1  13
BRANCH   1  18
HETATM   18  C6  UNL     1      26.389   2.593  50.924  1.00  0.00     0.049 C 
BRANCH  18  19
HETATM   19  C7  UNL     1      25.964   3.197  49.645  1.00  0.00     0.114 C 
BRANCH  19  20
HETATM   20  C8  UNL     1      26.826   4.431  49.410  1.00  0.00     0.139 C 
HETATM   21  O2  UNL     1      27.849   4.434  48.646  1.00  0.00    -0.650 OA
BRANCH  20  22
HETATM   22  O3  UNL     1      26.398   5.563  50.106  1.00  0.00    -0.776 OA
HETATM   23  H13 UNL     1      25.390   5.722  50.176  1.00  0.00     0.167 HD
ENDBRANCH  20  22
ENDBRANCH  19  20
ENDBRANCH  18  19
ENDBRANCH   1  18
BRANCH   9  24
HETATM   24  C16 UNL     1      20.576   0.600  53.358  1.00  0.00     0.176 C 
HETATM   25  O4  UNL     1      19.640  -0.233  53.394  1.00  0.00    -0.646 OA
BRANCH  24  26
HETATM   26  O5  UNL     1      20.378   1.919  53.037  1.00  0.00    -0.773 OA
HETATM   27  H18 UNL     1      20.975   2.666  53.422  1.00  0.00     0.167 HD
ENDBRANCH  24  26
ENDBRANCH   9  24
TORSDOF 10
ENDMDL
MODEL 3
REMARK VINA RESULT:      -7.7      2.591      5.004
REMARK  10 active torsions:
REMARK  status: ('A' for Active; 'I' for Inactive)
REMARK    1  A    between atoms: C2_2  and  O1_3 
REMARK    2  A    between atoms: O1_3  and  C3_4 
REMARK    3  A    between atoms: C3_4  and  C4_5 
REMARK    4  A    between atoms: C4_5  and  C5_6 
REMARK    5  A    between atoms: C5_6  and  C6_7 
REMARK    6  A    between atoms: C6_7  and  C7_8 
REMARK    7  A    between atoms: C7_8  and  C8_9 
REMARK    8  A    between atoms: C8_9  and  O3_11 
REMARK    9  A    between atoms: C15_19  and  C16_20 
REMARK   10  A    between atoms: C16_20  and  O5_22 
ROOT
HETATM    1  C5  UNL     1      24.514   2.840  50.841  1.00  0.00    -0.047 C 
HETATM    2  C9  UNL     1      24.206   2.049  52.006  1.00  0.00    -0.005 C 
HETATM    3  C10 UNL     1      23.029   1.693  52.461  1.00  0.00     0.003 C 
HETATM    4  C11 UNL     1      22.810   0.386  52.549  1.00  0.00     0.101 C 
HETATM    5  N1  UNL     1      23.684  -0.353  53.431  1.00  0.00    -0.364 N 
HETATM    6  C12 UNL     1      24.999   0.213  53.621  1.00  0.00     0.043 A 
HETATM    7  C13 UNL     1      25.990  -0.281  54.423  1.00  0.00     0.031 A 
HETATM    8  C14 UNL     1      27.197   0.391  54.526  1.00  0.00     0.020 A 
HETATM    9  C15 UNL     1      27.455   1.575  53.836  1.00  0.00     0.038 A 
HETATM   10  C17 UNL     1      26.411   2.008  53.049  1.00  0.00     0.032 A 
HETATM   11  C18 UNL     1      25.169   1.372  52.902  1.00  0.00     0.003 A 
HETATM   12  H15 UNL     1      23.481  -1.240  53.945  1.00  0.00     0.165 HD
ENDROOT
BRANCH   1  13
HETATM   13  C4  UNL     1      25.680   3.124  50.199  1.00  0.00     0.007 C 
BRANCH  13  14
HETATM   14  C3  UNL     1      26.788   3.855  49.579  1.00  0.00     0.195 C 
BRANCH  14  15
HETATM   15  O1  UNL     1      26.457   4.870  48.711  1.00  0.00    -0.388 OA
BRANCH  15  16
HETATM   16  C2  UNL     1      27.305   5.924  48.606  1.00  0.00     0.163 C 
HETATM   17  C1  UNL     1      28.735   5.502  48.275  1.00  0.00     0.033 C 
ENDBRANCH  15  16
ENDBRANCH  14  15
ENDBRANCH  13  14
ENDBRANCH   1  13
BRANCH   1  18
HETATM   18  C6  UNL     1      23.300   3.538  50.340  1.00  0.00     0.049 C 
BRANCH  18  19
HETATM   19  C7  UNL     1      23.385   5.012  50.318  1.00  0.00     0.114 C 
BRANCH  19  20
HETATM   20  C8  UNL     1      23.267   5.501  51.756  1.00  0.00     0.139 C 
HETATM   21  O2  UNL     1      22.360   5.098  52.559  1.00  0.00    -0.650 OA
BRANCH  20  22
HETATM   22  O3  UNL     1      24.241   6.433  52.120  1.00  0.00    -0.776 OA
HETATM   23  H13 UNL     1      24.382   6.604  53.119  1.00  0.00     0.167 HD
ENDBRANCH  20  22
ENDBRANCH  19  20
ENDBRANCH  18  19
ENDBRANCH   1  18
BRANCH   9  24
HETATM   24  C16 UNL     1      28.711   2.298  53.927  1.00  0.00     0.176 C 
HETATM   25  O4  UNL     1      29.426   2.158  54.948  1.00  0.00    -0.646 OA
BRANCH  24  26
HETATM   26  O5  UNL     1      29.069   3.114  52.884  1.00  0.00    -0.773 OA
HETATM   27  H18 UNL     1      29.093   2.771  51.911  1.00  0.00     0.167 HD
ENDBRANCH  24  26
ENDBRANCH   9  24
TORSDOF 10
ENDMDL
MODEL 4
REMARK VINA RESULT:      -7.7      2.763      5.815
REMARK  10 active torsions:
REMARK  status: ('A' for Active; 'I' for Inactive)
REMARK    1  A    between atoms: C2_2  and  O1_3 
REMARK    2  A    between atoms: O1_3  and  C3_4 
REMARK    3  A    between atoms: C3_4  and  C4_5 
REMARK    4  A    between atoms: C4_5  and  C5_6 
REMARK    5  A    between atoms: C5_6  and  C6_7 
REMARK    6  A    between atoms: C6_7  and  C7_8 
REMARK    7  A    between atoms: C7_8  and  C8_9 
REMARK    8  A    between atoms: C8_9  and  O3_11 
REMARK    9  A    between atoms: C15_19  and  C16_20 
REMARK   10  A    between atoms: C16_20  and  O5_22 
ROOT
HETATM    1  C5  UNL     1      24.280   0.488  52.726  1.00  0.00    -0.047 C 
HETATM    2  C9  UNL     1      23.041  -0.176  53.042  1.00  0.00    -0.005 C 
HETATM    3  C10 UNL     1      22.816  -1.091  53.955  1.00  0.00     0.003 C 
HETATM    4  C11 UNL     1      21.916  -0.782  54.881  1.00  0.00     0.101 C 
HETATM    5  N1  UNL     1      20.575  -0.524  54.410  1.00  0.00    -0.364 N 
HETATM    6  C12 UNL     1      20.474  -0.031  53.057  1.00  0.00     0.043 A 
HETATM    7  C13 UNL     1      19.323   0.260  52.379  1.00  0.00     0.031 A 
HETATM    8  C14 UNL     1      19.383   0.700  51.068  1.00  0.00     0.020 A 
HETATM    9  C15 UNL     1      20.590   0.864  50.389  1.00  0.00     0.038 A 
HETATM   10  C17 UNL     1      21.705   0.553  51.136  1.00  0.00     0.032 A 
HETATM   11  C18 UNL     1      21.708   0.106  52.466  1.00  0.00     0.003 A 
HETATM   12  H15 UNL     1      19.675  -0.650  54.927  1.00  0.00     0.165 HD
ENDROOT
BRANCH   1  13
HETATM   13  C4  UNL     1      24.582   1.548  51.928  1.00  0.00     0.007 C 
BRANCH  13  14
HETATM   14  C3  UNL     1      24.622   2.897  51.358  1.00  0.00     0.195 C 
BRANCH  14  15
HETATM   15  O1  UNL     1      23.413   3.523  51.151  1.00  0.00    -0.388 OA
BRANCH  15  16
HETATM   16  C2  UNL     1      22.834   4.159  52.200  1.00  0.00     0.163 C 
HETATM   17  C1  UNL     1      21.312   4.036  52.199  1.00  0.00     0.033 C 
ENDBRANCH  15  16
ENDBRANCH  14  15
ENDBRANCH  13  14
ENDBRANCH   1  13
BRANCH   1  18
HETATM   18  C6  UNL     1      25.433  -0.224  53.339  1.00  0.00     0.049 C 
BRANCH  18  19
HETATM   19  C7  UNL     1      26.498  -0.626  52.397  1.00  0.00     0.114 C 
BRANCH  19  20
HETATM   20  C8  UNL     1      27.525  -1.432  53.181  1.00  0.00     0.139 C 
HETATM   21  O2  UNL     1      28.297  -0.915  54.058  1.00  0.00    -0.650 OA
BRANCH  20  22
HETATM   22  O3  UNL     1      27.549  -2.790  52.857  1.00  0.00    -0.776 OA
HETATM   23  H13 UNL     1      27.127  -3.442  53.522  1.00  0.00     0.167 HD
ENDBRANCH  20  22
ENDBRANCH  19  20
ENDBRANCH  18  19
ENDBRANCH   1  18
BRANCH   9  24
HETATM   24  C16 UNL     1      20.680   1.324  49.014  1.00  0.00     0.176 C 
HETATM   25  O4  UNL     1      21.739   1.128  48.371  1.00  0.00    -0.646 OA
BRANCH  24  26
HETATM   26  O5  UNL     1      19.594   1.960  48.469  1.00  0.00    -0.773 OA
HETATM   27  H18 UNL     1      19.067   1.553  47.680  1.00  0.00     0.167 HD
ENDBRANCH  24  26
ENDBRANCH   9  24
TORSDOF 10
ENDMDL
MODEL 5
REMARK VINA RESULT:      -7.6      2.537      5.387
REMARK  10 active torsions:
REMARK  status: ('A' for Active; 'I' for Inactive)
REMARK    1  A    between atoms: C2_2  and  O1_3 
REMARK    2  A    between atoms: O1_3  and  C3_4 
REMARK    3  A    between atoms: C3_4  and  C4_5 
REMARK    4  A    between atoms: C4_5  and  C5_6 
REMARK    5  A    between atoms: C5_6  and  C6_7 
REMARK    6  A    between atoms: C6_7  and  C7_8 
REMARK    7  A    between atoms: C7_8  and  C8_9 
REMARK    8  A    between atoms: C8_9  and  O3_11 
REMARK    9  A    between atoms: C15_19  and  C16_20 
REMARK   10  A    between atoms: C16_20  and  O5_22 
ROOT
HETATM    1  C5  UNL     1      23.985   0.489  52.940  1.00  0.00    -0.047 C 
HETATM    2  C9  UNL     1      22.728  -0.204  53.078  1.00  0.00    -0.005 C 
HETATM    3  C10 UNL     1      22.414  -1.163  53.916  1.00  0.00     0.003 C 
HETATM    4  C11 UNL     1      21.405  -0.907  54.741  1.00  0.00     0.101 C 
HETATM    5  N1  UNL     1      20.124  -0.645  54.126  1.00  0.00    -0.364 N 
HETATM    6  C12 UNL     1      20.176  -0.093  52.793  1.00  0.00     0.043 A 
HETATM    7  C13 UNL     1      19.108   0.213  51.996  1.00  0.00     0.031 A 
HETATM    8  C14 UNL     1      19.315   0.713  50.721  1.00  0.00     0.020 A 
HETATM    9  C15 UNL     1      20.591   0.923  50.199  1.00  0.00     0.038 A 
HETATM   10  C17 UNL     1      21.614   0.592  51.059  1.00  0.00     0.032 A 
HETATM   11  C18 UNL     1      21.469   0.086  52.359  1.00  0.00     0.003 A 
HETATM   12  H15 UNL     1      19.173  -0.806  54.526  1.00  0.00     0.165 HD
ENDROOT
BRANCH   1  13
HETATM   13  C4  UNL     1      24.360   1.587  52.230  1.00  0.00     0.007 C 
BRANCH  13  14
HETATM   14  C3  UNL     1      24.772   2.463  51.130  1.00  0.00     0.195 C 
BRANCH  14  15
HETATM   15  O1  UNL     1      26.122   2.691  50.988  1.00  0.00    -0.388 OA
BRANCH  15  16
HETATM   16  C2  UNL     1      26.557   3.252  49.831  1.00  0.00     0.163 C 
HETATM   17  C1  UNL     1      25.816   4.540  49.482  1.00  0.00     0.033 C 
ENDBRANCH  15  16
ENDBRANCH  14  15
ENDBRANCH  13  14
ENDBRANCH   1  13
BRANCH   1  18
HETATM   18  C6  UNL     1      25.069  -0.236  53.654  1.00  0.00     0.049 C 
BRANCH  18  19
HETATM   19  C7  UNL     1      26.185  -0.697  52.803  1.00  0.00     0.114 C 
BRANCH  19  20
HETATM   20  C8  UNL     1      27.472  -0.119  53.379  1.00  0.00     0.139 C 
HETATM   21  O2  UNL     1      28.158  -0.706  54.282  1.00  0.00    -0.650 OA
BRANCH  20  22
HETATM   22  O3  UNL     1      27.836   1.112  52.831  1.00  0.00    -0.776 OA
HETATM   23  H13 UNL     1      28.263   1.108  51.902  1.00  0.00     0.167 HD
ENDBRANCH  20  22
ENDBRANCH  19  20
ENDBRANCH  18  19
ENDBRANCH   1  18
BRANCH   9  24
HETATM   24  C16 UNL     1      20.835   1.445  48.865  1.00  0.00     0.176 C 
HETATM   25  O4  UNL     1      21.978   1.330  48.362  1.00  0.00    -0.646 OA
BRANCH  24  26
HETATM   26  O5  UNL     1      19.795   2.048  48.203  1.00  0.00    -0.773 OA
HETATM   27  H18 UNL     1      19.173   1.517  47.575  1.00  0.00     0.167 HD
ENDBRANCH  24  26
ENDBRANCH   9  24
TORSDOF 10
ENDMDL
MODEL 6
REMARK VINA RESULT:      -7.5      2.253      3.027
REMARK  10 active torsions:
REMARK  status: ('A' for Active; 'I' for Inactive)
REMARK    1  A    between atoms: C2_2  and  O1_3 
REMARK    2  A    between atoms: O1_3  and  C3_4 
REMARK    3  A    between atoms: C3_4  and  C4_5 
REMARK    4  A    between atoms: C4_5  and  C5_6 
REMARK    5  A    between atoms: C5_6  and  C6_7 
REMARK    6  A    between atoms: C6_7  and  C7_8 
REMARK    7  A    between atoms: C7_8  and  C8_9 
REMARK    8  A    between atoms: C8_9  and  O3_11 
REMARK    9  A    between atoms: C15_19  and  C16_20 
REMARK   10  A    between atoms: C16_20  and  O5_22 
ROOT
HETATM    1  C5  UNL     1      25.691   0.898  52.345  1.00  0.00    -0.047 C 
HETATM    2  C9  UNL     1      24.549   1.631  51.859  1.00  0.00    -0.005 C 
HETATM    3  C10 UNL     1      24.522   2.805  51.274  1.00  0.00     0.003 C 
HETATM    4  C11 UNL     1      24.008   2.833  50.050  1.00  0.00     0.101 C 
HETATM    5  N1  UNL     1      22.626   2.429  49.925  1.00  0.00    -0.364 N 
HETATM    6  C12 UNL     1      22.157   1.500  50.925  1.00  0.00     0.043 A 
HETATM    7  C13 UNL     1      20.892   0.993  51.037  1.00  0.00     0.031 A 
HETATM    8  C14 UNL     1      20.582   0.128  52.073  1.00  0.00     0.020 A 
HETATM    9  C15 UNL     1      21.519  -0.260  53.030  1.00  0.00     0.038 A 
HETATM   10  C17 UNL     1      22.769   0.290  52.850  1.00  0.00     0.032 A 
HETATM   11  C18 UNL     1      23.145   1.168  51.823  1.00  0.00     0.003 A 
HETATM   12  H15 UNL     1      21.931   2.726  49.203  1.00  0.00     0.165 HD
ENDROOT
BRANCH   1  13
HETATM   13  C4  UNL     1      25.845  -0.371  52.808  1.00  0.00     0.007 C 
BRANCH  13  14
HETATM   14  C3  UNL     1      26.443  -1.600  53.336  1.00  0.00     0.195 C 
BRANCH  14  15
HETATM   15  O1  UNL     1      27.333  -2.261  52.521  1.00  0.00    -0.388 OA
BRANCH  15  16
HETATM   16  C2  UNL     1      28.542  -2.600  53.036  1.00  0.00     0.163 C 
HETATM   17  C1  UNL     1      29.411  -1.386  53.355  1.00  0.00     0.033 C 
ENDBRANCH  15  16
ENDBRANCH  14  15
ENDBRANCH  13  14
ENDBRANCH   1  13
BRANCH   1  18
HETATM   18  C6  UNL     1      26.887   1.779  52.427  1.00  0.00     0.049 C 
BRANCH  18  19
HETATM   19  C7  UNL     1      27.193   2.301  53.775  1.00  0.00     0.114 C 
BRANCH  19  20
HETATM   20  C8  UNL     1      28.709   2.371  53.908  1.00  0.00     0.139 C 
HETATM   21  O2  UNL     1      29.351   1.844  54.878  1.00  0.00    -0.650 OA
BRANCH  20  22
HETATM   22  O3  UNL     1      29.338   3.065  52.871  1.00  0.00    -0.776 OA
HETATM   23  H13 UNL     1      28.995   4.004  52.655  1.00  0.00     0.167 HD
ENDBRANCH  20  22
ENDBRANCH  19  20
ENDBRANCH  18  19
ENDBRANCH   1  18
BRANCH   9  24
HETATM   24  C16 UNL     1      21.218  -1.165  54.125  1.00  0.00     0.176 C 
HETATM   25  O4  UNL     1      20.173  -1.856  54.080  1.00  0.00    -0.646 OA
BRANCH  24  26
HETATM   26  O5  UNL     1      22.098  -1.228  55.176  1.00  0.00    -0.773 OA
HETATM   27  H18 UNL     1      21.957  -1.880  55.963  1.00  0.00     0.167 HD
ENDBRANCH  24  26
ENDBRANCH   9  24
TORSDOF 10
ENDMDL
MODEL 7
REMARK VINA RESULT:      -7.5      2.790      5.254
REMARK  10 active torsions:
REMARK  status: ('A' for Active; 'I' for Inactive)
REMARK    1  A    between atoms: C2_2  and  O1_3 
REMARK    2  A    between atoms: O1_3  and  C3_4 
REMARK    3  A    between atoms: C3_4  and  C4_5 
REMARK    4  A    between atoms: C4_5  and  C5_6 
REMARK    5  A    between atoms: C5_6  and  C6_7 
REMARK    6  A    between atoms: C6_7  and  C7_8 
REMARK    7  A    between atoms: C7_8  and  C8_9 
REMARK    8  A    between atoms: C8_9  and  O3_11 
REMARK    9  A    between atoms: C15_19  and  C16_20 
REMARK   10  A    between atoms: C16_20  and  O5_22 
ROOT
HETATM    1  C5  UNL     1      25.213   1.134  52.324  1.00  0.00    -0.047 C 
HETATM    2  C9  UNL     1      24.675   0.046  53.102  1.00  0.00    -0.005 C 
HETATM    3  C10 UNL     1      25.323  -0.850  53.808  1.00  0.00     0.003 C 
HETATM    4  C11 UNL     1      25.036  -0.887  55.105  1.00  0.00     0.101 C 
HETATM    5  N1  UNL     1      23.668  -1.197  55.450  1.00  0.00    -0.364 N 
HETATM    6  C12 UNL     1      22.679  -0.834  54.463  1.00  0.00     0.043 A 
HETATM    7  C13 UNL     1      21.331  -1.046  54.543  1.00  0.00     0.031 A 
HETATM    8  C14 UNL     1      20.506  -0.666  53.498  1.00  0.00     0.020 A 
HETATM    9  C15 UNL     1      20.996  -0.064  52.340  1.00  0.00     0.038 A 
HETATM   10  C17 UNL     1      22.362   0.118  52.333  1.00  0.00     0.032 A 
HETATM   11  C18 UNL     1      23.248  -0.243  53.359  1.00  0.00     0.003 A 
HETATM   12  H15 UNL     1      23.310  -1.649  56.322  1.00  0.00     0.165 HD
ENDROOT
BRANCH   1  13
HETATM   13  C4  UNL     1      24.637   2.197  51.701  1.00  0.00     0.007 C 
BRANCH  13  14
HETATM   14  C3  UNL     1      24.089   3.077  50.666  1.00  0.00     0.195 C 
BRANCH  14  15
HETATM   15  O1  UNL     1      22.718   3.167  50.585  1.00  0.00    -0.388 OA
BRANCH  15  16
HETATM   16  C2  UNL     1      22.108   4.205  51.211  1.00  0.00     0.163 C 
HETATM   17  C1  UNL     1      21.141   3.752  52.302  1.00  0.00     0.033 C 
ENDBRANCH  15  16
ENDBRANCH  14  15
ENDBRANCH  13  14
ENDBRANCH   1  13
BRANCH   1  18
HETATM   18  C6  UNL     1      26.675   0.957  52.109  1.00  0.00     0.049 C 
BRANCH  18  19
HETATM   19  C7  UNL     1      27.524   2.043  52.637  1.00  0.00     0.114 C 
BRANCH  19  20
HETATM   20  C8  UNL     1      28.478   1.429  53.654  1.00  0.00     0.139 C 
HETATM   21  O2  UNL     1      28.127   1.118  54.842  1.00  0.00    -0.650 OA
BRANCH  20  22
HETATM   22  O3  UNL     1      29.774   1.234  53.171  1.00  0.00    -0.776 OA
HETATM   23  H13 UNL     1      30.550   1.434  53.806  1.00  0.00     0.167 HD
ENDBRANCH  20  22
ENDBRANCH  19  20
ENDBRANCH  18  19
ENDBRANCH   1  18
BRANCH   9  24
HETATM   24  C16 UNL     1      20.152   0.343  51.230  1.00  0.00     0.176 C 
HETATM   25  O4  UNL     1      18.926   0.083  51.264  1.00  0.00    -0.646 OA
BRANCH  24  26
HETATM   26  O5  UNL     1      20.736   1.002  50.177  1.00  0.00    -0.773 OA
HETATM   27  H18 UNL     1      20.468   0.808  49.200  1.00  0.00     0.167 HD
ENDBRANCH  24  26
ENDBRANCH   9  24
TORSDOF 10
ENDMDL
MODEL 8
REMARK VINA RESULT:      -7.1      2.540      4.981
REMARK  10 active torsions:
REMARK  status: ('A' for Active; 'I' for Inactive)
REMARK    1  A    between atoms: C2_2  and  O1_3 
REMARK    2  A    between atoms: O1_3  and  C3_4 
REMARK    3  A    between atoms: C3_4  and  C4_5 
REMARK    4  A    between atoms: C4_5  and  C5_6 
REMARK    5  A    between atoms: C5_6  and  C6_7 
REMARK    6  A    between atoms: C6_7  and  C7_8 
REMARK    7  A    between atoms: C7_8  and  C8_9 
REMARK    8  A    between atoms: C8_9  and  O3_11 
REMARK    9  A    between atoms: C15_19  and  C16_20 
REMARK   10  A    between atoms: C16_20  and  O5_22 
ROOT
HETATM    1  C5  UNL     1      23.484   2.486  51.102  1.00  0.00    -0.047 C 
HETATM    2  C9  UNL     1      23.397   1.660  52.280  1.00  0.00    -0.005 C 
HETATM    3  C10 UNL     1      22.322   1.199  52.875  1.00  0.00     0.003 C 
HETATM    4  C11 UNL     1      22.226  -0.123  52.962  1.00  0.00     0.101 C 
HETATM    5  N1  UNL     1      23.266  -0.793  53.709  1.00  0.00    -0.364 N 
HETATM    6  C12 UNL     1      24.542  -0.119  53.741  1.00  0.00     0.043 A 
HETATM    7  C13 UNL     1      25.667  -0.534  54.398  1.00  0.00     0.031 A 
HETATM    8  C14 UNL     1      26.816   0.237  54.360  1.00  0.00     0.020 A 
HETATM    9  C15 UNL     1      26.883   1.445  53.668  1.00  0.00     0.038 A 
HETATM   10  C17 UNL     1      25.713   1.796  53.031  1.00  0.00     0.032 A 
HETATM   11  C18 UNL     1      24.520   1.058  53.030  1.00  0.00     0.003 A 
HETATM   12  H15 UNL     1      23.206  -1.700  54.225  1.00  0.00     0.165 HD
ENDROOT
BRANCH   1  13
HETATM   13  C4  UNL     1      24.529   2.875  50.323  1.00  0.00     0.007 C 
BRANCH  13  14
HETATM   14  C3  UNL     1      25.645   3.648  49.771  1.00  0.00     0.195 C 
BRANCH  14  15
HETATM   15  O1  UNL     1      25.568   5.018  49.879  1.00  0.00    -0.388 OA
BRANCH  15  16
HETATM   16  C2  UNL     1      26.347   5.768  49.059  1.00  0.00     0.163 C 
HETATM   17  C1  UNL     1      27.603   5.032  48.599  1.00  0.00     0.033 C 
ENDBRANCH  15  16
ENDBRANCH  14  15
ENDBRANCH  13  14
ENDBRANCH   1  13
BRANCH   1  18
HETATM   18  C6  UNL     1      22.161   3.083  50.776  1.00  0.00     0.049 C 
BRANCH  18  19
HETATM   19  C7  UNL     1      21.764   4.231  51.617  1.00  0.00     0.114 C 
BRANCH  19  20
HETATM   20  C8  UNL     1      22.172   5.501  50.883  1.00  0.00     0.139 C 
HETATM   21  O2  UNL     1      21.817   5.760  49.684  1.00  0.00    -0.650 OA
BRANCH  20  22
HETATM   22  O3  UNL     1      22.970   6.362  51.639  1.00  0.00    -0.776 OA
HETATM   23  H13 UNL     1      23.100   7.315  51.291  1.00  0.00     0.167 HD
ENDBRANCH  20  22
ENDBRANCH  19  20
ENDBRANCH  18  19
ENDBRANCH   1  18
BRANCH   9  24
HETATM   24  C16 UNL     1      28.076   2.273  53.613  1.00  0.00     0.176 C 
HETATM   25  O4  UNL     1      28.828   2.329  54.614  1.00  0.00    -0.646 OA
BRANCH  24  26
HETATM   26  O5  UNL     1      28.333   2.966  52.457  1.00  0.00    -0.773 OA
HETATM   27  H18 UNL     1      29.290   3.258  52.202  1.00  0.00     0.167 HD
ENDBRANCH  24  26
ENDBRANCH   9  24
TORSDOF 10
ENDMDL
MODEL 9
REMARK VINA RESULT:      -7.1      2.480      4.520
REMARK  10 active torsions:
REMARK  status: ('A' for Active; 'I' for Inactive)
REMARK    1  A    between atoms: C2_2  and  O1_3 
REMARK    2  A    between atoms: O1_3  and  C3_4 
REMARK    3  A    between atoms: C3_4  and  C4_5 
REMARK    4  A    between atoms: C4_5  and  C5_6 
REMARK    5  A    between atoms: C5_6  and  C6_7 
REMARK    6  A    between atoms: C6_7  and  C7_8 
REMARK    7  A    between atoms: C7_8  and  C8_9 
REMARK    8  A    between atoms: C8_9  and  O3_11 
REMARK    9  A    between atoms: C15_19  and  C16_20 
REMARK   10  A    between atoms: C16_20  and  O5_22 
ROOT
HETATM    1  C5  UNL     1      24.196   2.389  51.399  1.00  0.00    -0.047 C 
HETATM    2  C9  UNL     1      24.948   1.302  51.974  1.00  0.00    -0.005 C 
HETATM    3  C10 UNL     1      26.156   0.894  51.666  1.00  0.00     0.003 C 
HETATM    4  C11 UNL     1      27.049   0.925  52.649  1.00  0.00     0.101 C 
HETATM    5  N1  UNL     1      26.762   0.100  53.801  1.00  0.00    -0.364 N 
HETATM    6  C12 UNL     1      25.364  -0.155  54.051  1.00  0.00     0.043 A 
HETATM    7  C13 UNL     1      24.842  -0.923  55.055  1.00  0.00     0.031 A 
HETATM    8  C14 UNL     1      23.472  -1.099  55.152  1.00  0.00     0.020 A 
HETATM    9  C15 UNL     1      22.578  -0.519  54.253  1.00  0.00     0.038 A 
HETATM   10  C17 UNL     1      23.177   0.239  53.272  1.00  0.00     0.032 A 
HETATM   11  C18 UNL     1      24.555   0.457  53.123  1.00  0.00     0.003 A 
HETATM   12  H15 UNL     1      27.441  -0.330  54.469  1.00  0.00     0.165 HD
ENDROOT
BRANCH   1  13
HETATM   13  C4  UNL     1      23.026   2.988  51.749  1.00  0.00     0.007 C 
BRANCH  13  14
HETATM   14  C3  UNL     1      21.600   3.309  51.852  1.00  0.00     0.195 C 
BRANCH  14  15
HETATM   15  O1  UNL     1      20.787   2.871  50.831  1.00  0.00    -0.388 OA
BRANCH  15  16
HETATM   16  C2  UNL     1      20.598   1.534  50.692  1.00  0.00     0.163 C 
HETATM   17  C1  UNL     1      21.205   0.982  49.405  1.00  0.00     0.033 C 
ENDBRANCH  15  16
ENDBRANCH  14  15
ENDBRANCH  13  14
ENDBRANCH   1  13
BRANCH   1  18
HETATM   18  C6  UNL     1      24.812   2.841  50.123  1.00  0.00     0.049 C 
BRANCH  18  19
HETATM   19  C7  UNL     1      24.803   4.302  49.903  1.00  0.00     0.114 C 
BRANCH  19  20
HETATM   20  C8  UNL     1      26.250   4.752  49.748  1.00  0.00     0.139 C 
HETATM   21  O2  UNL     1      27.190   3.970  49.380  1.00  0.00    -0.650 OA
BRANCH  20  22
HETATM   22  O3  UNL     1      26.459   6.101  50.045  1.00  0.00    -0.776 OA
HETATM   23  H13 UNL     1      25.990   6.793  49.455  1.00  0.00     0.167 HD
ENDBRANCH  20  22
ENDBRANCH  19  20
ENDBRANCH  18  19
ENDBRANCH   1  18
BRANCH   9  24
HETATM   24  C16 UNL     1      21.138  -0.690  54.333  1.00  0.00     0.176 C 
HETATM   25  O4  UNL     1      20.389   0.264  54.015  1.00  0.00    -0.646 OA
BRANCH  24  26
HETATM   26  O5  UNL     1      20.649  -1.900  54.758  1.00  0.00    -0.773 OA
HETATM   27  H18 UNL     1      20.881  -2.282  55.688  1.00  0.00     0.167 HD
ENDBRANCH  24  26
ENDBRANCH   9  24
TORSDOF 10
ENDMDL
