MODEL 1
REMARK VINA RESULT:      -7.1      0.000      0.000
REMARK  7 active torsions:
REMARK  status: ('A' for Active; 'I' for Inactive)
REMARK    1  A    between atoms: O1_2  and  C2_3 
REMARK    2  A    between atoms: C3_5  and  C4_6 
REMARK    3  A    between atoms: C4_6  and  C5_7 
REMARK    4  A    between atoms: C5_7  and  O2_8 
REMARK    5  A    between atoms: C6_9  and  C7_10 
REMARK    6  A    between atoms: C11_16  and  O3_17 
REMARK    7  A    between atoms: C13_19  and  O4_20 
ROOT
HETATM    1  C7  UNL     1      27.122   1.909  52.391  1.00  0.00     0.076 A 
HETATM    2  N1  UNL     1      28.362   2.324  52.793  1.00  0.00    -0.241 NA
HETATM    3  C8  UNL     1      28.856   1.859  53.946  1.00  0.00     0.234 A 
HETATM    4  N2  UNL     1      28.173   1.002  54.710  1.00  0.00    -0.238 NA
HETATM    5  C9  UNL     1      26.963   0.531  54.423  1.00  0.00     0.109 A 
HETATM    6  C10 UNL     1      26.491   1.033  53.232  1.00  0.00     0.061 A 
HETATM    7  C11 UNL     1      25.310   0.398  53.224  1.00  0.00     0.118 A 
HETATM    8  C13 UNL     1      25.804  -0.138  54.488  1.00  0.00     0.132 A 
ENDROOT
BRANCH   1   9
HETATM    9  C6  UNL     1      26.619   2.440  51.130  1.00  0.00     0.065 C 
HETATM   10  C5  UNL     1      25.679   3.350  50.828  1.00  0.00     0.049 C 
BRANCH  10  11
HETATM   11  C4  UNL     1      25.298   3.770  49.457  1.00  0.00     0.096 C 
BRANCH  11  12
HETATM   12  C3  UNL     1      26.033   5.031  49.141  1.00  0.00     0.049 C 
HETATM   13  C2  UNL     1      27.279   5.045  48.698  1.00  0.00     0.221 C 
HETATM   14  F1  UNL     1      28.506   4.658  48.280  1.00  0.00    -0.179 F 
BRANCH  13  15
HETATM   15  O1  UNL     1      28.079   6.158  48.365  1.00  0.00    -0.332 OA
HETATM   16  C1  UNL     1      29.421   6.033  47.934  1.00  0.00     0.212 C 
ENDBRANCH  13  15
ENDBRANCH  11  12
ENDBRANCH  10  11
BRANCH  10  17
HETATM   17  O2  UNL     1      24.869   4.092  51.673  1.00  0.00    -0.365 OA
HETATM   18  H7  UNL     1      23.868   4.097  51.674  1.00  0.00     0.217 HD
ENDBRANCH  10  17
ENDBRANCH   1   9
BRANCH   7  19
HETATM   19  O3  UNL     1      24.090   0.072  52.697  1.00  0.00    -0.352 OA
HETATM   20  C12 UNL     1      23.106   1.072  52.392  1.00  0.00     0.210 C 
ENDBRANCH   7  19
BRANCH   8  21
HETATM   21  O4  UNL     1      25.503  -0.976  55.554  1.00  0.00    -0.351 OA
HETATM   22  C14 UNL     1      24.164  -1.354  55.854  1.00  0.00     0.210 C 
ENDBRANCH   8  21
TORSDOF 7
ENDMDL
MODEL 2
REMARK VINA RESULT:      -7.0      3.057      6.631
REMARK  7 active torsions:
REMARK  status: ('A' for Active; 'I' for Inactive)
REMARK    1  A    between atoms: O1_2  and  C2_3 
REMARK    2  A    between atoms: C3_5  and  C4_6 
REMARK    3  A    between atoms: C4_6  and  C5_7 
REMARK    4  A    between atoms: C5_7  and  O2_8 
REMARK    5  A    between atoms: C6_9  and  C7_10 
REMARK    6  A    between atoms: C11_16  and  O3_17 
REMARK    7  A    between atoms: C13_19  and  O4_20 
ROOT
HETATM    1  C7  UNL     1      25.972   0.091  53.875  1.00  0.00     0.076 A 
HETATM    2  N1  UNL     1      27.092  -0.249  54.581  1.00  0.00    -0.241 NA
HETATM    3  C8  UNL     1      28.258   0.320  54.257  1.00  0.00     0.234 A 
HETATM    4  N2  UNL     1      28.356   1.210  53.265  1.00  0.00    -0.238 NA
HETATM    5  C9  UNL     1      27.339   1.618  52.512  1.00  0.00     0.109 A 
HETATM    6  C10 UNL     1      26.159   1.009  52.876  1.00  0.00     0.061 A 
HETATM    7  C11 UNL     1      25.364   1.602  51.975  1.00  0.00     0.118 A 
HETATM    8  C13 UNL     1      26.611   2.251  51.582  1.00  0.00     0.132 A 
ENDROOT
BRANCH   1   9
HETATM    9  C6  UNL     1      24.721  -0.552  54.258  1.00  0.00     0.065 C 
HETATM   10  C5  UNL     1      24.316  -1.174  55.377  1.00  0.00     0.049 C 
BRANCH  10  11
HETATM   11  C4  UNL     1      22.977  -1.779  55.588  1.00  0.00     0.096 C 
BRANCH  11  12
HETATM   12  C3  UNL     1      22.092  -1.339  54.469  1.00  0.00     0.049 C 
HETATM   13  C2  UNL     1      21.229  -0.344  54.584  1.00  0.00     0.221 C 
HETATM   14  F1  UNL     1      20.498   0.683  55.078  1.00  0.00    -0.179 F 
BRANCH  13  15
HETATM   15  O1  UNL     1      20.344   0.167  53.611  1.00  0.00    -0.332 OA
HETATM   16  C1  UNL     1      20.698   0.291  52.247  1.00  0.00     0.212 C 
ENDBRANCH  13  15
ENDBRANCH  11  12
ENDBRANCH  10  11
BRANCH  10  17
HETATM   17  O2  UNL     1      25.005  -1.397  56.559  1.00  0.00    -0.365 OA
HETATM   18  H7  UNL     1      24.784  -2.088  57.247  1.00  0.00     0.217 HD
ENDBRANCH  10  17
ENDBRANCH   1   9
BRANCH   7  19
HETATM   19  O3  UNL     1      24.167   1.846  51.359  1.00  0.00    -0.352 OA
HETATM   20  C12 UNL     1      23.306   2.917  51.776  1.00  0.00     0.210 C 
ENDBRANCH   7  19
BRANCH   8  21
HETATM   21  O4  UNL     1      27.183   3.159  50.701  1.00  0.00    -0.351 OA
HETATM   22  C14 UNL     1      26.503   3.592  49.527  1.00  0.00     0.210 C 
ENDBRANCH   8  21
TORSDOF 7
ENDMDL
MODEL 3
REMARK VINA RESULT:      -6.8      3.759      6.986
REMARK  7 active torsions:
REMARK  status: ('A' for Active; 'I' for Inactive)
REMARK    1  A    between atoms: O1_2  and  C2_3 
REMARK    2  A    between atoms: C3_5  and  C4_6 
REMARK    3  A    between atoms: C4_6  and  C5_7 
REMARK    4  A    between atoms: C5_7  and  O2_8 
REMARK    5  A    between atoms: C6_9  and  C7_10 
REMARK    6  A    between atoms: C11_16  and  O3_17 
REMARK    7  A    between atoms: C13_19  and  O4_20 
ROOT
HETATM    1  C7  UNL     1      24.882  -0.001  53.699  1.00  0.00     0.076 A 
HETATM    2  N1  UNL     1      25.781  -0.456  54.624  1.00  0.00    -0.241 NA
HETATM    3  C8  UNL     1      27.046  -0.024  54.563  1.00  0.00     0.234 A 
HETATM    4  N2  UNL     1      27.451   0.838  53.626  1.00  0.00    -0.238 NA
HETATM    5  C9  UNL     1      26.670   1.346  52.677  1.00  0.00     0.109 A 
HETATM    6  C10 UNL     1      25.379   0.877  52.775  1.00  0.00     0.061 A 
HETATM    7  C11 UNL     1      24.866   1.544  51.731  1.00  0.00     0.118 A 
HETATM    8  C13 UNL     1      26.232   2.045  51.621  1.00  0.00     0.132 A 
ENDROOT
BRANCH   1   9
HETATM    9  C6  UNL     1      23.515  -0.497  53.800  1.00  0.00     0.065 C 
HETATM   10  C5  UNL     1      22.856  -1.182  54.748  1.00  0.00     0.049 C 
BRANCH  10  11
HETATM   11  C4  UNL     1      21.436  -1.606  54.672  1.00  0.00     0.096 C 
BRANCH  11  12
HETATM   12  C3  UNL     1      20.754  -0.750  53.657  1.00  0.00     0.049 C 
HETATM   13  C2  UNL     1      19.461  -0.837  53.394  1.00  0.00     0.221 C 
HETATM   14  F1  UNL     1      18.161  -1.215  53.410  1.00  0.00    -0.179 F 
BRANCH  13  15
HETATM   15  O1  UNL     1      18.702  -0.092  52.467  1.00  0.00    -0.332 OA
HETATM   16  C1  UNL     1      19.288   0.608  51.387  1.00  0.00     0.212 C 
ENDBRANCH  13  15
ENDBRANCH  11  12
ENDBRANCH  10  11
BRANCH  10  17
HETATM   17  O2  UNL     1      23.307  -1.642  55.975  1.00  0.00    -0.365 OA
HETATM   18  H7  UNL     1      24.157  -1.371  56.429  1.00  0.00     0.217 HD
ENDBRANCH  10  17
ENDBRANCH   1   9
BRANCH   7  19
HETATM   19  O3  UNL     1      23.862   1.911  50.878  1.00  0.00    -0.352 OA
HETATM   20  C12 UNL     1      22.614   2.436  51.357  1.00  0.00     0.210 C 
ENDBRANCH   7  19
BRANCH   8  21
HETATM   21  O4  UNL     1      27.076   2.872  50.893  1.00  0.00    -0.351 OA
HETATM   22  C14 UNL     1      26.591   3.687  49.830  1.00  0.00     0.210 C 
ENDBRANCH   8  21
TORSDOF 7
ENDMDL
MODEL 4
REMARK VINA RESULT:      -6.7      3.537      5.253
REMARK  7 active torsions:
REMARK  status: ('A' for Active; 'I' for Inactive)
REMARK    1  A    between atoms: O1_2  and  C2_3 
REMARK    2  A    between atoms: C3_5  and  C4_6 
REMARK    3  A    between atoms: C4_6  and  C5_7 
REMARK    4  A    between atoms: C5_7  and  O2_8 
REMARK    5  A    between atoms: C6_9  and  C7_10 
REMARK    6  A    between atoms: C11_16  and  O3_17 
REMARK    7  A    between atoms: C13_19  and  O4_20 
ROOT
HETATM    1  C7  UNL     1      23.446  -0.130  53.486  1.00  0.00     0.076 A 
HETATM    2  N1  UNL     1      23.985  -0.795  54.553  1.00  0.00    -0.241 NA
HETATM    3  C8  UNL     1      23.171  -1.471  55.371  1.00  0.00     0.234 A 
HETATM    4  N2  UNL     1      21.850  -1.513  55.174  1.00  0.00    -0.238 NA
HETATM    5  C9  UNL     1      21.215  -0.908  54.174  1.00  0.00     0.109 A 
HETATM    6  C10 UNL     1      22.087  -0.225  53.357  1.00  0.00     0.061 A 
HETATM    7  C11 UNL     1      21.183   0.252  52.488  1.00  0.00     0.118 A 
HETATM    8  C13 UNL     1      20.253  -0.469  53.351  1.00  0.00     0.132 A 
ENDROOT
BRANCH   1   9
HETATM    9  C6  UNL     1      24.367   0.594  52.618  1.00  0.00     0.065 C 
HETATM   10  C5  UNL     1      24.547   1.899  52.359  1.00  0.00     0.049 C 
BRANCH  10  11
HETATM   11  C4  UNL     1      25.557   2.460  51.427  1.00  0.00     0.096 C 
BRANCH  11  12
HETATM   12  C3  UNL     1      26.864   1.796  51.712  1.00  0.00     0.049 C 
HETATM   13  C2  UNL     1      27.640   2.143  52.726  1.00  0.00     0.221 C 
HETATM   14  F1  UNL     1      28.132   2.762  53.824  1.00  0.00    -0.179 F 
BRANCH  13  15
HETATM   15  O1  UNL     1      28.886   1.599  53.102  1.00  0.00    -0.332 OA
HETATM   16  C1  UNL     1      29.142   1.103  54.402  1.00  0.00     0.212 C 
ENDBRANCH  13  15
ENDBRANCH  11  12
ENDBRANCH  10  11
BRANCH  10  17
HETATM   17  O2  UNL     1      23.874   2.999  52.869  1.00  0.00    -0.365 OA
HETATM   18  H7  UNL     1      23.242   3.587  52.363  1.00  0.00     0.217 HD
ENDBRANCH  10  17
ENDBRANCH   1   9
BRANCH   7  19
HETATM   19  O3  UNL     1      20.788   0.959  51.386  1.00  0.00    -0.352 OA
HETATM   20  C12 UNL     1      21.532   0.927  50.159  1.00  0.00     0.210 C 
ENDBRANCH   7  19
BRANCH   8  21
HETATM   21  O4  UNL     1      18.917  -0.788  53.555  1.00  0.00    -0.351 OA
HETATM   22  C14 UNL     1      18.003  -0.910  52.469  1.00  0.00     0.210 C 
ENDBRANCH   8  21
TORSDOF 7
ENDMDL
MODEL 5
REMARK VINA RESULT:      -6.7      1.487      1.720
REMARK  7 active torsions:
REMARK  status: ('A' for Active; 'I' for Inactive)
REMARK    1  A    between atoms: O1_2  and  C2_3 
REMARK    2  A    between atoms: C3_5  and  C4_6 
REMARK    3  A    between atoms: C4_6  and  C5_7 
REMARK    4  A    between atoms: C5_7  and  O2_8 
REMARK    5  A    between atoms: C6_9  and  C7_10 
REMARK    6  A    between atoms: C11_16  and  O3_17 
REMARK    7  A    between atoms: C13_19  and  O4_20 
ROOT
HETATM    1  C7  UNL     1      26.092   1.039  52.426  1.00  0.00     0.076 A 
HETATM    2  N1  UNL     1      27.312   0.769  52.983  1.00  0.00    -0.241 NA
HETATM    3  C8  UNL     1      27.374  -0.050  54.038  1.00  0.00     0.234 A 
HETATM    4  N2  UNL     1      26.278  -0.611  54.559  1.00  0.00    -0.238 NA
HETATM    5  C9  UNL     1      25.043  -0.423  54.104  1.00  0.00     0.109 A 
HETATM    6  C10 UNL     1      25.023   0.425  53.020  1.00  0.00     0.061 A 
HETATM    7  C11 UNL     1      23.700   0.411  52.805  1.00  0.00     0.118 A 
HETATM    8  C13 UNL     1      23.713  -0.489  53.954  1.00  0.00     0.132 A 
ENDROOT
BRANCH   1   9
HETATM    9  C6  UNL     1      26.068   1.937  51.278  1.00  0.00     0.065 C 
HETATM   10  C5  UNL     1      25.469   3.117  51.050  1.00  0.00     0.049 C 
BRANCH  10  11
HETATM   11  C4  UNL     1      25.562   3.900  49.792  1.00  0.00     0.096 C 
BRANCH  11  12
HETATM   12  C3  UNL     1      26.981   3.857  49.329  1.00  0.00     0.049 C 
HETATM   13  C2  UNL     1      27.554   4.853  48.673  1.00  0.00     0.221 C 
HETATM   14  F1  UNL     1      27.772   6.035  48.052  1.00  0.00    -0.179 F 
BRANCH  13  15
HETATM   15  O1  UNL     1      28.875   4.937  48.186  1.00  0.00    -0.332 OA
HETATM   16  C1  UNL     1      29.637   6.128  48.246  1.00  0.00     0.212 C 
ENDBRANCH  13  15
ENDBRANCH  11  12
ENDBRANCH  10  11
BRANCH  10  17
HETATM   17  O2  UNL     1      24.654   3.866  51.884  1.00  0.00    -0.365 OA
HETATM   18  H7  UNL     1      24.898   4.734  52.319  1.00  0.00     0.217 HD
ENDBRANCH  10  17
ENDBRANCH   1   9
BRANCH   7  19
HETATM   19  O3  UNL     1      22.555   0.769  52.147  1.00  0.00    -0.352 OA
HETATM   20  C12 UNL     1      21.801   1.933  52.518  1.00  0.00     0.210 C 
ENDBRANCH   7  19
BRANCH   8  21
HETATM   21  O4  UNL     1      22.920  -1.257  54.796  1.00  0.00    -0.351 OA
HETATM   22  C14 UNL     1      21.649  -1.749  54.384  1.00  0.00     0.210 C 
ENDBRANCH   8  21
TORSDOF 7
ENDMDL
MODEL 6
REMARK VINA RESULT:      -6.5      2.100      3.239
REMARK  7 active torsions:
REMARK  status: ('A' for Active; 'I' for Inactive)
REMARK    1  A    between atoms: O1_2  and  C2_3 
REMARK    2  A    between atoms: C3_5  and  C4_6 
REMARK    3  A    between atoms: C4_6  and  C5_7 
REMARK    4  A    between atoms: C5_7  and  O2_8 
REMARK    5  A    between atoms: C6_9  and  C7_10 
REMARK    6  A    between atoms: C11_16  and  O3_17 
REMARK    7  A    between atoms: C13_19  and  O4_20 
ROOT
HETATM    1  C7  UNL     1      26.603   2.058  52.305  1.00  0.00     0.076 A 
HETATM    2  N1  UNL     1      27.899   2.449  52.504  1.00  0.00    -0.241 NA
HETATM    3  C8  UNL     1      28.578   1.935  53.536  1.00  0.00     0.234 A 
HETATM    4  N2  UNL     1      28.024   1.053  54.373  1.00  0.00    -0.238 NA
HETATM    5  C9  UNL     1      26.778   0.601  54.280  1.00  0.00     0.109 A 
HETATM    6  C10 UNL     1      26.114   1.153  53.208  1.00  0.00     0.061 A 
HETATM    7  C11 UNL     1      24.941   0.526  53.379  1.00  0.00     0.118 A 
HETATM    8  C13 UNL     1      25.638  -0.063  54.518  1.00  0.00     0.132 A 
ENDROOT
BRANCH   1   9
HETATM    9  C6  UNL     1      25.898   2.642  51.171  1.00  0.00     0.065 C 
HETATM   10  C5  UNL     1      26.261   3.513  50.216  1.00  0.00     0.049 C 
BRANCH  10  11
HETATM   11  C4  UNL     1      25.388   4.001  49.119  1.00  0.00     0.096 C 
BRANCH  11  12
HETATM   12  C3  UNL     1      23.978   3.652  49.465  1.00  0.00     0.049 C 
HETATM   13  C2  UNL     1      23.214   2.897  48.693  1.00  0.00     0.221 C 
HETATM   14  F1  UNL     1      22.769   2.123  47.677  1.00  0.00    -0.179 F 
BRANCH  13  15
HETATM   15  O1  UNL     1      21.878   2.496  48.905  1.00  0.00    -0.332 OA
HETATM   16  C1  UNL     1      21.458   1.149  48.798  1.00  0.00     0.212 C 
ENDBRANCH  13  15
ENDBRANCH  11  12
ENDBRANCH  10  11
BRANCH  10  17
HETATM   17  O2  UNL     1      27.479   4.146  50.018  1.00  0.00    -0.365 OA
HETATM   18  H7  UNL     1      27.970   4.217  49.149  1.00  0.00     0.217 HD
ENDBRANCH  10  17
ENDBRANCH   1   9
BRANCH   7  19
HETATM   19  O3  UNL     1      23.645   0.229  53.058  1.00  0.00    -0.352 OA
HETATM   20  C12 UNL     1      22.742   1.226  52.556  1.00  0.00     0.210 C 
ENDBRANCH   7  19
BRANCH   8  21
HETATM   21  O4  UNL     1      25.514  -0.941  55.587  1.00  0.00    -0.351 OA
HETATM   22  C14 UNL     1      24.256  -1.498  55.956  1.00  0.00     0.210 C 
ENDBRANCH   8  21
TORSDOF 7
ENDMDL
MODEL 7
REMARK VINA RESULT:      -6.5      3.049      4.829
REMARK  7 active torsions:
REMARK  status: ('A' for Active; 'I' for Inactive)
REMARK    1  A    between atoms: O1_2  and  C2_3 
REMARK    2  A    between atoms: C3_5  and  C4_6 
REMARK    3  A    between atoms: C4_6  and  C5_7 
REMARK    4  A    between atoms: C5_7  and  O2_8 
REMARK    5  A    between atoms: C6_9  and  C7_10 
REMARK    6  A    between atoms: C11_16  and  O3_17 
REMARK    7  A    between atoms: C13_19  and  O4_20 
ROOT
HETATM    1  C7  UNL     1      23.506  -0.115  53.554  1.00  0.00     0.076 A 
HETATM    2  N1  UNL     1      23.864  -0.864  54.640  1.00  0.00    -0.241 NA
HETATM    3  C8  UNL     1      22.908  -1.486  55.340  1.00  0.00     0.234 A 
HETATM    4  N2  UNL     1      21.618  -1.394  55.005  1.00  0.00    -0.238 NA
HETATM    5  C9  UNL     1      21.152  -0.697  53.973  1.00  0.00     0.109 A 
HETATM    6  C10 UNL     1      22.165  -0.073  53.281  1.00  0.00     0.061 A 
HETATM    7  C11 UNL     1      21.408   0.517  52.345  1.00  0.00     0.118 A 
HETATM    8  C13 UNL     1      20.328  -0.140  53.075  1.00  0.00     0.132 A 
ENDROOT
BRANCH   1   9
HETATM    9  C6  UNL     1      24.577   0.546  52.819  1.00  0.00     0.065 C 
HETATM   10  C5  UNL     1      25.828   0.182  52.496  1.00  0.00     0.049 C 
BRANCH  10  11
HETATM   11  C4  UNL     1      26.793   1.006  51.726  1.00  0.00     0.096 C 
BRANCH  11  12
HETATM   12  C3  UNL     1      26.154   2.328  51.454  1.00  0.00     0.049 C 
HETATM   13  C2  UNL     1      26.447   3.064  50.395  1.00  0.00     0.221 C 
HETATM   14  F1  UNL     1      26.996   3.505  49.240  1.00  0.00    -0.179 F 
BRANCH  13  15
HETATM   15  O1  UNL     1      25.918   4.318  50.026  1.00  0.00    -0.332 OA
HETATM   16  C1  UNL     1      26.494   5.123  49.014  1.00  0.00     0.212 C 
ENDBRANCH  13  15
ENDBRANCH  11  12
ENDBRANCH  10  11
BRANCH  10  17
HETATM   17  O2  UNL     1      26.504  -0.995  52.782  1.00  0.00    -0.365 OA
HETATM   18  H7  UNL     1      27.334  -1.077  53.335  1.00  0.00     0.217 HD
ENDBRANCH  10  17
ENDBRANCH   1   9
BRANCH   7  19
HETATM   19  O3  UNL     1      21.200   1.296  51.240  1.00  0.00    -0.352 OA
HETATM   20  C12 UNL     1      21.435   0.804  49.912  1.00  0.00     0.210 C 
ENDBRANCH   7  19
BRANCH   8  21
HETATM   21  O4  UNL     1      18.954  -0.335  53.125  1.00  0.00    -0.351 OA
HETATM   22  C14 UNL     1      18.168  -0.428  51.941  1.00  0.00     0.210 C 
ENDBRANCH   8  21
TORSDOF 7
ENDMDL
MODEL 8
REMARK VINA RESULT:      -6.5      4.103      6.284
REMARK  7 active torsions:
REMARK  status: ('A' for Active; 'I' for Inactive)
REMARK    1  A    between atoms: O1_2  and  C2_3 
REMARK    2  A    between atoms: C3_5  and  C4_6 
REMARK    3  A    between atoms: C4_6  and  C5_7 
REMARK    4  A    between atoms: C5_7  and  O2_8 
REMARK    5  A    between atoms: C6_9  and  C7_10 
REMARK    6  A    between atoms: C11_16  and  O3_17 
REMARK    7  A    between atoms: C13_19  and  O4_20 
ROOT
HETATM    1  C7  UNL     1      22.812   1.229  51.804  1.00  0.00     0.076 A 
HETATM    2  N1  UNL     1      22.982   1.709  50.535  1.00  0.00    -0.241 NA
HETATM    3  C8  UNL     1      21.963   1.629  49.672  1.00  0.00     0.234 A 
HETATM    4  N2  UNL     1      20.788   1.095  50.018  1.00  0.00    -0.238 NA
HETATM    5  C9  UNL     1      20.506   0.598  51.218  1.00  0.00     0.109 A 
HETATM    6  C10 UNL     1      21.579   0.698  52.075  1.00  0.00     0.061 A 
HETATM    7  C11 UNL     1      21.005   0.139  53.149  1.00  0.00     0.118 A 
HETATM    8  C13 UNL     1      19.864   0.029  52.247  1.00  0.00     0.132 A 
ENDROOT
BRANCH   1   9
HETATM    9  C6  UNL     1      23.947   1.334  52.713  1.00  0.00     0.065 C 
HETATM   10  C5  UNL     1      24.969   2.199  52.807  1.00  0.00     0.049 C 
BRANCH  10  11
HETATM   11  C4  UNL     1      26.051   2.145  53.821  1.00  0.00     0.096 C 
BRANCH  11  12
HETATM   12  C3  UNL     1      26.723   0.816  53.705  1.00  0.00     0.049 C 
HETATM   13  C2  UNL     1      27.775   0.476  54.431  1.00  0.00     0.221 C 
HETATM   14  F1  UNL     1      28.794   0.503  55.321  1.00  0.00    -0.179 F 
BRANCH  13  15
HETATM   15  O1  UNL     1      28.494  -0.737  54.419  1.00  0.00    -0.332 OA
HETATM   16  C1  UNL     1      29.552  -0.988  53.513  1.00  0.00     0.212 C 
ENDBRANCH  13  15
ENDBRANCH  11  12
ENDBRANCH  10  11
BRANCH  10  17
HETATM   17  O2  UNL     1      25.259   3.307  52.025  1.00  0.00    -0.365 OA
HETATM   18  H7  UNL     1      25.563   3.290  51.072  1.00  0.00     0.217 HD
ENDBRANCH  10  17
ENDBRANCH   1   9
BRANCH   7  19
HETATM   19  O3  UNL     1      20.980  -0.297  54.446  1.00  0.00    -0.352 OA
HETATM   20  C12 UNL     1      22.009  -1.144  54.980  1.00  0.00     0.210 C 
ENDBRANCH   7  19
BRANCH   8  21
HETATM   21  O4  UNL     1      18.550  -0.407  52.136  1.00  0.00    -0.351 OA
HETATM   22  C14 UNL     1      17.952  -1.240  53.123  1.00  0.00     0.210 C 
ENDBRANCH   8  21
TORSDOF 7
ENDMDL
MODEL 9
REMARK VINA RESULT:      -6.4      3.903      6.325
REMARK  7 active torsions:
REMARK  status: ('A' for Active; 'I' for Inactive)
REMARK    1  A    between atoms: O1_2  and  C2_3 
REMARK    2  A    between atoms: C3_5  and  C4_6 
REMARK    3  A    between atoms: C4_6  and  C5_7 
REMARK    4  A    between atoms: C5_7  and  O2_8 
REMARK    5  A    between atoms: C6_9  and  C7_10 
REMARK    6  A    between atoms: C11_16  and  O3_17 
REMARK    7  A    between atoms: C13_19  and  O4_20 
ROOT
HETATM    1  C7  UNL     1      23.003   0.887  52.847  1.00  0.00     0.076 A 
HETATM    2  N1  UNL     1      22.679  -0.263  53.513  1.00  0.00    -0.241 NA
HETATM    3  C8  UNL     1      21.405  -0.466  53.869  1.00  0.00     0.234 A 
HETATM    4  N2  UNL     1      20.447   0.422  53.592  1.00  0.00    -0.238 NA
HETATM    5  C9  UNL     1      20.641   1.571  52.953  1.00  0.00     0.109 A 
HETATM    6  C10 UNL     1      21.962   1.742  52.604  1.00  0.00     0.061 A 
HETATM    7  C11 UNL     1      21.838   2.934  52.003  1.00  0.00     0.118 A 
HETATM    8  C13 UNL     1      20.436   2.760  52.370  1.00  0.00     0.132 A 
ENDROOT
BRANCH   1   9
HETATM    9  C6  UNL     1      24.401   1.070  52.477  1.00  0.00     0.065 C 
HETATM   10  C5  UNL     1      25.324   1.987  52.808  1.00  0.00     0.049 C 
BRANCH  10  11
HETATM   11  C4  UNL     1      26.726   2.011  52.322  1.00  0.00     0.096 C 
BRANCH  11  12
HETATM   12  C3  UNL     1      27.326   0.669  52.585  1.00  0.00     0.049 C 
HETATM   13  C2  UNL     1      27.756   0.295  53.778  1.00  0.00     0.221 C 
HETATM   14  F1  UNL     1      28.070   0.285  55.094  1.00  0.00    -0.179 F 
BRANCH  13  15
HETATM   15  O1  UNL     1      28.337  -0.935  54.155  1.00  0.00    -0.332 OA
HETATM   16  C1  UNL     1      29.413  -1.520  53.448  1.00  0.00     0.212 C 
ENDBRANCH  13  15
ENDBRANCH  11  12
ENDBRANCH  10  11
BRANCH  10  17
HETATM   17  O2  UNL     1      25.211   3.088  53.644  1.00  0.00    -0.365 OA
HETATM   18  H7  UNL     1      25.960   3.683  53.936  1.00  0.00     0.217 HD
ENDBRANCH  10  17
ENDBRANCH   1   9
BRANCH   7  19
HETATM   19  O3  UNL     1      22.307   4.032  51.336  1.00  0.00    -0.352 OA
HETATM   20  C12 UNL     1      23.250   3.917  50.259  1.00  0.00     0.210 C 
ENDBRANCH   7  19
BRANCH   8  21
HETATM   21  O4  UNL     1      19.174   3.339  52.317  1.00  0.00    -0.351 OA
HETATM   22  C14 UNL     1      18.646   3.871  51.107  1.00  0.00     0.210 C 
ENDBRANCH   8  21
TORSDOF 7
ENDMDL
