MODEL 1
REMARK VINA RESULT:      -8.2      0.000      0.000
REMARK  4 active torsions:
REMARK  status: ('A' for Active; 'I' for Inactive)
REMARK    1  A    between atoms: C4_4  and  C5_5 
REMARK    2  A    between atoms: C5_5  and  C6_6 
REMARK    3  A    between atoms: C6_6  and  C7_7 
REMARK    4  A    between atoms: N1_9  and  C9_10 
ROOT
HETATM    1  C7  UNL     1      23.603  -1.007  54.768  1.00  0.00     0.070 A 
HETATM    2  C8  UNL     1      22.939  -0.464  53.688  1.00  0.00     0.143 A 
HETATM    3  N1  UNL     1      21.633  -0.770  53.789  1.00  0.00    -0.247 N 
HETATM    4  N2  UNL     1      21.481  -1.487  54.904  1.00  0.00     0.009 NA
HETATM    5  N3  UNL     1      22.667  -1.632  55.499  1.00  0.00    -0.163 NA
ENDROOT
BRANCH   1   6
HETATM    6  C6  UNL     1      25.069  -0.846  54.952  1.00  0.00     0.067 C 
BRANCH   6   7
HETATM    7  C5  UNL     1      25.657  -0.418  53.649  1.00  0.00     0.044 C 
BRANCH   7   8
HETATM    8  C4  UNL     1      27.130  -0.382  53.625  1.00  0.00    -0.058 A 
HETATM    9  C3  UNL     1      27.822  -1.515  53.208  1.00  0.00     0.007 A 
HETATM   10  C2  UNL     1      29.205  -1.644  53.129  1.00  0.00     0.001 A 
HETATM   11  C1  UNL     1      29.936  -0.526  53.504  1.00  0.00     0.000 A 
HETATM   12  C17 UNL     1      29.294   0.623  53.925  1.00  0.00     0.001 A 
HETATM   13  C16 UNL     1      27.918   0.714  53.991  1.00  0.00     0.007 A 
ENDBRANCH   7   8
ENDBRANCH   6   7
ENDBRANCH   1   6
BRANCH   3  14
HETATM   14  C9  UNL     1      20.425  -0.551  53.069  1.00  0.00     0.054 A 
HETATM   15  C10 UNL     1      20.420   0.237  51.930  1.00  0.00     0.032 A 
HETATM   16  C11 UNL     1      19.285   0.477  51.203  1.00  0.00     0.010 A 
HETATM   17  C12 UNL     1      18.113  -0.109  51.656  1.00  0.00    -0.047 A 
HETATM   18  C13 UNL     1      18.034  -0.920  52.799  1.00  0.00    -0.045 A 
HETATM   19  C15 UNL     1      16.808  -0.672  52.029  1.00  0.00     0.078 A 
HETATM   20  C14 UNL     1      19.247  -1.101  53.468  1.00  0.00     0.039 A 
ENDBRANCH   3  14
TORSDOF 4
ENDMDL
MODEL 2
REMARK VINA RESULT:      -8.1      1.097      8.191
REMARK  4 active torsions:
REMARK  status: ('A' for Active; 'I' for Inactive)
REMARK    1  A    between atoms: C4_4  and  C5_5 
REMARK    2  A    between atoms: C5_5  and  C6_6 
REMARK    3  A    between atoms: C6_6  and  C7_7 
REMARK    4  A    between atoms: N1_9  and  C9_10 
ROOT
HETATM    1  C7  UNL     1      22.267  -1.077  54.656  1.00  0.00     0.070 A 
HETATM    2  C8  UNL     1      23.237  -0.593  53.803  1.00  0.00     0.143 A 
HETATM    3  N1  UNL     1      24.441  -0.784  54.372  1.00  0.00    -0.247 N 
HETATM    4  N2  UNL     1      24.232  -1.373  55.551  1.00  0.00     0.009 NA
HETATM    5  N3  UNL     1      22.921  -1.552  55.727  1.00  0.00    -0.163 NA
ENDROOT
BRANCH   1   6
HETATM    6  C6  UNL     1      20.821  -1.016  54.317  1.00  0.00     0.067 C 
BRANCH   6   7
HETATM    7  C5  UNL     1      20.642  -0.021  53.220  1.00  0.00     0.044 C 
BRANCH   7   8
HETATM    8  C4  UNL     1      19.382  -0.159  52.467  1.00  0.00    -0.058 A 
HETATM    9  C3  UNL     1      18.342  -0.892  53.028  1.00  0.00     0.007 A 
HETATM   10  C2  UNL     1      17.097  -1.117  52.450  1.00  0.00     0.001 A 
HETATM   11  C1  UNL     1      16.901  -0.545  51.201  1.00  0.00     0.000 A 
HETATM   12  C17 UNL     1      17.905   0.192  50.602  1.00  0.00     0.001 A 
HETATM   13  C16 UNL     1      19.129   0.394  51.207  1.00  0.00     0.007 A 
ENDBRANCH   7   8
ENDBRANCH   6   7
ENDBRANCH   1   6
BRANCH   3  14
HETATM   14  C9  UNL     1      25.812  -0.544  54.077  1.00  0.00     0.054 A 
HETATM   15  C10 UNL     1      26.443  -1.238  53.058  1.00  0.00     0.032 A 
HETATM   16  C11 UNL     1      27.760  -1.042  52.736  1.00  0.00     0.010 A 
HETATM   17  C12 UNL     1      28.456  -0.103  53.481  1.00  0.00    -0.047 A 
HETATM   18  C13 UNL     1      27.891   0.641  54.529  1.00  0.00    -0.045 A 
HETATM   19  C15 UNL     1      29.304   0.863  54.195  1.00  0.00     0.078 A 
HETATM   20  C14 UNL     1      26.544   0.366  54.776  1.00  0.00     0.039 A 
ENDBRANCH   3  14
TORSDOF 4
ENDMDL
MODEL 3
REMARK VINA RESULT:      -7.9      4.826      5.668
REMARK  4 active torsions:
REMARK  status: ('A' for Active; 'I' for Inactive)
REMARK    1  A    between atoms: C4_4  and  C5_5 
REMARK    2  A    between atoms: C5_5  and  C6_6 
REMARK    3  A    between atoms: C6_6  and  C7_7 
REMARK    4  A    between atoms: N1_9  and  C9_10 
ROOT
HETATM    1  C7  UNL     1      25.927   1.717  51.616  1.00  0.00     0.070 A 
HETATM    2  C8  UNL     1      24.550   1.725  51.694  1.00  0.00     0.143 A 
HETATM    3  N1  UNL     1      24.159   0.695  52.466  1.00  0.00    -0.247 N 
HETATM    4  N2  UNL     1      25.263   0.058  52.862  1.00  0.00     0.009 NA
HETATM    5  N3  UNL     1      26.332   0.671  52.352  1.00  0.00    -0.163 NA
ENDROOT
BRANCH   1   6
HETATM    6  C6  UNL     1      26.676   2.734  50.832  1.00  0.00     0.067 C 
BRANCH   6   7
HETATM    7  C5  UNL     1      25.751   3.307  49.811  1.00  0.00     0.044 C 
BRANCH   7   8
HETATM    8  C4  UNL     1      26.214   4.569  49.204  1.00  0.00    -0.058 A 
HETATM    9  C3  UNL     1      27.548   4.684  48.830  1.00  0.00     0.007 A 
HETATM   10  C2  UNL     1      28.141   5.801  48.249  1.00  0.00     0.001 A 
HETATM   11  C1  UNL     1      27.301   6.883  48.035  1.00  0.00     0.000 A 
HETATM   12  C17 UNL     1      25.967   6.818  48.390  1.00  0.00     0.001 A 
HETATM   13  C16 UNL     1      25.414   5.691  48.965  1.00  0.00     0.007 A 
ENDBRANCH   7   8
ENDBRANCH   6   7
ENDBRANCH   1   6
BRANCH   3  14
HETATM   14  C9  UNL     1      22.951   0.124  52.954  1.00  0.00     0.054 A 
HETATM   15  C10 UNL     1      22.970  -0.735  54.041  1.00  0.00     0.032 A 
HETATM   16  C11 UNL     1      21.835  -1.309  54.549  1.00  0.00     0.010 A 
HETATM   17  C12 UNL     1      20.638  -0.994  53.924  1.00  0.00    -0.047 A 
HETATM   18  C13 UNL     1      20.533  -0.134  52.819  1.00  0.00    -0.045 A 
HETATM   19  C15 UNL     1      19.307  -0.742  53.353  1.00  0.00     0.078 A 
HETATM   20  C14 UNL     1      21.749   0.398  52.381  1.00  0.00     0.039 A 
ENDBRANCH   3  14
TORSDOF 4
ENDMDL
MODEL 4
REMARK VINA RESULT:      -7.9      1.425      1.601
REMARK  4 active torsions:
REMARK  status: ('A' for Active; 'I' for Inactive)
REMARK    1  A    between atoms: C4_4  and  C5_5 
REMARK    2  A    between atoms: C5_5  and  C6_6 
REMARK    3  A    between atoms: C6_6  and  C7_7 
REMARK    4  A    between atoms: N1_9  and  C9_10 
ROOT
HETATM    1  C7  UNL     1      23.969   0.945  53.079  1.00  0.00     0.070 A 
HETATM    2  C8  UNL     1      22.726   1.332  52.623  1.00  0.00     0.143 A 
HETATM    3  N1  UNL     1      21.876   0.300  52.768  1.00  0.00    -0.247 N 
HETATM    4  N2  UNL     1      22.568  -0.709  53.300  1.00  0.00     0.009 NA
HETATM    5  N3  UNL     1      23.832  -0.324  53.490  1.00  0.00    -0.163 NA
ENDROOT
BRANCH   1   6
HETATM    6  C6  UNL     1      25.137   1.865  53.056  1.00  0.00     0.067 C 
BRANCH   6   7
HETATM    7  C5  UNL     1      26.128   1.334  52.075  1.00  0.00     0.044 C 
BRANCH   7   8
HETATM    8  C4  UNL     1      27.307   0.690  52.684  1.00  0.00    -0.058 A 
HETATM    9  C3  UNL     1      27.394  -0.698  52.672  1.00  0.00     0.007 A 
HETATM   10  C2  UNL     1      28.433  -1.456  53.202  1.00  0.00     0.001 A 
HETATM   11  C1  UNL     1      29.464  -0.735  53.788  1.00  0.00     0.000 A 
HETATM   12  C17 UNL     1      29.423   0.645  53.824  1.00  0.00     0.001 A 
HETATM   13  C16 UNL     1      28.373   1.364  53.288  1.00  0.00     0.007 A 
ENDBRANCH   7   8
ENDBRANCH   6   7
ENDBRANCH   1   6
BRANCH   3  14
HETATM   14  C9  UNL     1      20.507   0.000  52.522  1.00  0.00     0.054 A 
HETATM   15  C10 UNL     1      19.889   0.444  51.365  1.00  0.00     0.032 A 
HETATM   16  C11 UNL     1      18.575   0.182  51.081  1.00  0.00     0.010 A 
HETATM   17  C12 UNL     1      17.868  -0.562  52.014  1.00  0.00    -0.047 A 
HETATM   18  C13 UNL     1      18.420  -1.049  53.209  1.00  0.00    -0.045 A 
HETATM   19  C15 UNL     1      17.010  -1.339  52.919  1.00  0.00     0.078 A 
HETATM   20  C14 UNL     1      19.766  -0.725  53.401  1.00  0.00     0.039 A 
ENDBRANCH   3  14
TORSDOF 4
ENDMDL
MODEL 5
REMARK VINA RESULT:      -7.8      5.172      8.121
REMARK  4 active torsions:
REMARK  status: ('A' for Active; 'I' for Inactive)
REMARK    1  A    between atoms: C4_4  and  C5_5 
REMARK    2  A    between atoms: C5_5  and  C6_6 
REMARK    3  A    between atoms: C6_6  and  C7_7 
REMARK    4  A    between atoms: N1_9  and  C9_10 
ROOT
HETATM    1  C7  UNL     1      24.704   3.241  51.834  1.00  0.00     0.070 A 
HETATM    2  C8  UNL     1      25.665   2.348  51.407  1.00  0.00     0.143 A 
HETATM    3  N1  UNL     1      26.071   1.618  52.462  1.00  0.00    -0.247 N 
HETATM    4  N2  UNL     1      25.382   2.043  53.523  1.00  0.00     0.009 NA
HETATM    5  N3  UNL     1      24.556   3.023  53.149  1.00  0.00    -0.163 NA
ENDROOT
BRANCH   1   6
HETATM    6  C6  UNL     1      24.050   4.197  50.903  1.00  0.00     0.067 C 
BRANCH   6   7
HETATM    7  C5  UNL     1      24.560   3.929  49.526  1.00  0.00     0.044 C 
BRANCH   7   8
HETATM    8  C4  UNL     1      25.580   4.883  49.054  1.00  0.00    -0.058 A 
HETATM    9  C3  UNL     1      25.178   6.157  48.667  1.00  0.00     0.007 A 
HETATM   10  C2  UNL     1      26.010   7.169  48.200  1.00  0.00     0.001 A 
HETATM   11  C1  UNL     1      27.359   6.852  48.124  1.00  0.00     0.000 A 
HETATM   12  C17 UNL     1      27.807   5.599  48.497  1.00  0.00     0.001 A 
HETATM   13  C16 UNL     1      26.950   4.619  48.956  1.00  0.00     0.007 A 
ENDBRANCH   7   8
ENDBRANCH   6   7
ENDBRANCH   1   6
BRANCH   3  14
HETATM   14  C9  UNL     1      26.987   0.568  52.745  1.00  0.00     0.054 A 
HETATM   15  C10 UNL     1      26.649  -0.749  52.484  1.00  0.00     0.032 A 
HETATM   16  C11 UNL     1      27.496  -1.795  52.738  1.00  0.00     0.010 A 
HETATM   17  C12 UNL     1      28.734  -1.482  53.279  1.00  0.00    -0.047 A 
HETATM   18  C13 UNL     1      29.154  -0.175  53.572  1.00  0.00    -0.045 A 
HETATM   19  C15 UNL     1      30.073  -1.286  53.851  1.00  0.00     0.078 A 
HETATM   20  C14 UNL     1      28.215   0.816  53.275  1.00  0.00     0.039 A 
ENDBRANCH   3  14
TORSDOF 4
ENDMDL
MODEL 6
REMARK VINA RESULT:      -7.8      1.802      8.638
REMARK  4 active torsions:
REMARK  status: ('A' for Active; 'I' for Inactive)
REMARK    1  A    between atoms: C4_4  and  C5_5 
REMARK    2  A    between atoms: C5_5  and  C6_6 
REMARK    3  A    between atoms: C6_6  and  C7_7 
REMARK    4  A    between atoms: N1_9  and  C9_10 
ROOT
HETATM    1  C7  UNL     1      22.922   0.387  52.825  1.00  0.00     0.070 A 
HETATM    2  C8  UNL     1      24.004  -0.093  53.534  1.00  0.00     0.143 A 
HETATM    3  N1  UNL     1      25.128   0.421  53.001  1.00  0.00    -0.247 N 
HETATM    4  N2  UNL     1      24.760   1.203  51.984  1.00  0.00     0.009 NA
HETATM    5  N3  UNL     1      23.430   1.186  51.874  1.00  0.00    -0.163 NA
ENDROOT
BRANCH   1   6
HETATM    6  C6  UNL     1      21.527   0.006  53.166  1.00  0.00     0.067 C 
BRANCH   6   7
HETATM    7  C5  UNL     1      20.643   0.412  52.034  1.00  0.00     0.044 C 
BRANCH   7   8
HETATM    8  C4  UNL     1      19.274  -0.130  52.100  1.00  0.00    -0.058 A 
HETATM    9  C3  UNL     1      18.912  -0.906  53.196  1.00  0.00     0.007 A 
HETATM   10  C2  UNL     1      17.667  -1.489  53.409  1.00  0.00     0.001 A 
HETATM   11  C1  UNL     1      16.719  -1.258  52.423  1.00  0.00     0.000 A 
HETATM   12  C17 UNL     1      17.030  -0.493  51.315  1.00  0.00     0.001 A 
HETATM   13  C16 UNL     1      18.279   0.069  51.138  1.00  0.00     0.007 A 
ENDBRANCH   7   8
ENDBRANCH   6   7
ENDBRANCH   1   6
BRANCH   3  14
HETATM   14  C9  UNL     1      26.533   0.363  53.212  1.00  0.00     0.054 A 
HETATM   15  C10 UNL     1      27.251   1.519  53.474  1.00  0.00     0.032 A 
HETATM   16  C11 UNL     1      28.604   1.516  53.685  1.00  0.00     0.010 A 
HETATM   17  C12 UNL     1      29.247   0.289  53.627  1.00  0.00    -0.047 A 
HETATM   18  C13 UNL     1      28.593  -0.926  53.367  1.00  0.00    -0.045 A 
HETATM   19  C15 UNL     1      30.044  -0.945  53.591  1.00  0.00     0.078 A 
HETATM   20  C14 UNL     1      27.215  -0.813  53.167  1.00  0.00     0.039 A 
ENDBRANCH   3  14
TORSDOF 4
ENDMDL
MODEL 7
REMARK VINA RESULT:      -7.7      4.449      6.453
REMARK  4 active torsions:
REMARK  status: ('A' for Active; 'I' for Inactive)
REMARK    1  A    between atoms: C4_4  and  C5_5 
REMARK    2  A    between atoms: C5_5  and  C6_6 
REMARK    3  A    between atoms: C6_6  and  C7_7 
REMARK    4  A    between atoms: N1_9  and  C9_10 
ROOT
HETATM    1  C7  UNL     1      24.083   1.138  52.385  1.00  0.00     0.070 A 
HETATM    2  C8  UNL     1      25.130   1.582  51.605  1.00  0.00     0.143 A 
HETATM    3  N1  UNL     1      24.870   2.842  51.213  1.00  0.00    -0.247 N 
HETATM    4  N2  UNL     1      23.688   3.180  51.734  1.00  0.00     0.009 NA
HETATM    5  N3  UNL     1      23.210   2.156  52.443  1.00  0.00    -0.163 NA
ENDROOT
BRANCH   1   6
HETATM    6  C6  UNL     1      24.066  -0.224  52.978  1.00  0.00     0.067 C 
BRANCH   6   7
HETATM    7  C5  UNL     1      24.885  -0.199  54.226  1.00  0.00     0.044 C 
BRANCH   7   8
HETATM    8  C4  UNL     1      26.326  -0.429  54.018  1.00  0.00    -0.058 A 
HETATM    9  C3  UNL     1      27.237   0.256  54.815  1.00  0.00     0.007 A 
HETATM   10  C2  UNL     1      28.622   0.153  54.745  1.00  0.00     0.001 A 
HETATM   11  C1  UNL     1      29.113  -0.721  53.786  1.00  0.00     0.000 A 
HETATM   12  C17 UNL     1      28.248  -1.424  52.970  1.00  0.00     0.001 A 
HETATM   13  C16 UNL     1      26.876  -1.295  53.068  1.00  0.00     0.007 A 
ENDBRANCH   7   8
ENDBRANCH   6   7
ENDBRANCH   1   6
BRANCH   3  14
HETATM   14  C9  UNL     1      25.476   3.865  50.433  1.00  0.00     0.054 A 
HETATM   15  C10 UNL     1      24.881   5.112  50.327  1.00  0.00     0.032 A 
HETATM   16  C11 UNL     1      25.425   6.130  49.590  1.00  0.00     0.010 A 
HETATM   17  C12 UNL     1      26.619   5.865  48.937  1.00  0.00    -0.047 A 
HETATM   18  C13 UNL     1      27.285   4.630  48.993  1.00  0.00    -0.045 A 
HETATM   19  C15 UNL     1      27.881   5.712  48.199  1.00  0.00     0.078 A 
HETATM   20  C14 UNL     1      26.647   3.661  49.772  1.00  0.00     0.039 A 
ENDBRANCH   3  14
TORSDOF 4
ENDMDL
MODEL 8
REMARK VINA RESULT:      -7.7      2.813      7.811
REMARK  4 active torsions:
REMARK  status: ('A' for Active; 'I' for Inactive)
REMARK    1  A    between atoms: C4_4  and  C5_5 
REMARK    2  A    between atoms: C5_5  and  C6_6 
REMARK    3  A    between atoms: C6_6  and  C7_7 
REMARK    4  A    between atoms: N1_9  and  C9_10 
ROOT
HETATM    1  C7  UNL     1      23.819   2.311  51.942  1.00  0.00     0.070 A 
HETATM    2  C8  UNL     1      24.940   1.549  51.684  1.00  0.00     0.143 A 
HETATM    3  N1  UNL     1      25.807   1.705  52.701  1.00  0.00    -0.247 N 
HETATM    4  N2  UNL     1      25.245   2.543  53.574  1.00  0.00     0.009 NA
HETATM    5  N3  UNL     1      24.045   2.912  53.120  1.00  0.00    -0.163 NA
ENDROOT
BRANCH   1   6
HETATM    6  C6  UNL     1      22.667   2.357  51.004  1.00  0.00     0.067 C 
BRANCH   6   7
HETATM    7  C5  UNL     1      22.060   0.995  50.947  1.00  0.00     0.044 C 
BRANCH   7   8
HETATM    8  C4  UNL     1      21.829   0.371  52.263  1.00  0.00    -0.058 A 
HETATM    9  C3  UNL     1      20.892   0.938  53.120  1.00  0.00     0.007 A 
HETATM   10  C2  UNL     1      20.560   0.475  54.389  1.00  0.00     0.001 A 
HETATM   11  C1  UNL     1      21.239  -0.658  54.812  1.00  0.00     0.000 A 
HETATM   12  C17 UNL     1      22.180  -1.258  53.997  1.00  0.00     0.001 A 
HETATM   13  C16 UNL     1      22.484  -0.768  52.742  1.00  0.00     0.007 A 
ENDBRANCH   7   8
ENDBRANCH   6   7
ENDBRANCH   1   6
BRANCH   3  14
HETATM   14  C9  UNL     1      27.097   1.245  53.084  1.00  0.00     0.054 A 
HETATM   15  C10 UNL     1      28.026   2.124  53.617  1.00  0.00     0.032 A 
HETATM   16  C11 UNL     1      29.280   1.731  54.003  1.00  0.00     0.010 A 
HETATM   17  C12 UNL     1      29.596   0.391  53.838  1.00  0.00    -0.047 A 
HETATM   18  C13 UNL     1      28.713  -0.563  53.307  1.00  0.00    -0.045 A 
HETATM   19  C15 UNL     1      30.054  -1.000  53.716  1.00  0.00     0.078 A 
HETATM   20  C14 UNL     1      27.461  -0.058  52.946  1.00  0.00     0.039 A 
ENDBRANCH   3  14
TORSDOF 4
ENDMDL
MODEL 9
REMARK VINA RESULT:      -7.6      5.738      6.690
REMARK  4 active torsions:
REMARK  status: ('A' for Active; 'I' for Inactive)
REMARK    1  A    between atoms: C4_4  and  C5_5 
REMARK    2  A    between atoms: C5_5  and  C6_6 
REMARK    3  A    between atoms: C6_6  and  C7_7 
REMARK    4  A    between atoms: N1_9  and  C9_10 
ROOT
HETATM    1  C7  UNL     1      25.483   3.157  50.379  1.00  0.00     0.070 A 
HETATM    2  C8  UNL     1      24.196   2.787  50.708  1.00  0.00     0.143 A 
HETATM    3  N1  UNL     1      24.252   1.740  51.551  1.00  0.00    -0.247 N 
HETATM    4  N2  UNL     1      25.542   1.460  51.745  1.00  0.00     0.009 NA
HETATM    5  N3  UNL     1      26.289   2.313  51.041  1.00  0.00    -0.163 NA
ENDROOT
BRANCH   1   6
HETATM    6  C6  UNL     1      25.766   4.290  49.460  1.00  0.00     0.067 C 
BRANCH   6   7
HETATM    7  C5  UNL     1      27.220   4.266  49.124  1.00  0.00     0.044 C 
BRANCH   7   8
HETATM    8  C4  UNL     1      27.721   5.494  48.481  1.00  0.00    -0.058 A 
HETATM    9  C3  UNL     1      29.074   5.586  48.173  1.00  0.00     0.007 A 
HETATM   10  C2  UNL     1      29.702   6.671  47.570  1.00  0.00     0.001 A 
HETATM   11  C1  UNL     1      28.880   7.743  47.256  1.00  0.00     0.000 A 
HETATM   12  C17 UNL     1      27.529   7.700  47.542  1.00  0.00     0.001 A 
HETATM   13  C16 UNL     1      26.941   6.604  48.143  1.00  0.00     0.007 A 
ENDBRANCH   7   8
ENDBRANCH   6   7
ENDBRANCH   1   6
BRANCH   3  14
HETATM   14  C9  UNL     1      23.359   0.889  52.258  1.00  0.00     0.054 A 
HETATM   15  C10 UNL     1      22.037   0.771  51.859  1.00  0.00     0.032 A 
HETATM   16  C11 UNL     1      21.139  -0.036  52.506  1.00  0.00     0.010 A 
HETATM   17  C12 UNL     1      21.608  -0.747  53.600  1.00  0.00    -0.047 A 
HETATM   18  C13 UNL     1      22.930  -0.683  54.068  1.00  0.00    -0.045 A 
HETATM   19  C15 UNL     1      21.978  -1.552  54.772  1.00  0.00     0.078 A 
HETATM   20  C14 UNL     1      23.764   0.168  53.338  1.00  0.00     0.039 A 
ENDBRANCH   3  14
TORSDOF 4
ENDMDL
