MODEL 1
REMARK VINA RESULT:      -7.1      0.000      0.000
REMARK  2 active torsions:
REMARK  status: ('A' for Active; 'I' for Inactive)
REMARK    1  A    between atoms: C2_2  and  N2_5 
REMARK    2  A    between atoms: N2_5  and  C4_6 
ROOT
HETATM    1  C1  UNL     1      26.792   0.871  51.959  1.00  0.00     0.048 C 
HETATM    2  C2  UNL     1      26.594   1.538  53.297  1.00  0.00     0.185 C 
HETATM    3  C3  UNL     1      27.860   2.113  53.713  1.00  0.00     0.084 C 
HETATM    4  N1  UNL     1      28.858   2.586  54.034  1.00  0.00    -0.195 NA
ENDROOT
BRANCH   2   5
HETATM    5  N2  UNL     1      25.659   2.635  53.118  1.00  0.00    -0.373 N 
HETATM    6  H5  UNL     1      25.723   3.674  53.146  1.00  0.00     0.161 HD
BRANCH   5   7
HETATM    7  C4  UNL     1      24.436   2.007  52.871  1.00  0.00     0.037 C 
HETATM    8  C5  UNL     1      23.250   1.377  52.689  1.00  0.00     0.030 C 
HETATM    9  C6  UNL     1      22.093   0.945  51.958  1.00  0.00     0.007 C 
HETATM   10  C7  UNL     1      21.535   0.940  50.755  1.00  0.00    -0.061 C 
HETATM   11  C8  UNL     1      20.415   0.251  51.446  1.00  0.00     0.055 C 
HETATM   12  C15 UNL     1      21.645   1.293  49.293  1.00  0.00     0.154 C 
HETATM   13  C9  UNL     1      19.726   1.401  52.249  1.00  0.00     0.124 C 
HETATM   14  N3  UNL     1      20.581   2.596  52.343  1.00  0.00    -0.390 N 
HETATM   15  C10 UNL     1      21.747   3.220  51.835  1.00  0.00     0.051 C 
HETATM   16  H12 UNL     1      20.362   3.349  53.044  1.00  0.00     0.159 HD
HETATM   17  C11 UNL     1      22.405   3.061  50.623  1.00  0.00     0.052 C 
HETATM   18  C14 UNL     1      22.887   4.133  52.280  1.00  0.00     0.144 C 
HETATM   19  C12 UNL     1      23.900   2.888  50.537  1.00  0.00     0.042 C 
HETATM   20  N4  UNL     1      21.821   2.792  49.283  1.00  0.00    -0.384 N 
HETATM   21  C13 UNL     1      23.844   2.956  51.836  1.00  0.00    -0.009 C 
HETATM   22  H15 UNL     1      21.566   3.400  48.490  1.00  0.00     0.160 HD
HETATM   23 BR1  UNL     1      23.123   5.657  51.205  1.00  0.00    -0.079 Br
ENDBRANCH   5   7
ENDBRANCH   2   5
TORSDOF 2
ENDMDL
MODEL 2
REMARK VINA RESULT:      -6.7      2.490      4.104
REMARK  2 active torsions:
REMARK  status: ('A' for Active; 'I' for Inactive)
REMARK    1  A    between atoms: C2_2  and  N2_5 
REMARK    2  A    between atoms: N2_5  and  C4_6 
ROOT
HETATM    1  C1  UNL     1      22.620   7.439  50.779  1.00  0.00     0.048 C 
HETATM    2  C2  UNL     1      23.719   6.406  50.834  1.00  0.00     0.185 C 
HETATM    3  C3  UNL     1      24.986   7.075  50.605  1.00  0.00     0.084 C 
HETATM    4  N1  UNL     1      25.994   7.607  50.445  1.00  0.00    -0.195 NA
ENDROOT
BRANCH   2   5
HETATM    5  N2  UNL     1      23.754   5.859  52.179  1.00  0.00    -0.373 N 
HETATM    6  H5  UNL     1      24.231   6.114  53.068  1.00  0.00     0.161 HD
BRANCH   5   7
HETATM    7  C4  UNL     1      22.928   4.734  52.114  1.00  0.00     0.037 C 
HETATM    8  C5  UNL     1      22.085   3.677  52.020  1.00  0.00     0.030 C 
HETATM    9  C6  UNL     1      21.647   2.327  52.233  1.00  0.00     0.007 C 
HETATM   10  C7  UNL     1      21.957   1.191  52.842  1.00  0.00    -0.061 C 
HETATM   11  C8  UNL     1      20.728   0.680  52.182  1.00  0.00     0.055 C 
HETATM   12  C15 UNL     1      22.892   0.447  53.761  1.00  0.00     0.154 C 
HETATM   13  C9  UNL     1      21.163   0.517  50.689  1.00  0.00     0.124 C 
HETATM   14  N3  UNL     1      22.419   1.229  50.400  1.00  0.00    -0.390 N 
HETATM   15  C10 UNL     1      23.532   1.882  50.984  1.00  0.00     0.051 C 
HETATM   16  H12 UNL     1      22.706   1.411  49.405  1.00  0.00     0.159 HD
HETATM   17  C11 UNL     1      24.101   1.752  52.243  1.00  0.00     0.052 C 
HETATM   18  C14 UNL     1      24.493   3.039  50.721  1.00  0.00     0.144 C 
HETATM   19  C12 UNL     1      24.466   2.946  53.088  1.00  0.00     0.042 C 
HETATM   20  N4  UNL     1      24.233   0.527  53.075  1.00  0.00    -0.384 N 
HETATM   21  C13 UNL     1      23.975   3.627  52.093  1.00  0.00    -0.009 C 
HETATM   22  H15 UNL     1      24.997  -0.153  53.213  1.00  0.00     0.160 HD
HETATM   23 BR1  UNL     1      26.312   2.570  50.815  1.00  0.00    -0.079 Br
ENDBRANCH   5   7
ENDBRANCH   2   5
TORSDOF 2
ENDMDL
MODEL 3
REMARK VINA RESULT:      -6.6      8.723     11.653
REMARK  2 active torsions:
REMARK  status: ('A' for Active; 'I' for Inactive)
REMARK    1  A    between atoms: C2_2  and  N2_5 
REMARK    2  A    between atoms: N2_5  and  C4_6 
ROOT
HETATM    1  C1  UNL     1      28.140   5.085  48.492  1.00  0.00     0.048 C 
HETATM    2  C2  UNL     1      28.832   6.328  47.990  1.00  0.00     0.185 C 
HETATM    3  C3  UNL     1      27.883   7.425  48.026  1.00  0.00     0.084 C 
HETATM    4  N1  UNL     1      27.138   8.300  48.072  1.00  0.00    -0.195 NA
ENDROOT
BRANCH   2   5
HETATM    5  N2  UNL     1      29.902   6.651  48.918  1.00  0.00    -0.373 N 
HETATM    6  H5  UNL     1      30.018   7.316  49.710  1.00  0.00     0.161 HD
BRANCH   5   7
HETATM    7  C4  UNL     1      30.953   5.814  48.536  1.00  0.00     0.037 C 
HETATM    8  C5  UNL     1      31.931   4.960  48.147  1.00  0.00     0.030 C 
HETATM    9  C6  UNL     1      33.281   4.516  47.947  1.00  0.00     0.007 C 
HETATM   10  C7  UNL     1      34.550   4.836  48.164  1.00  0.00    -0.061 C 
HETATM   11  C8  UNL     1      34.833   3.583  47.419  1.00  0.00     0.055 C 
HETATM   12  C15 UNL     1      35.540   5.793  48.777  1.00  0.00     0.154 C 
HETATM   13  C9  UNL     1      34.526   3.969  45.935  1.00  0.00     0.124 C 
HETATM   14  N3  UNL     1      33.757   5.221  45.839  1.00  0.00    -0.390 N 
HETATM   15  C10 UNL     1      33.315   6.358  46.560  1.00  0.00     0.051 C 
HETATM   16  H12 UNL     1      33.276   5.477  44.941  1.00  0.00     0.159 HD
HETATM   17  C11 UNL     1      33.827   6.965  47.698  1.00  0.00     0.052 C 
HETATM   18  C14 UNL     1      32.132   7.320  46.636  1.00  0.00     0.144 C 
HETATM   19  C12 UNL     1      32.952   7.366  48.858  1.00  0.00     0.042 C 
HETATM   20  N4  UNL     1      35.249   7.113  48.106  1.00  0.00    -0.384 N 
HETATM   21  C13 UNL     1      31.998   6.850  48.139  1.00  0.00    -0.009 C 
HETATM   22  H15 UNL     1      35.937   7.875  48.001  1.00  0.00     0.160 HD
HETATM   23 BR1  UNL     1      32.604   9.137  46.521  1.00  0.00    -0.079 Br
ENDBRANCH   5   7
ENDBRANCH   2   5
TORSDOF 2
ENDMDL
MODEL 4
REMARK VINA RESULT:      -6.6      2.615      4.582
REMARK  2 active torsions:
REMARK  status: ('A' for Active; 'I' for Inactive)
REMARK    1  A    between atoms: C2_2  and  N2_5 
REMARK    2  A    between atoms: N2_5  and  C4_6 
ROOT
HETATM    1  C1  UNL     1      20.440   0.176  53.610  1.00  0.00     0.048 C 
HETATM    2  C2  UNL     1      21.926   0.232  53.866  1.00  0.00     0.185 C 
HETATM    3  C3  UNL     1      22.277  -0.859  54.756  1.00  0.00     0.084 C 
HETATM    4  N1  UNL     1      22.561  -1.736  55.446  1.00  0.00    -0.195 NA
ENDROOT
BRANCH   2   5
HETATM    5  N2  UNL     1      22.608  -0.002  52.605  1.00  0.00    -0.373 N 
HETATM    6  H5  UNL     1      23.027  -0.829  52.134  1.00  0.00     0.161 HD
BRANCH   5   7
HETATM    7  C4  UNL     1      22.651   1.257  52.000  1.00  0.00     0.037 C 
HETATM    8  C5  UNL     1      22.634   2.486  51.429  1.00  0.00     0.030 C 
HETATM    9  C6  UNL     1      23.171   3.603  50.706  1.00  0.00     0.007 C 
HETATM   10  C7  UNL     1      24.236   4.027  50.039  1.00  0.00    -0.061 C 
HETATM   11  C8  UNL     1      23.465   5.290  49.914  1.00  0.00     0.055 C 
HETATM   12  C15 UNL     1      25.606   3.720  49.491  1.00  0.00     0.154 C 
HETATM   13  C9  UNL     1      23.561   5.912  51.345  1.00  0.00     0.124 C 
HETATM   14  N3  UNL     1      24.017   4.931  52.344  1.00  0.00    -0.390 N 
HETATM   15  C10 UNL     1      24.596   3.649  52.517  1.00  0.00     0.051 C 
HETATM   16  H12 UNL     1      23.901   5.129  53.369  1.00  0.00     0.159 HD
HETATM   17  C11 UNL     1      25.390   2.892  51.668  1.00  0.00     0.052 C 
HETATM   18  C14 UNL     1      24.562   2.459  53.472  1.00  0.00     0.144 C 
HETATM   19  C12 UNL     1      25.129   1.429  51.415  1.00  0.00     0.042 C 
HETATM   20  N4  UNL     1      26.424   3.360  50.707  1.00  0.00    -0.384 N 
HETATM   21  C13 UNL     1      24.117   1.613  52.213  1.00  0.00    -0.009 C 
HETATM   22  H15 UNL     1      27.450   3.452  50.765  1.00  0.00     0.160 HD
HETATM   23 BR1  UNL     1      26.252   1.923  54.100  1.00  0.00    -0.079 Br
ENDBRANCH   5   7
ENDBRANCH   2   5
TORSDOF 2
ENDMDL
MODEL 5
REMARK VINA RESULT:      -6.4      9.239     10.531
REMARK  2 active torsions:
REMARK  status: ('A' for Active; 'I' for Inactive)
REMARK    1  A    between atoms: C2_2  and  N2_5 
REMARK    2  A    between atoms: N2_5  and  C4_6 
ROOT
HETATM    1  C1  UNL     1      34.638   3.208  46.312  1.00  0.00     0.048 C 
HETATM    2  C2  UNL     1      33.186   3.280  46.716  1.00  0.00     0.185 C 
HETATM    3  C3  UNL     1      32.682   1.926  46.852  1.00  0.00     0.084 C 
HETATM    4  N1  UNL     1      32.286   0.853  46.980  1.00  0.00    -0.195 NA
ENDROOT
BRANCH   2   5
HETATM    5  N2  UNL     1      33.115   3.902  48.026  1.00  0.00    -0.373 N 
HETATM    6  H5  UNL     1      33.703   3.887  48.885  1.00  0.00     0.161 HD
BRANCH   5   7
HETATM    7  C4  UNL     1      31.935   4.649  47.988  1.00  0.00     0.037 C 
HETATM    8  C5  UNL     1      30.765   5.334  47.993  1.00  0.00     0.030 C 
HETATM    9  C6  UNL     1      29.846   6.360  47.592  1.00  0.00     0.007 C 
HETATM   10  C7  UNL     1      29.679   7.369  46.748  1.00  0.00    -0.061 C 
HETATM   11  C8  UNL     1      28.385   7.546  47.455  1.00  0.00     0.055 C 
HETATM   12  C15 UNL     1      30.221   8.173  45.593  1.00  0.00     0.154 C 
HETATM   13  C9  UNL     1      28.806   8.176  48.823  1.00  0.00     0.124 C 
HETATM   14  N3  UNL     1      30.250   8.035  49.074  1.00  0.00    -0.390 N 
HETATM   15  C10 UNL     1      31.494   7.704  48.481  1.00  0.00     0.051 C 
HETATM   16  H12 UNL     1      30.635   8.189  50.039  1.00  0.00     0.159 HD
HETATM   17  C11 UNL     1      31.907   7.747  47.157  1.00  0.00     0.052 C 
HETATM   18  C14 UNL     1      32.828   7.049  48.828  1.00  0.00     0.144 C 
HETATM   19  C12 UNL     1      32.644   6.603  46.508  1.00  0.00     0.042 C 
HETATM   20  N4  UNL     1      31.530   8.724  46.103  1.00  0.00    -0.384 N 
HETATM   21  C13 UNL     1      32.494   6.029  47.667  1.00  0.00    -0.009 C 
HETATM   22  H15 UNL     1      31.978   9.581  45.743  1.00  0.00     0.160 HD
HETATM   23 BR1  UNL     1      34.335   8.095  48.413  1.00  0.00    -0.079 Br
ENDBRANCH   5   7
ENDBRANCH   2   5
TORSDOF 2
ENDMDL
MODEL 6
REMARK VINA RESULT:      -6.3      2.962      6.153
REMARK  2 active torsions:
REMARK  status: ('A' for Active; 'I' for Inactive)
REMARK    1  A    between atoms: C2_2  and  N2_5 
REMARK    2  A    between atoms: N2_5  and  C4_6 
ROOT
HETATM    1  C1  UNL     1      19.053   3.646  49.067  1.00  0.00     0.048 C 
HETATM    2  C2  UNL     1      20.238   4.028  49.920  1.00  0.00     0.185 C 
HETATM    3  C3  UNL     1      19.960   3.635  51.289  1.00  0.00     0.084 C 
HETATM    4  N1  UNL     1      19.750   3.306  52.371  1.00  0.00    -0.195 NA
ENDROOT
BRANCH   2   5
HETATM    5  N2  UNL     1      21.382   3.253  49.471  1.00  0.00    -0.373 N 
HETATM    6  H5  UNL     1      21.580   2.242  49.328  1.00  0.00     0.161 HD
BRANCH   5   7
HETATM    7  C4  UNL     1      22.369   4.211  49.223  1.00  0.00     0.037 C 
HETATM    8  C5  UNL     1      23.281   5.180  48.968  1.00  0.00     0.030 C 
HETATM    9  C6  UNL     1      24.595   5.743  48.841  1.00  0.00     0.007 C 
HETATM   10  C7  UNL     1      25.888   5.452  48.894  1.00  0.00    -0.061 C 
HETATM   11  C8  UNL     1      26.069   6.905  48.644  1.00  0.00     0.055 C 
HETATM   12  C15 UNL     1      26.955   4.400  49.060  1.00  0.00     0.154 C 
HETATM   13  C9  UNL     1      25.704   7.554  50.018  1.00  0.00     0.124 C 
HETATM   14  N3  UNL     1      24.994   6.614  50.902  1.00  0.00    -0.390 N 
HETATM   15  C10 UNL     1      24.647   5.253  51.093  1.00  0.00     0.051 C 
HETATM   16  H12 UNL     1      24.480   6.969  51.746  1.00  0.00     0.159 HD
HETATM   17  C11 UNL     1      25.249   4.091  50.630  1.00  0.00     0.052 C 
HETATM   18  C14 UNL     1      23.519   4.391  51.654  1.00  0.00     0.144 C 
HETATM   19  C12 UNL     1      24.457   2.971  50.005  1.00  0.00     0.042 C 
HETATM   20  N4  UNL     1      26.695   3.817  50.427  1.00  0.00    -0.384 N 
HETATM   21  C13 UNL     1      23.442   3.760  50.206  1.00  0.00    -0.009 C 
HETATM   22  H15 UNL     1      27.414   3.358  51.008  1.00  0.00     0.160 HD
HETATM   23 BR1  UNL     1      24.075   3.124  52.928  1.00  0.00    -0.079 Br
ENDBRANCH   5   7
ENDBRANCH   2   5
TORSDOF 2
ENDMDL
MODEL 7
REMARK VINA RESULT:      -6.3      2.027      3.636
REMARK  2 active torsions:
REMARK  status: ('A' for Active; 'I' for Inactive)
REMARK    1  A    between atoms: C2_2  and  N2_5 
REMARK    2  A    between atoms: N2_5  and  C4_6 
ROOT
HETATM    1  C1  UNL     1      26.381   0.056  54.926  1.00  0.00     0.048 C 
HETATM    2  C2  UNL     1      26.532   1.037  53.789  1.00  0.00     0.185 C 
HETATM    3  C3  UNL     1      27.946   1.172  53.487  1.00  0.00     0.084 C 
HETATM    4  N1  UNL     1      29.064   1.264  53.234  1.00  0.00    -0.195 NA
ENDROOT
BRANCH   2   5
HETATM    5  N2  UNL     1      25.892   0.467  52.616  1.00  0.00    -0.373 N 
HETATM    6  H5  UNL     1      25.600  -0.488  52.324  1.00  0.00     0.161 HD
BRANCH   5   7
HETATM    7  C4  UNL     1      25.694   1.559  51.768  1.00  0.00     0.037 C 
HETATM    8  C5  UNL     1      25.541   2.593  50.905  1.00  0.00     0.030 C 
HETATM    9  C6  UNL     1      25.039   3.859  50.452  1.00  0.00     0.007 C 
HETATM   10  C7  UNL     1      24.317   4.910  50.816  1.00  0.00    -0.061 C 
HETATM   11  C8  UNL     1      24.570   5.372  49.427  1.00  0.00     0.055 C 
HETATM   12  C15 UNL     1      23.544   5.616  51.900  1.00  0.00     0.154 C 
HETATM   13  C9  UNL     1      23.630   4.464  48.569  1.00  0.00     0.124 C 
HETATM   14  N3  UNL     1      23.144   3.300  49.329  1.00  0.00    -0.390 N 
HETATM   15  C10 UNL     1      23.033   2.736  50.624  1.00  0.00     0.051 C 
HETATM   16  H12 UNL     1      22.708   2.486  48.827  1.00  0.00     0.159 HD
HETATM   17  C11 UNL     1      23.025   3.335  51.875  1.00  0.00     0.052 C 
HETATM   18  C14 UNL     1      23.042   1.379  51.325  1.00  0.00     0.144 C 
HETATM   19  C12 UNL     1      23.861   2.818  53.019  1.00  0.00     0.042 C 
HETATM   20  N4  UNL     1      22.447   4.646  52.269  1.00  0.00    -0.384 N 
HETATM   21  C13 UNL     1      24.269   1.944  52.145  1.00  0.00    -0.009 C 
HETATM   22  H15 UNL     1      21.545   4.922  52.687  1.00  0.00     0.160 HD
HETATM   23 BR1  UNL     1      21.554   1.072  52.433  1.00  0.00    -0.079 Br
ENDBRANCH   5   7
ENDBRANCH   2   5
TORSDOF 2
ENDMDL
MODEL 8
REMARK VINA RESULT:      -6.3      6.984      8.128
REMARK  2 active torsions:
REMARK  status: ('A' for Active; 'I' for Inactive)
REMARK    1  A    between atoms: C2_2  and  N2_5 
REMARK    2  A    between atoms: N2_5  and  C4_6 
ROOT
HETATM    1  C1  UNL     1      32.175   4.881  48.141  1.00  0.00     0.048 C 
HETATM    2  C2  UNL     1      31.493   6.199  48.412  1.00  0.00     0.185 C 
HETATM    3  C3  UNL     1      32.504   7.239  48.440  1.00  0.00     0.084 C 
HETATM    4  N1  UNL     1      33.302   8.068  48.443  1.00  0.00    -0.195 NA
ENDROOT
BRANCH   2   5
HETATM    5  N2  UNL     1      30.609   6.485  47.295  1.00  0.00    -0.373 N 
HETATM    6  H5  UNL     1      30.740   6.773  46.304  1.00  0.00     0.161 HD
BRANCH   5   7
HETATM    7  C4  UNL     1      29.326   6.304  47.817  1.00  0.00     0.037 C 
HETATM    8  C5  UNL     1      28.103   6.082  48.358  1.00  0.00     0.030 C 
HETATM    9  C6  UNL     1      26.698   6.293  48.551  1.00  0.00     0.007 C 
HETATM   10  C7  UNL     1      25.655   6.986  48.112  1.00  0.00    -0.061 C 
HETATM   11  C8  UNL     1      24.922   6.274  49.190  1.00  0.00     0.055 C 
HETATM   12  C15 UNL     1      25.108   7.983  47.123  1.00  0.00     0.154 C 
HETATM   13  C9  UNL     1      25.413   6.987  50.492  1.00  0.00     0.124 C 
HETATM   14  N3  UNL     1      26.621   7.795  50.255  1.00  0.00    -0.390 N 
HETATM   15  C10 UNL     1      27.454   8.354  49.254  1.00  0.00     0.051 C 
HETATM   16  H12 UNL     1      27.198   8.132  51.066  1.00  0.00     0.159 HD
HETATM   17  C11 UNL     1      27.185   8.689  47.935  1.00  0.00     0.052 C 
HETATM   18  C14 UNL     1      28.919   8.694  48.993  1.00  0.00     0.144 C 
HETATM   19  C12 UNL     1      28.104   8.301  46.804  1.00  0.00     0.042 C 
HETATM   20  N4  UNL     1      25.927   9.229  47.356  1.00  0.00    -0.384 N 
HETATM   21  C13 UNL     1      28.798   7.731  47.746  1.00  0.00    -0.009 C 
HETATM   22  H15 UNL     1      25.605  10.185  47.136  1.00  0.00     0.160 HD
HETATM   23 BR1  UNL     1      29.217  10.474  48.463  1.00  0.00    -0.079 Br
ENDBRANCH   5   7
ENDBRANCH   2   5
TORSDOF 2
ENDMDL
MODEL 9
REMARK VINA RESULT:      -6.2      1.885      5.716
REMARK  2 active torsions:
REMARK  status: ('A' for Active; 'I' for Inactive)
REMARK    1  A    between atoms: C2_2  and  N2_5 
REMARK    2  A    between atoms: N2_5  and  C4_6 
ROOT
HETATM    1  C1  UNL     1      20.315   0.326  53.693  1.00  0.00     0.048 C 
HETATM    2  C2  UNL     1      20.606   0.983  52.367  1.00  0.00     0.185 C 
HETATM    3  C3  UNL     1      19.443   1.760  51.977  1.00  0.00     0.084 C 
HETATM    4  N1  UNL     1      18.530   2.392  51.677  1.00  0.00    -0.195 NA
ENDROOT
BRANCH   2   5
HETATM    5  N2  UNL     1      21.704   1.915  52.558  1.00  0.00    -0.373 N 
HETATM    6  H5  UNL     1      21.815   2.948  52.502  1.00  0.00     0.161 HD
BRANCH   5   7
HETATM    7  C4  UNL     1      22.794   1.100  52.873  1.00  0.00     0.037 C 
HETATM    8  C5  UNL     1      23.818   0.260  53.161  1.00  0.00     0.030 C 
HETATM    9  C6  UNL     1      25.131  -0.098  53.616  1.00  0.00     0.007 C 
HETATM   10  C7  UNL     1      26.239   0.388  54.160  1.00  0.00    -0.061 C 
HETATM   11  C8  UNL     1      26.738  -1.003  54.015  1.00  0.00     0.055 C 
HETATM   12  C15 UNL     1      26.961   1.575  54.745  1.00  0.00     0.154 C 
HETATM   13  C9  UNL     1      27.015  -1.128  52.482  1.00  0.00     0.124 C 
HETATM   14  N3  UNL     1      26.377  -0.044  51.716  1.00  0.00    -0.390 N 
HETATM   15  C10 UNL     1      25.736   1.216  51.820  1.00  0.00     0.051 C 
HETATM   16  H12 UNL     1      26.271  -0.125  50.674  1.00  0.00     0.159 HD
HETATM   17  C11 UNL     1      25.809   2.191  52.805  1.00  0.00     0.052 C 
HETATM   18  C14 UNL     1      24.640   2.041  51.150  1.00  0.00     0.144 C 
HETATM   19  C12 UNL     1      24.580   2.852  53.375  1.00  0.00     0.042 C 
HETATM   20  N4  UNL     1      26.983   2.588  53.626  1.00  0.00    -0.384 N 
HETATM   21  C13 UNL     1      23.944   2.052  52.569  1.00  0.00    -0.009 C 
HETATM   22  H15 UNL     1      27.684   3.339  53.537  1.00  0.00     0.160 HD
HETATM   23 BR1  UNL     1      25.180   3.767  50.633  1.00  0.00    -0.079 Br
ENDBRANCH   5   7
ENDBRANCH   2   5
TORSDOF 2
ENDMDL
