MODEL 1
REMARK VINA RESULT:      -9.0      0.000      0.000
REMARK  5 active torsions:
REMARK  status: ('A' for Active; 'I' for Inactive)
REMARK    1  A    between atoms: C2_2  and  O1_4 
REMARK    2  A    between atoms: O1_4  and  C4_5 
REMARK    3  A    between atoms: C10_13  and  N1_14 
REMARK    4  A    between atoms: N1_14  and  N2_15 
REMARK    5  A    between atoms: N2_15  and  C11_16 
ROOT
HETATM    1  C11 UNL     1      26.650   1.545  53.473  1.00  0.00     0.049 A 
HETATM    2  C12 UNL     1      27.707   2.395  53.642  1.00  0.00     0.034 A 
HETATM    3  C13 UNL     1      28.979   1.881  53.681  1.00  0.00     0.046 A 
HETATM    4  C14 UNL     1      29.213   0.528  53.555  1.00  0.00     0.137 A 
HETATM    5  F1  UNL     1      30.505   0.124  53.609  1.00  0.00    -0.204 F 
HETATM    6  C15 UNL     1      28.161  -0.352  53.384  1.00  0.00     0.085 A 
HETATM    7  C16 UNL     1      28.444  -1.752  53.257  1.00  0.00     0.102 C 
HETATM    8  N3  UNL     1      28.669  -2.894  53.168  1.00  0.00    -0.191 NA
HETATM    9  C17 UNL     1      26.875   0.169  53.343  1.00  0.00     0.056 A 
ENDROOT
BRANCH   1  10
HETATM   10  N2  UNL     1      25.237   1.810  53.398  1.00  0.00    -0.299 N 
HETATM   11  H14 UNL     1      25.188   2.810  53.717  1.00  0.00     0.187 HD
BRANCH  10  12
HETATM   12  N1  UNL     1      24.284   0.878  52.986  1.00  0.00    -0.283 N 
HETATM   13  H13 UNL     1      24.510   0.834  51.971  1.00  0.00     0.188 HD
BRANCH  12  14
HETATM   14  C10 UNL     1      23.248   0.111  53.583  1.00  0.00     0.158 A 
HETATM   15  C9  UNL     1      21.951   0.447  53.270  1.00  0.00     0.075 A 
HETATM   16  C6  UNL     1      21.350   1.455  52.425  1.00  0.00     0.117 A 
HETATM   17  C19 UNL     1      20.989  -0.326  53.874  1.00  0.00     0.088 A 
HETATM   18  C5  UNL     1      20.039   1.287  52.525  1.00  0.00     0.115 A 
HETATM   19  O2  UNL     1      21.844   2.462  51.614  1.00  0.00    -0.345 OA
HETATM   20  C4  UNL     1      19.665   0.177  53.424  1.00  0.00     0.234 A 
HETATM   21  O3  UNL     1      19.325   2.206  51.750  1.00  0.00    -0.347 OA
HETATM   22  C8  UNL     1      19.740   3.575  51.712  1.00  0.00     0.202 C 
HETATM   23  C7  UNL     1      21.194   3.695  51.401  1.00  0.00     0.202 C 
HETATM   24  N5  UNL     1      21.301  -1.340  54.715  1.00  0.00    -0.242 NA
HETATM   25  C18 UNL     1      22.586  -1.645  55.004  1.00  0.00     0.235 A 
HETATM   26  N4  UNL     1      23.548  -0.896  54.418  1.00  0.00    -0.222 NA
BRANCH  20  27
HETATM   27  O1  UNL     1      19.025  -0.861  52.771  1.00  0.00    -0.368 OA
BRANCH  27  28
HETATM   28  C2  UNL     1      17.872  -1.306  53.369  1.00  0.00     0.114 C 
HETATM   29  C1  UNL     1      17.819  -2.739  53.743  1.00  0.00     0.039 C 
HETATM   30  C3  UNL     1      16.727  -1.000  52.417  1.00  0.00     0.039 C 
ENDBRANCH  27  28
ENDBRANCH  20  27
ENDBRANCH  12  14
ENDBRANCH  10  12
ENDBRANCH   1  10
TORSDOF 5
ENDMDL
MODEL 2
REMARK VINA RESULT:      -8.8      1.847      2.724
REMARK  5 active torsions:
REMARK  status: ('A' for Active; 'I' for Inactive)
REMARK    1  A    between atoms: C2_2  and  O1_4 
REMARK    2  A    between atoms: O1_4  and  C4_5 
REMARK    3  A    between atoms: C10_13  and  N1_14 
REMARK    4  A    between atoms: N1_14  and  N2_15 
REMARK    5  A    between atoms: N2_15  and  C11_16 
ROOT
HETATM    1  C11 UNL     1      26.851  -1.166  52.919  1.00  0.00     0.049 A 
HETATM    2  C12 UNL     1      27.678  -2.241  52.748  1.00  0.00     0.034 A 
HETATM    3  C13 UNL     1      28.990  -2.145  53.140  1.00  0.00     0.046 A 
HETATM    4  C14 UNL     1      29.492  -0.989  53.699  1.00  0.00     0.137 A 
HETATM    5  F1  UNL     1      30.800  -0.999  54.050  1.00  0.00    -0.204 F 
HETATM    6  C15 UNL     1      28.676   0.112  53.882  1.00  0.00     0.085 A 
HETATM    7  C16 UNL     1      29.234   1.297  54.467  1.00  0.00     0.102 C 
HETATM    8  N3  UNL     1      29.689   2.267  54.929  1.00  0.00    -0.191 NA
HETATM    9  C17 UNL     1      27.349   0.013  53.487  1.00  0.00     0.056 A 
ENDROOT
BRANCH   1  10
HETATM   10  N2  UNL     1      25.457  -0.995  52.602  1.00  0.00    -0.299 N 
HETATM   11  H14 UNL     1      25.445  -1.197  51.570  1.00  0.00     0.187 HD
BRANCH  10  12
HETATM   12  N1  UNL     1      24.478  -0.648  53.532  1.00  0.00    -0.283 N 
HETATM   13  H13 UNL     1      25.085  -0.347  54.322  1.00  0.00     0.188 HD
BRANCH  12  14
HETATM   14  C10 UNL     1      23.058  -0.629  53.596  1.00  0.00     0.158 A 
HETATM   15  C9  UNL     1      22.398   0.229  52.748  1.00  0.00     0.075 A 
HETATM   16  C6  UNL     1      22.826   1.175  51.741  1.00  0.00     0.117 A 
HETATM   17  C19 UNL     1      21.028   0.207  52.851  1.00  0.00     0.088 A 
HETATM   18  C5  UNL     1      21.720   1.715  51.248  1.00  0.00     0.115 A 
HETATM   19  O2  UNL     1      24.055   1.578  51.249  1.00  0.00    -0.345 OA
HETATM   20  C4  UNL     1      20.491   1.186  51.870  1.00  0.00     0.234 A 
HETATM   21  O3  UNL     1      21.990   2.660  50.253  1.00  0.00    -0.347 OA
HETATM   22  C8  UNL     1      23.068   3.583  50.425  1.00  0.00     0.202 C 
HETATM   23  C7  UNL     1      24.333   2.883  50.792  1.00  0.00     0.202 C 
HETATM   24  N5  UNL     1      20.383  -0.600  53.726  1.00  0.00    -0.242 NA
HETATM   25  C18 UNL     1      21.061  -1.431  54.549  1.00  0.00     0.235 A 
HETATM   26  N4  UNL     1      22.412  -1.425  54.461  1.00  0.00    -0.222 NA
BRANCH  20  27
HETATM   27  O1  UNL     1      19.688   0.490  50.985  1.00  0.00    -0.368 OA
BRANCH  27  28
HETATM   28  C2  UNL     1      18.352   0.801  51.038  1.00  0.00     0.114 C 
HETATM   29  C1  UNL     1      17.402  -0.330  51.156  1.00  0.00     0.039 C 
HETATM   30  C3  UNL     1      18.026   1.591  49.780  1.00  0.00     0.039 C 
ENDBRANCH  27  28
ENDBRANCH  20  27
ENDBRANCH  12  14
ENDBRANCH  10  12
ENDBRANCH   1  10
TORSDOF 5
ENDMDL
MODEL 3
REMARK VINA RESULT:      -8.7      3.746      8.240
REMARK  5 active torsions:
REMARK  status: ('A' for Active; 'I' for Inactive)
REMARK    1  A    between atoms: C2_2  and  O1_4 
REMARK    2  A    between atoms: O1_4  and  C4_5 
REMARK    3  A    between atoms: C10_13  and  N1_14 
REMARK    4  A    between atoms: N1_14  and  N2_15 
REMARK    5  A    between atoms: N2_15  and  C11_16 
ROOT
HETATM    1  C11 UNL     1      20.286   1.110  51.515  1.00  0.00     0.049 A 
HETATM    2  C12 UNL     1      19.535   1.420  50.415  1.00  0.00     0.034 A 
HETATM    3  C13 UNL     1      18.339   0.776  50.219  1.00  0.00     0.046 A 
HETATM    4  C14 UNL     1      17.880  -0.176  51.104  1.00  0.00     0.137 A 
HETATM    5  F1  UNL     1      16.688  -0.752  50.816  1.00  0.00    -0.204 F 
HETATM    6  C15 UNL     1      18.621  -0.508  52.222  1.00  0.00     0.085 A 
HETATM    7  C16 UNL     1      18.111  -1.504  53.120  1.00  0.00     0.102 C 
HETATM    8  N3  UNL     1      17.705  -2.324  53.844  1.00  0.00    -0.191 NA
HETATM    9  C17 UNL     1      19.830   0.145  52.421  1.00  0.00     0.056 A 
ENDROOT
BRANCH   1  10
HETATM   10  N2  UNL     1      21.557   1.621  51.957  1.00  0.00    -0.299 N 
HETATM   11  H14 UNL     1      21.319   1.992  52.912  1.00  0.00     0.187 HD
BRANCH  10  12
HETATM   12  N1  UNL     1      22.729   1.571  51.202  1.00  0.00    -0.283 N 
HETATM   13  H13 UNL     1      22.333   1.286  50.283  1.00  0.00     0.188 HD
BRANCH  12  14
HETATM   14  C10 UNL     1      24.116   1.795  51.411  1.00  0.00     0.158 A 
HETATM   15  C9  UNL     1      24.742   1.037  52.374  1.00  0.00     0.075 A 
HETATM   16  C6  UNL     1      24.301   0.000  53.281  1.00  0.00     0.117 A 
HETATM   17  C19 UNL     1      26.082   1.294  52.535  1.00  0.00     0.088 A 
HETATM   18  C5  UNL     1      25.369  -0.358  53.979  1.00  0.00     0.115 A 
HETATM   19  O2  UNL     1      23.090  -0.622  53.528  1.00  0.00    -0.345 OA
HETATM   20  C4  UNL     1      26.584   0.392  53.605  1.00  0.00     0.234 A 
HETATM   21  O3  UNL     1      25.083  -1.366  54.906  1.00  0.00    -0.347 OA
HETATM   22  C8  UNL     1      23.876  -1.305  55.670  1.00  0.00     0.202 C 
HETATM   23  C7  UNL     1      22.687  -1.092  54.795  1.00  0.00     0.202 C 
HETATM   24  N5  UNL     1      26.732   2.226  51.799  1.00  0.00    -0.242 NA
HETATM   25  C18 UNL     1      26.088   2.956  50.860  1.00  0.00     0.235 A 
HETATM   26  N4  UNL     1      24.767   2.717  50.686  1.00  0.00    -0.222 NA
BRANCH  20  27
HETATM   27  O1  UNL     1      27.567  -0.405  53.049  1.00  0.00    -0.368 OA
BRANCH  27  28
HETATM   28  C2  UNL     1      28.839  -0.176  53.514  1.00  0.00     0.114 C 
HETATM   29  C1  UNL     1      29.764  -1.333  53.538  1.00  0.00     0.039 C 
HETATM   30  C3  UNL     1      28.707   0.381  54.923  1.00  0.00     0.039 C 
ENDBRANCH  27  28
ENDBRANCH  20  27
ENDBRANCH  12  14
ENDBRANCH  10  12
ENDBRANCH   1  10
TORSDOF 5
ENDMDL
MODEL 4
REMARK VINA RESULT:      -8.7      2.403      3.848
REMARK  5 active torsions:
REMARK  status: ('A' for Active; 'I' for Inactive)
REMARK    1  A    between atoms: C2_2  and  O1_4 
REMARK    2  A    between atoms: O1_4  and  C4_5 
REMARK    3  A    between atoms: C10_13  and  N1_14 
REMARK    4  A    between atoms: N1_14  and  N2_15 
REMARK    5  A    between atoms: N2_15  and  C11_16 
ROOT
HETATM    1  C11 UNL     1      27.523   2.174  52.515  1.00  0.00     0.049 A 
HETATM    2  C12 UNL     1      28.437   2.481  53.485  1.00  0.00     0.034 A 
HETATM    3  C13 UNL     1      29.027   1.466  54.194  1.00  0.00     0.046 A 
HETATM    4  C14 UNL     1      28.718   0.144  53.952  1.00  0.00     0.137 A 
HETATM    5  F1  UNL     1      29.357  -0.780  54.709  1.00  0.00    -0.204 F 
HETATM    6  C15 UNL     1      27.798  -0.193  52.978  1.00  0.00     0.085 A 
HETATM    7  C16 UNL     1      27.503  -1.579  52.755  1.00  0.00     0.102 C 
HETATM    8  N3  UNL     1      27.249  -2.705  52.580  1.00  0.00    -0.191 NA
HETATM    9  C17 UNL     1      27.202   0.835  52.260  1.00  0.00     0.056 A 
ENDROOT
BRANCH   1  10
HETATM   10  N2  UNL     1      26.765   3.026  51.636  1.00  0.00    -0.299 N 
HETATM   11  H14 UNL     1      27.522   3.453  51.046  1.00  0.00     0.187 HD
BRANCH  10  12
HETATM   12  N1  UNL     1      25.377   3.154  51.673  1.00  0.00    -0.283 N 
HETATM   13  H13 UNL     1      25.251   3.403  52.675  1.00  0.00     0.188 HD
BRANCH  12  14
HETATM   14  C10 UNL     1      24.293   3.031  50.762  1.00  0.00     0.158 A 
HETATM   15  C9  UNL     1      23.321   2.102  51.056  1.00  0.00     0.075 A 
HETATM   16  C6  UNL     1      23.124   1.162  52.137  1.00  0.00     0.117 A 
HETATM   17  C19 UNL     1      22.297   2.026  50.144  1.00  0.00     0.088 A 
HETATM   18  C5  UNL     1      21.991   0.527  51.871  1.00  0.00     0.115 A 
HETATM   19  O2  UNL     1      23.831   0.837  53.281  1.00  0.00    -0.345 OA
HETATM   20  C4  UNL     1      21.353   0.981  50.620  1.00  0.00     0.234 A 
HETATM   21  O3  UNL     1      21.674  -0.423  52.847  1.00  0.00    -0.347 OA
HETATM   22  C8  UNL     1      22.704  -1.259  53.384  1.00  0.00     0.202 C 
HETATM   23  C7  UNL     1      23.874  -0.456  53.843  1.00  0.00     0.202 C 
HETATM   24  N5  UNL     1      22.254   2.807  49.039  1.00  0.00    -0.242 NA
HETATM   25  C18 UNL     1      23.225   3.711  48.778  1.00  0.00     0.235 A 
HETATM   26  N4  UNL     1      24.243   3.802  49.665  1.00  0.00    -0.222 NA
BRANCH  20  27
HETATM   27  O1  UNL     1      20.128   1.590  50.823  1.00  0.00    -0.368 OA
BRANCH  27  28
HETATM   28  C2  UNL     1      19.041   0.881  50.374  1.00  0.00     0.114 C 
HETATM   29  C1  UNL     1      18.052   1.616  49.551  1.00  0.00     0.039 C 
HETATM   30  C3  UNL     1      18.340   0.312  51.598  1.00  0.00     0.039 C 
ENDBRANCH  27  28
ENDBRANCH  20  27
ENDBRANCH  12  14
ENDBRANCH  10  12
ENDBRANCH   1  10
TORSDOF 5
ENDMDL
MODEL 5
REMARK VINA RESULT:      -8.5      4.635      5.949
REMARK  5 active torsions:
REMARK  status: ('A' for Active; 'I' for Inactive)
REMARK    1  A    between atoms: C2_2  and  O1_4 
REMARK    2  A    between atoms: O1_4  and  C4_5 
REMARK    3  A    between atoms: C10_13  and  N1_14 
REMARK    4  A    between atoms: N1_14  and  N2_15 
REMARK    5  A    between atoms: N2_15  and  C11_16 
ROOT
HETATM    1  C11 UNL     1      26.722   4.952  48.969  1.00  0.00     0.049 A 
HETATM    2  C12 UNL     1      25.843   5.981  48.769  1.00  0.00     0.034 A 
HETATM    3  C13 UNL     1      26.293   7.143  48.196  1.00  0.00     0.046 A 
HETATM    4  C14 UNL     1      27.610   7.298  47.818  1.00  0.00     0.137 A 
HETATM    5  F1  UNL     1      27.950   8.485  47.262  1.00  0.00    -0.204 F 
HETATM    6  C15 UNL     1      28.518   6.274  48.010  1.00  0.00     0.085 A 
HETATM    7  C16 UNL     1      29.879   6.471  47.605  1.00  0.00     0.102 C 
HETATM    8  N3  UNL     1      30.992   6.634  47.290  1.00  0.00    -0.191 NA
HETATM    9  C17 UNL     1      28.062   5.098  48.589  1.00  0.00     0.056 A 
ENDROOT
BRANCH   1  10
HETATM   10  N2  UNL     1      26.523   3.646  49.541  1.00  0.00    -0.299 N 
HETATM   11  H14 UNL     1      26.180   3.099  48.712  1.00  0.00     0.187 HD
BRANCH  10  12
HETATM   12  N1  UNL     1      26.766   3.330  50.878  1.00  0.00    -0.283 N 
HETATM   13  H13 UNL     1      27.401   4.114  51.130  1.00  0.00     0.188 HD
BRANCH  12  14
HETATM   14  C10 UNL     1      26.379   2.319  51.798  1.00  0.00     0.158 A 
HETATM   15  C9  UNL     1      25.038   2.205  52.087  1.00  0.00     0.075 A 
HETATM   16  C6  UNL     1      23.853   2.909  51.651  1.00  0.00     0.117 A 
HETATM   17  C19 UNL     1      24.720   1.212  52.982  1.00  0.00     0.088 A 
HETATM   18  C5  UNL     1      22.834   2.342  52.281  1.00  0.00     0.115 A 
HETATM   19  O2  UNL     1      23.613   3.960  50.783  1.00  0.00    -0.345 OA
HETATM   20  C4  UNL     1      23.246   1.238  53.170  1.00  0.00     0.234 A 
HETATM   21  O3  UNL     1      21.610   2.932  51.949  1.00  0.00    -0.347 OA
HETATM   22  C8  UNL     1      21.515   4.355  51.840  1.00  0.00     0.202 C 
HETATM   23  C7  UNL     1      22.582   4.906  50.955  1.00  0.00     0.202 C 
HETATM   24  N5  UNL     1      25.660   0.411  53.536  1.00  0.00    -0.242 NA
HETATM   25  C18 UNL     1      26.970   0.549  53.232  1.00  0.00     0.235 A 
HETATM   26  N4  UNL     1      27.304   1.521  52.352  1.00  0.00    -0.222 NA
BRANCH  20  27
HETATM   27  O1  UNL     1      22.755   0.007  52.774  1.00  0.00    -0.368 OA
BRANCH  27  28
HETATM   28  C2  UNL     1      21.869  -0.577  53.645  1.00  0.00     0.114 C 
HETATM   29  C1  UNL     1      20.801   0.287  54.200  1.00  0.00     0.039 C 
HETATM   30  C3  UNL     1      22.684  -1.153  54.793  1.00  0.00     0.039 C 
ENDBRANCH  27  28
ENDBRANCH  20  27
ENDBRANCH  12  14
ENDBRANCH  10  12
ENDBRANCH   1  10
TORSDOF 5
ENDMDL
MODEL 6
REMARK VINA RESULT:      -8.5      5.291      7.076
REMARK  5 active torsions:
REMARK  status: ('A' for Active; 'I' for Inactive)
REMARK    1  A    between atoms: C2_2  and  O1_4 
REMARK    2  A    between atoms: O1_4  and  C4_5 
REMARK    3  A    between atoms: C10_13  and  N1_14 
REMARK    4  A    between atoms: N1_14  and  N2_15 
REMARK    5  A    between atoms: N2_15  and  C11_16 
ROOT
HETATM    1  C11 UNL     1      27.189   5.468  48.798  1.00  0.00     0.049 A 
HETATM    2  C12 UNL     1      26.172   6.336  48.513  1.00  0.00     0.034 A 
HETATM    3  C13 UNL     1      26.435   7.451  47.759  1.00  0.00     0.046 A 
HETATM    4  C14 UNL     1      27.702   7.716  47.284  1.00  0.00     0.137 A 
HETATM    5  F1  UNL     1      27.854   8.845  46.550  1.00  0.00    -0.204 F 
HETATM    6  C15 UNL     1      28.748   6.855  47.558  1.00  0.00     0.085 A 
HETATM    7  C16 UNL     1      30.051   7.164  47.046  1.00  0.00     0.102 C 
HETATM    8  N3  UNL     1      31.116   7.420  46.644  1.00  0.00    -0.191 NA
HETATM    9  C17 UNL     1      28.480   5.726  48.320  1.00  0.00     0.056 A 
ENDROOT
BRANCH   1  10
HETATM   10  N2  UNL     1      27.193   4.243  49.555  1.00  0.00    -0.299 N 
HETATM   11  H14 UNL     1      28.039   3.754  49.168  1.00  0.00     0.187 HD
BRANCH  10  12
HETATM   12  N1  UNL     1      26.248   3.919  50.528  1.00  0.00    -0.283 N 
HETATM   13  H13 UNL     1      26.607   4.492  51.319  1.00  0.00     0.188 HD
BRANCH  12  14
HETATM   14  C10 UNL     1      25.091   3.100  50.628  1.00  0.00     0.158 A 
HETATM   15  C9  UNL     1      25.060   2.169  51.641  1.00  0.00     0.075 A 
HETATM   16  C6  UNL     1      25.978   1.800  52.695  1.00  0.00     0.117 A 
HETATM   17  C19 UNL     1      23.919   1.405  51.691  1.00  0.00     0.088 A 
HETATM   18  C5  UNL     1      25.390   0.822  53.370  1.00  0.00     0.115 A 
HETATM   19  O2  UNL     1      27.230   2.238  53.088  1.00  0.00    -0.345 OA
HETATM   20  C4  UNL     1      24.062   0.466  52.835  1.00  0.00     0.234 A 
HETATM   21  O3  UNL     1      26.177   0.364  54.432  1.00  0.00    -0.347 OA
HETATM   22  C8  UNL     1      27.584   0.187  54.247  1.00  0.00     0.202 C 
HETATM   23  C7  UNL     1      28.214   1.405  53.660  1.00  0.00     0.202 C 
HETATM   24  N5  UNL     1      22.905   1.561  50.807  1.00  0.00    -0.242 NA
HETATM   25  C18 UNL     1      22.967   2.485  49.822  1.00  0.00     0.235 A 
HETATM   26  N4  UNL     1      24.082   3.248  49.756  1.00  0.00    -0.222 NA
BRANCH  20  27
HETATM   27  O1  UNL     1      23.030   0.726  53.718  1.00  0.00    -0.368 OA
BRANCH  27  28
HETATM   28  C2  UNL     1      22.111  -0.284  53.857  1.00  0.00     0.114 C 
HETATM   29  C1  UNL     1      20.712   0.114  54.141  1.00  0.00     0.039 C 
HETATM   30  C3  UNL     1      22.604  -1.188  54.977  1.00  0.00     0.039 C 
ENDBRANCH  27  28
ENDBRANCH  20  27
ENDBRANCH  12  14
ENDBRANCH  10  12
ENDBRANCH   1  10
TORSDOF 5
ENDMDL
MODEL 7
REMARK VINA RESULT:      -8.5      4.480      6.123
REMARK  5 active torsions:
REMARK  status: ('A' for Active; 'I' for Inactive)
REMARK    1  A    between atoms: C2_2  and  O1_4 
REMARK    2  A    between atoms: O1_4  and  C4_5 
REMARK    3  A    between atoms: C10_13  and  N1_14 
REMARK    4  A    between atoms: N1_14  and  N2_15 
REMARK    5  A    between atoms: N2_15  and  C11_16 
ROOT
HETATM    1  C11 UNL     1      26.994   4.770  49.008  1.00  0.00     0.049 A 
HETATM    2  C12 UNL     1      28.238   5.083  48.536  1.00  0.00     0.034 A 
HETATM    3  C13 UNL     1      28.445   6.310  47.958  1.00  0.00     0.046 A 
HETATM    4  C14 UNL     1      27.427   7.233  47.842  1.00  0.00     0.137 A 
HETATM    5  F1  UNL     1      27.737   8.413  47.254  1.00  0.00    -0.204 F 
HETATM    6  C15 UNL     1      26.160   6.940  48.310  1.00  0.00     0.085 A 
HETATM    7  C16 UNL     1      25.126   7.925  48.172  1.00  0.00     0.102 C 
HETATM    8  N3  UNL     1      24.279   8.718  48.047  1.00  0.00    -0.191 NA
HETATM    9  C17 UNL     1      25.952   5.699  48.896  1.00  0.00     0.056 A 
ENDROOT
BRANCH   1  10
HETATM   10  N2  UNL     1      26.506   3.575  49.647  1.00  0.00    -0.299 N 
HETATM   11  H14 UNL     1      25.976   3.114  48.865  1.00  0.00     0.187 HD
BRANCH  10  12
HETATM   12  N1  UNL     1      26.753   3.242  50.979  1.00  0.00    -0.283 N 
HETATM   13  H13 UNL     1      27.392   4.021  51.239  1.00  0.00     0.188 HD
BRANCH  12  14
HETATM   14  C10 UNL     1      26.365   2.221  51.889  1.00  0.00     0.158 A 
HETATM   15  C9  UNL     1      25.024   2.099  52.169  1.00  0.00     0.075 A 
HETATM   16  C6  UNL     1      23.838   2.802  51.734  1.00  0.00     0.117 A 
HETATM   17  C19 UNL     1      24.706   1.097  53.054  1.00  0.00     0.088 A 
HETATM   18  C5  UNL     1      22.818   2.225  52.354  1.00  0.00     0.115 A 
HETATM   19  O2  UNL     1      23.598   3.859  50.874  1.00  0.00    -0.345 OA
HETATM   20  C4  UNL     1      23.230   1.115  53.235  1.00  0.00     0.234 A 
HETATM   21  O3  UNL     1      21.594   2.812  52.021  1.00  0.00    -0.347 OA
HETATM   22  C8  UNL     1      21.493   4.236  51.924  1.00  0.00     0.202 C 
HETATM   23  C7  UNL     1      22.562   4.800  51.049  1.00  0.00     0.202 C 
HETATM   24  N5  UNL     1      25.646   0.295  53.606  1.00  0.00    -0.242 NA
HETATM   25  C18 UNL     1      26.958   0.441  53.310  1.00  0.00     0.235 A 
HETATM   26  N4  UNL     1      27.292   1.422  52.440  1.00  0.00    -0.222 NA
BRANCH  20  27
HETATM   27  O1  UNL     1      22.747  -0.114  52.826  1.00  0.00    -0.368 OA
BRANCH  27  28
HETATM   28  C2  UNL     1      21.838  -0.697  53.674  1.00  0.00     0.114 C 
HETATM   29  C1  UNL     1      20.703   0.143  54.124  1.00  0.00     0.039 C 
HETATM   30  C3  UNL     1      22.608  -1.182  54.892  1.00  0.00     0.039 C 
ENDBRANCH  27  28
ENDBRANCH  20  27
ENDBRANCH  12  14
ENDBRANCH  10  12
ENDBRANCH   1  10
TORSDOF 5
ENDMDL
MODEL 8
REMARK VINA RESULT:      -8.4      4.885      8.190
REMARK  5 active torsions:
REMARK  status: ('A' for Active; 'I' for Inactive)
REMARK    1  A    between atoms: C2_2  and  O1_4 
REMARK    2  A    between atoms: O1_4  and  C4_5 
REMARK    3  A    between atoms: C10_13  and  N1_14 
REMARK    4  A    between atoms: N1_14  and  N2_15 
REMARK    5  A    between atoms: N2_15  and  C11_16 
ROOT
HETATM    1  C11 UNL     1      23.246   1.411  51.357  1.00  0.00     0.049 A 
HETATM    2  C12 UNL     1      22.008   0.834  51.420  1.00  0.00     0.034 A 
HETATM    3  C13 UNL     1      21.774  -0.147  52.350  1.00  0.00     0.046 A 
HETATM    4  C14 UNL     1      22.757  -0.563  53.222  1.00  0.00     0.137 A 
HETATM    5  F1  UNL     1      22.422  -1.538  54.101  1.00  0.00    -0.204 F 
HETATM    6  C15 UNL     1      24.017   0.004  53.179  1.00  0.00     0.085 A 
HETATM    7  C16 UNL     1      25.014  -0.455  54.101  1.00  0.00     0.102 C 
HETATM    8  N3  UNL     1      25.833  -0.837  54.841  1.00  0.00    -0.191 NA
HETATM    9  C17 UNL     1      24.253   0.997  52.238  1.00  0.00     0.056 A 
ENDROOT
BRANCH   1  10
HETATM   10  N2  UNL     1      23.757   2.443  50.493  1.00  0.00    -0.299 N 
HETATM   11  H14 UNL     1      22.919   2.657  49.895  1.00  0.00     0.187 HD
BRANCH  10  12
HETATM   12  N1  UNL     1      25.060   2.937  50.547  1.00  0.00    -0.283 N 
HETATM   13  H13 UNL     1      25.464   2.288  51.253  1.00  0.00     0.188 HD
BRANCH  12  14
HETATM   14  C10 UNL     1      25.810   3.974  49.929  1.00  0.00     0.158 A 
HETATM   15  C9  UNL     1      25.309   5.253  50.011  1.00  0.00     0.075 A 
HETATM   16  C6  UNL     1      24.130   5.833  50.614  1.00  0.00     0.117 A 
HETATM   17  C19 UNL     1      26.073   6.216  49.398  1.00  0.00     0.088 A 
HETATM   18  C5  UNL     1      24.188   7.133  50.361  1.00  0.00     0.115 A 
HETATM   19  O2  UNL     1      23.060   5.330  51.334  1.00  0.00    -0.345 OA
HETATM   20  C4  UNL     1      25.384   7.519  49.587  1.00  0.00     0.234 A 
HETATM   21  O3  UNL     1      23.096   7.826  50.894  1.00  0.00    -0.347 OA
HETATM   22  C8  UNL     1      21.784   7.267  50.793  1.00  0.00     0.202 C 
HETATM   23  C7  UNL     1      21.753   5.857  51.278  1.00  0.00     0.202 C 
HETATM   24  N5  UNL     1      27.230   5.921  48.760  1.00  0.00    -0.242 NA
HETATM   25  C18 UNL     1      27.696   4.653  48.696  1.00  0.00     0.235 A 
HETATM   26  N4  UNL     1      26.958   3.690  49.295  1.00  0.00    -0.222 NA
BRANCH  20  27
HETATM   27  O1  UNL     1      26.243   8.346  50.287  1.00  0.00    -0.368 OA
BRANCH  27  28
HETATM   28  C2  UNL     1      26.609   9.497  49.635  1.00  0.00     0.114 C 
HETATM   29  C1  UNL     1      26.112   9.671  48.249  1.00  0.00     0.039 C 
HETATM   30  C3  UNL     1      28.129   9.543  49.624  1.00  0.00     0.039 C 
ENDBRANCH  27  28
ENDBRANCH  20  27
ENDBRANCH  12  14
ENDBRANCH  10  12
ENDBRANCH   1  10
TORSDOF 5
ENDMDL
MODEL 9
REMARK VINA RESULT:      -8.2      2.697      4.716
REMARK  5 active torsions:
REMARK  status: ('A' for Active; 'I' for Inactive)
REMARK    1  A    between atoms: C2_2  and  O1_4 
REMARK    2  A    between atoms: O1_4  and  C4_5 
REMARK    3  A    between atoms: C10_13  and  N1_14 
REMARK    4  A    between atoms: N1_14  and  N2_15 
REMARK    5  A    between atoms: N2_15  and  C11_16 
ROOT
HETATM    1  C11 UNL     1      25.847  -0.805  53.558  1.00  0.00     0.049 A 
HETATM    2  C12 UNL     1      26.466  -1.802  52.857  1.00  0.00     0.034 A 
HETATM    3  C13 UNL     1      27.829  -1.765  52.705  1.00  0.00     0.046 A 
HETATM    4  C14 UNL     1      28.587  -0.745  53.241  1.00  0.00     0.137 A 
HETATM    5  F1  UNL     1      29.924  -0.803  53.032  1.00  0.00    -0.204 F 
HETATM    6  C15 UNL     1      27.985   0.274  53.954  1.00  0.00     0.085 A 
HETATM    7  C16 UNL     1      28.805   1.318  54.497  1.00  0.00     0.102 C 
HETATM    8  N3  UNL     1      29.469   2.176  54.928  1.00  0.00    -0.191 NA
HETATM    9  C17 UNL     1      26.606   0.235  54.109  1.00  0.00     0.056 A 
ENDROOT
BRANCH   1  10
HETATM   10  N2  UNL     1      24.455  -0.599  53.864  1.00  0.00    -0.299 N 
HETATM   11  H14 UNL     1      24.179  -1.537  54.251  1.00  0.00     0.187 HD
BRANCH  10  12
HETATM   12  N1  UNL     1      23.773   0.599  53.649  1.00  0.00    -0.283 N 
HETATM   13  H13 UNL     1      24.272   1.208  54.330  1.00  0.00     0.188 HD
BRANCH  12  14
HETATM   14  C10 UNL     1      22.715   1.064  52.824  1.00  0.00     0.158 A 
HETATM   15  C9  UNL     1      23.058   1.748  51.680  1.00  0.00     0.075 A 
HETATM   16  C6  UNL     1      24.314   2.130  51.076  1.00  0.00     0.117 A 
HETATM   17  C19 UNL     1      21.996   2.174  50.919  1.00  0.00     0.088 A 
HETATM   18  C5  UNL     1      24.006   2.782  49.964  1.00  0.00     0.115 A 
HETATM   19  O2  UNL     1      25.645   1.958  51.415  1.00  0.00    -0.345 OA
HETATM   20  C4  UNL     1      22.552   2.885  49.738  1.00  0.00     0.234 A 
HETATM   21  O3  UNL     1      25.142   3.214  49.271  1.00  0.00    -0.347 OA
HETATM   22  C8  UNL     1      26.243   3.773  49.993  1.00  0.00     0.202 C 
HETATM   23  C7  UNL     1      26.662   2.888  51.118  1.00  0.00     0.202 C 
HETATM   24  N5  UNL     1      20.711   1.937  51.275  1.00  0.00    -0.242 NA
HETATM   25  C18 UNL     1      20.407   1.263  52.406  1.00  0.00     0.235 A 
HETATM   26  N4  UNL     1      21.439   0.834  53.169  1.00  0.00    -0.222 NA
BRANCH  20  27
HETATM   27  O1  UNL     1      22.126   2.210  48.608  1.00  0.00    -0.368 OA
BRANCH  27  28
HETATM   28  C2  UNL     1      21.590   3.000  47.622  1.00  0.00     0.114 C 
HETATM   29  C1  UNL     1      22.015   4.420  47.592  1.00  0.00     0.039 C 
HETATM   30  C3  UNL     1      20.078   2.940  47.772  1.00  0.00     0.039 C 
ENDBRANCH  27  28
ENDBRANCH  20  27
ENDBRANCH  12  14
ENDBRANCH  10  12
ENDBRANCH   1  10
TORSDOF 5
ENDMDL
