MODEL 1
REMARK VINA RESULT:      -8.0      0.000      0.000
REMARK  4 active torsions:
REMARK  status: ('A' for Active; 'I' for Inactive)
REMARK    1  A    between atoms: C10_11  and  N2_12 
REMARK       I    between atoms: N2_12  and  C11_13 
REMARK    2  A    between atoms: C15_18  and  N3_19 
REMARK    3  A    between atoms: N3_19  and  C16_20 
REMARK    4  A    between atoms: C16_20  and  N4_21 
ROOT
HETATM    1  C1  UNL     1      22.593   2.112  48.617  1.00  0.00     0.017 C 
HETATM    2  C2  UNL     1      22.326   1.898  49.772  1.00  0.00    -0.079 C 
HETATM    3  C3  UNL     1      22.022   1.665  51.152  1.00  0.00     0.030 C 
HETATM    4  C4  UNL     1      20.935   0.945  51.374  1.00  0.00     0.023 C 
HETATM    5  C5  UNL     1      20.839   0.099  52.582  1.00  0.00     0.057 C 
HETATM    6  C6  UNL     1      21.901   0.148  53.352  1.00  0.00     0.139 C 
HETATM    7  N1  UNL     1      22.225  -0.506  54.546  1.00  0.00    -0.370 N 
HETATM    8  C7  UNL     1      22.929  -1.513  55.292  1.00  0.00     0.127 C 
HETATM    9  C8  UNL     1      24.414  -1.309  55.318  1.00  0.00     0.020 C 
HETATM   10  C9  UNL     1      24.926  -0.293  54.606  1.00  0.00     0.048 C 
HETATM   11  C10 UNL     1      26.109   0.501  54.149  1.00  0.00     0.003 C 
HETATM   12  C13 UNL     1      25.191   1.229  53.452  1.00  0.00     0.069 C 
HETATM   13  C14 UNL     1      25.300   2.411  52.542  1.00  0.00     0.015 C 
HETATM   14  C15 UNL     1      24.065   2.737  52.098  1.00  0.00     0.068 C 
HETATM   15  C17 UNL     1      22.761   2.130  52.339  1.00  0.00     0.223 C 
HETATM   16  O2  UNL     1      23.013   0.935  53.101  1.00  0.00    -0.319 OA
HETATM   17  H4  UNL     1      21.557   0.119  55.102  1.00  0.00     0.161 HD
ENDROOT
BRANCH  14  18
HETATM   18  N3  UNL     1      23.609   3.763  51.230  1.00  0.00    -0.228 NA
BRANCH  18  19
HETATM   19  C16 UNL     1      23.735   4.986  51.586  1.00  0.00     0.190 C 
BRANCH  19  20
HETATM   20  N4  UNL     1      24.120   5.979  52.311  1.00  0.00    -0.279 NA
HETATM   21  H15 UNL     1      25.153   6.069  52.539  1.00  0.00     0.189 HD
ENDBRANCH  19  20
ENDBRANCH  18  19
ENDBRANCH  14  18
BRANCH  11  22
HETATM   22  N2  UNL     1      27.559   0.382  54.447  1.00  0.00    -0.334 N 
HETATM   23  C11 UNL     1      28.196  -0.486  53.554  1.00  0.00     0.217 C 
HETATM   24  C12 UNL     1      29.657  -0.677  53.762  1.00  0.00     0.117 C 
HETATM   25  O1  UNL     1      27.462  -0.999  52.683  1.00  0.00    -0.274 OA
HETATM   26  H9  UNL     1      27.940   0.927  55.250  1.00  0.00     0.168 HD
ENDBRANCH  11  22
TORSDOF 4
ENDMDL
MODEL 2
REMARK VINA RESULT:      -7.7      2.094      6.673
REMARK  4 active torsions:
REMARK  status: ('A' for Active; 'I' for Inactive)
REMARK    1  A    between atoms: C10_11  and  N2_12 
REMARK       I    between atoms: N2_12  and  C11_13 
REMARK    2  A    between atoms: C15_18  and  N3_19 
REMARK    3  A    between atoms: N3_19  and  C16_20 
REMARK    4  A    between atoms: C16_20  and  N4_21 
ROOT
HETATM    1  C1  UNL     1      27.052  -2.091  52.693  1.00  0.00     0.017 C 
HETATM    2  C2  UNL     1      26.674  -0.954  52.578  1.00  0.00    -0.079 C 
HETATM    3  C3  UNL     1      26.209   0.396  52.459  1.00  0.00     0.030 C 
HETATM    4  C4  UNL     1      27.071   1.243  51.922  1.00  0.00     0.023 C 
HETATM    5  C5  UNL     1      26.585   2.412  51.159  1.00  0.00     0.057 C 
HETATM    6  C6  UNL     1      25.278   2.493  51.085  1.00  0.00     0.139 C 
HETATM    7  N1  UNL     1      24.429   3.406  50.448  1.00  0.00    -0.370 N 
HETATM    8  C7  UNL     1      23.540   3.784  49.384  1.00  0.00     0.127 C 
HETATM    9  C8  UNL     1      22.263   2.998  49.365  1.00  0.00     0.020 C 
HETATM   10  C9  UNL     1      22.116   2.007  50.257  1.00  0.00     0.048 C 
HETATM   11  C10 UNL     1      21.293   0.903  50.842  1.00  0.00     0.003 C 
HETATM   12  C13 UNL     1      22.363   0.712  51.664  1.00  0.00     0.069 C 
HETATM   13  C14 UNL     1      22.643  -0.253  52.772  1.00  0.00     0.015 C 
HETATM   14  C15 UNL     1      23.882  -0.015  53.258  1.00  0.00     0.068 C 
HETATM   15  C17 UNL     1      24.904   0.948  52.865  1.00  0.00     0.223 C 
HETATM   16  O2  UNL     1      24.403   1.601  51.683  1.00  0.00    -0.319 OA
HETATM   17  H4  UNL     1      24.625   4.150  51.193  1.00  0.00     0.161 HD
ENDROOT
BRANCH  14  18
HETATM   18  N3  UNL     1      24.628  -0.630  54.297  1.00  0.00    -0.228 NA
BRANCH  18  19
HETATM   19  C16 UNL     1      24.007  -1.152  55.287  1.00  0.00     0.190 C 
BRANCH  19  20
HETATM   20  N4  UNL     1      23.128  -1.873  55.892  1.00  0.00    -0.279 NA
HETATM   21  H15 UNL     1      23.416  -2.387  56.776  1.00  0.00     0.189 HD
ENDBRANCH  19  20
ENDBRANCH  18  19
ENDBRANCH  14  18
BRANCH  11  22
HETATM   22  N2  UNL     1      19.931   0.403  50.520  1.00  0.00    -0.334 N 
HETATM   23  C11 UNL     1      19.003   0.780  51.496  1.00  0.00     0.217 C 
HETATM   24  C12 UNL     1      17.602   0.332  51.271  1.00  0.00     0.117 C 
HETATM   25  O1  UNL     1      19.460   1.452  52.446  1.00  0.00    -0.274 OA
HETATM   26  H9  UNL     1      19.807  -0.149  49.646  1.00  0.00     0.168 HD
ENDBRANCH  11  22
TORSDOF 4
ENDMDL
MODEL 3
REMARK VINA RESULT:      -7.5      2.138      5.387
REMARK  4 active torsions:
REMARK  status: ('A' for Active; 'I' for Inactive)
REMARK    1  A    between atoms: C10_11  and  N2_12 
REMARK       I    between atoms: N2_12  and  C11_13 
REMARK    2  A    between atoms: C15_18  and  N3_19 
REMARK    3  A    between atoms: N3_19  and  C16_20 
REMARK    4  A    between atoms: C16_20  and  N4_21 
ROOT
HETATM    1  C1  UNL     1      25.090  -1.218  56.370  1.00  0.00     0.017 C 
HETATM    2  C2  UNL     1      24.249  -0.993  55.538  1.00  0.00    -0.079 C 
HETATM    3  C3  UNL     1      23.266  -0.730  54.530  1.00  0.00     0.030 C 
HETATM    4  C4  UNL     1      22.012  -0.923  54.903  1.00  0.00     0.023 C 
HETATM    5  C5  UNL     1      20.925  -0.129  54.291  1.00  0.00     0.057 C 
HETATM    6  C6  UNL     1      21.337   0.735  53.394  1.00  0.00     0.139 C 
HETATM    7  N1  UNL     1      20.655   1.679  52.617  1.00  0.00    -0.370 N 
HETATM    8  C7  UNL     1      20.257   3.026  52.316  1.00  0.00     0.127 C 
HETATM    9  C8  UNL     1      21.397   3.905  51.895  1.00  0.00     0.020 C 
HETATM   10  C9  UNL     1      22.636   3.390  51.917  1.00  0.00     0.048 C 
HETATM   11  C10 UNL     1      24.106   3.545  51.690  1.00  0.00     0.003 C 
HETATM   12  C13 UNL     1      24.181   2.255  52.127  1.00  0.00     0.069 C 
HETATM   13  C14 UNL     1      25.319   1.305  52.320  1.00  0.00     0.015 C 
HETATM   14  C15 UNL     1      24.836   0.134  52.795  1.00  0.00     0.068 C 
HETATM   15  C17 UNL     1      23.482  -0.280  53.142  1.00  0.00     0.223 C 
HETATM   16  O2  UNL     1      22.658   0.892  53.008  1.00  0.00    -0.319 OA
HETATM   17  H4  UNL     1      20.265   0.913  51.979  1.00  0.00     0.161 HD
ENDROOT
BRANCH  14  18
HETATM   18  N3  UNL     1      25.475  -1.084  53.143  1.00  0.00    -0.228 NA
BRANCH  18  19
HETATM   19  C16 UNL     1      26.736  -1.203  52.958  1.00  0.00     0.190 C 
BRANCH  19  20
HETATM   20  N4  UNL     1      27.950  -1.540  53.226  1.00  0.00    -0.279 NA
HETATM   21  H15 UNL     1      28.325  -2.448  52.821  1.00  0.00     0.189 HD
ENDBRANCH  19  20
ENDBRANCH  18  19
ENDBRANCH  14  18
BRANCH  11  22
HETATM   22  N2  UNL     1      24.920   4.686  51.198  1.00  0.00    -0.334 N 
HETATM   23  C11 UNL     1      25.305   4.505  49.866  1.00  0.00     0.217 C 
HETATM   24  C12 UNL     1      26.125   5.594  49.270  1.00  0.00     0.117 C 
HETATM   25  O1  UNL     1      24.914   3.446  49.329  1.00  0.00    -0.274 OA
HETATM   26  H9  UNL     1      25.113   5.469  51.858  1.00  0.00     0.168 HD
ENDBRANCH  11  22
TORSDOF 4
ENDMDL
MODEL 4
REMARK VINA RESULT:      -7.3      2.363      5.533
REMARK  4 active torsions:
REMARK  status: ('A' for Active; 'I' for Inactive)
REMARK    1  A    between atoms: C10_11  and  N2_12 
REMARK       I    between atoms: N2_12  and  C11_13 
REMARK    2  A    between atoms: C15_18  and  N3_19 
REMARK    3  A    between atoms: N3_19  and  C16_20 
REMARK    4  A    between atoms: C16_20  and  N4_21 
ROOT
HETATM    1  C1  UNL     1      28.457   2.704  53.464  1.00  0.00     0.017 C 
HETATM    2  C2  UNL     1      27.634   1.862  53.210  1.00  0.00    -0.079 C 
HETATM    3  C3  UNL     1      26.652   0.871  52.886  1.00  0.00     0.030 C 
HETATM    4  C4  UNL     1      26.751  -0.261  53.561  1.00  0.00     0.023 C 
HETATM    5  C5  UNL     1      25.544  -1.068  53.839  1.00  0.00     0.057 C 
HETATM    6  C6  UNL     1      24.437  -0.549  53.366  1.00  0.00     0.139 C 
HETATM    7  N1  UNL     1      23.102  -0.965  53.432  1.00  0.00    -0.370 N 
HETATM    8  C7  UNL     1      21.769  -0.878  53.962  1.00  0.00     0.127 C 
HETATM    9  C8  UNL     1      21.069   0.400  53.609  1.00  0.00     0.020 C 
HETATM   10  C9  UNL     1      21.755   1.331  52.929  1.00  0.00     0.048 C 
HETATM   11  C10 UNL     1      21.813   2.675  52.273  1.00  0.00     0.003 C 
HETATM   12  C13 UNL     1      23.107   2.344  51.999  1.00  0.00     0.069 C 
HETATM   13  C14 UNL     1      24.216   3.054  51.291  1.00  0.00     0.015 C 
HETATM   14  C15 UNL     1      25.319   2.271  51.310  1.00  0.00     0.068 C 
HETATM   15  C17 UNL     1      25.561   0.959  51.898  1.00  0.00     0.223 C 
HETATM   16  O2  UNL     1      24.372   0.629  52.640  1.00  0.00    -0.319 OA
HETATM   17  H4  UNL     1      23.277  -1.734  52.707  1.00  0.00     0.161 HD
ENDROOT
BRANCH  14  18
HETATM   18  N3  UNL     1      26.625   2.459  50.787  1.00  0.00    -0.228 NA
BRANCH  18  19
HETATM   19  C16 UNL     1      26.830   3.399  49.942  1.00  0.00     0.190 C 
BRANCH  19  20
HETATM   20  N4  UNL     1      27.464   4.360  49.364  1.00  0.00    -0.279 NA
HETATM   21  H15 UNL     1      26.913   5.211  49.047  1.00  0.00     0.189 HD
ENDBRANCH  19  20
ENDBRANCH  18  19
ENDBRANCH  14  18
BRANCH  11  22
HETATM   22  N2  UNL     1      20.794   3.742  52.106  1.00  0.00    -0.334 N 
HETATM   23  C11 UNL     1      20.117   3.618  50.888  1.00  0.00     0.217 C 
HETATM   24  C12 UNL     1      19.069   4.640  50.619  1.00  0.00     0.117 C 
HETATM   25  O1  UNL     1      20.471   2.661  50.167  1.00  0.00    -0.274 OA
HETATM   26  H9  UNL     1      20.688   4.442  52.871  1.00  0.00     0.168 HD
ENDBRANCH  11  22
TORSDOF 4
ENDMDL
MODEL 5
REMARK VINA RESULT:      -7.3      2.436      4.452
REMARK  4 active torsions:
REMARK  status: ('A' for Active; 'I' for Inactive)
REMARK    1  A    between atoms: C10_11  and  N2_12 
REMARK       I    between atoms: N2_12  and  C11_13 
REMARK    2  A    between atoms: C15_18  and  N3_19 
REMARK    3  A    between atoms: N3_19  and  C16_20 
REMARK    4  A    between atoms: C16_20  and  N4_21 
ROOT
HETATM    1  C1  UNL     1      18.313  -0.349  51.688  1.00  0.00     0.017 C 
HETATM    2  C2  UNL     1      19.290  -0.221  52.381  1.00  0.00    -0.079 C 
HETATM    3  C3  UNL     1      20.448  -0.044  53.205  1.00  0.00     0.030 C 
HETATM    4  C4  UNL     1      20.758  -1.078  53.968  1.00  0.00     0.023 C 
HETATM    5  C5  UNL     1      22.167  -1.328  54.342  1.00  0.00     0.057 C 
HETATM    6  C6  UNL     1      23.011  -0.454  53.849  1.00  0.00     0.139 C 
HETATM    7  N1  UNL     1      24.404  -0.345  53.933  1.00  0.00    -0.370 N 
HETATM    8  C7  UNL     1      25.724  -0.478  53.380  1.00  0.00     0.127 C 
HETATM    9  C8  UNL     1      25.992   0.458  52.240  1.00  0.00     0.020 C 
HETATM   10  C9  UNL     1      24.988   1.240  51.814  1.00  0.00     0.048 C 
HETATM   11  C10 UNL     1      24.472   2.293  50.885  1.00  0.00     0.003 C 
HETATM   12  C13 UNL     1      23.293   2.118  51.545  1.00  0.00     0.069 C 
HETATM   13  C14 UNL     1      21.942   2.747  51.411  1.00  0.00     0.015 C 
HETATM   14  C15 UNL     1      21.109   2.192  52.321  1.00  0.00     0.068 C 
HETATM   15  C17 UNL     1      21.321   1.140  53.307  1.00  0.00     0.223 C 
HETATM   16  O2  UNL     1      22.648   0.634  53.073  1.00  0.00    -0.319 OA
HETATM   17  H4  UNL     1      24.344  -0.002  54.945  1.00  0.00     0.161 HD
ENDROOT
BRANCH  14  18
HETATM   18  N3  UNL     1      19.741   2.422  52.618  1.00  0.00    -0.228 NA
BRANCH  18  19
HETATM   19  C16 UNL     1      19.089   3.286  51.933  1.00  0.00     0.190 C 
BRANCH  19  20
HETATM   20  N4  UNL     1      18.075   3.987  51.560  1.00  0.00    -0.279 NA
HETATM   21  H15 UNL     1      17.825   4.007  50.528  1.00  0.00     0.189 HD
ENDBRANCH  19  20
ENDBRANCH  18  19
ENDBRANCH  14  18
BRANCH  11  22
HETATM   22  N2  UNL     1      25.127   3.063  49.796  1.00  0.00    -0.334 N 
HETATM   23  C11 UNL     1      25.204   4.425  50.105  1.00  0.00     0.217 C 
HETATM   24  C12 UNL     1      25.846   5.290  49.079  1.00  0.00     0.117 C 
HETATM   25  O1  UNL     1      24.723   4.756  51.210  1.00  0.00    -0.274 OA
HETATM   26  H9  UNL     1      25.449   2.541  48.953  1.00  0.00     0.168 HD
ENDBRANCH  11  22
TORSDOF 4
ENDMDL
MODEL 6
REMARK VINA RESULT:      -7.3      2.344      5.740
REMARK  4 active torsions:
REMARK  status: ('A' for Active; 'I' for Inactive)
REMARK    1  A    between atoms: C10_11  and  N2_12 
REMARK       I    between atoms: N2_12  and  C11_13 
REMARK    2  A    between atoms: C15_18  and  N3_19 
REMARK    3  A    between atoms: N3_19  and  C16_20 
REMARK    4  A    between atoms: C16_20  and  N4_21 
ROOT
HETATM    1  C1  UNL     1      26.353   0.265  55.019  1.00  0.00     0.017 C 
HETATM    2  C2  UNL     1      25.443   0.156  54.238  1.00  0.00    -0.079 C 
HETATM    3  C3  UNL     1      24.373   0.038  53.292  1.00  0.00     0.030 C 
HETATM    4  C4  UNL     1      23.537  -0.963  53.510  1.00  0.00     0.023 C 
HETATM    5  C5  UNL     1      22.124  -0.854  53.092  1.00  0.00     0.057 C 
HETATM    6  C6  UNL     1      21.825   0.288  52.519  1.00  0.00     0.139 C 
HETATM    7  N1  UNL     1      20.624   0.799  52.014  1.00  0.00    -0.370 N 
HETATM    8  C7  UNL     1      19.471   1.654  52.100  1.00  0.00     0.127 C 
HETATM    9  C8  UNL     1      19.805   3.114  52.032  1.00  0.00     0.020 C 
HETATM   10  C9  UNL     1      21.099   3.466  51.980  1.00  0.00     0.048 C 
HETATM   11  C10 UNL     1      22.149   4.529  51.904  1.00  0.00     0.003 C 
HETATM   12  C13 UNL     1      23.027   3.486  51.944  1.00  0.00     0.069 C 
HETATM   13  C14 UNL     1      24.520   3.404  51.919  1.00  0.00     0.015 C 
HETATM   14  C15 UNL     1      24.888   2.105  51.995  1.00  0.00     0.068 C 
HETATM   15  C17 UNL     1      24.100   0.885  52.116  1.00  0.00     0.223 C 
HETATM   16  O2  UNL     1      22.734   1.306  52.283  1.00  0.00    -0.319 OA
HETATM   17  H4  UNL     1      20.682   0.163  51.155  1.00  0.00     0.161 HD
ENDROOT
BRANCH  14  18
HETATM   18  N3  UNL     1      26.162   1.479  52.007  1.00  0.00    -0.228 NA
BRANCH  18  19
HETATM   19  C16 UNL     1      27.214   2.206  52.072  1.00  0.00     0.190 C 
BRANCH  19  20
HETATM   20  N4  UNL     1      28.292   2.693  52.582  1.00  0.00    -0.279 NA
HETATM   21  H15 UNL     1      29.101   2.034  52.782  1.00  0.00     0.189 HD
ENDBRANCH  19  20
ENDBRANCH  18  19
ENDBRANCH  14  18
BRANCH  11  22
HETATM   22  N2  UNL     1      22.059   6.010  51.825  1.00  0.00    -0.334 N 
HETATM   23  C11 UNL     1      22.092   6.455  50.499  1.00  0.00     0.217 C 
HETATM   24  C12 UNL     1      22.006   7.928  50.305  1.00  0.00     0.117 C 
HETATM   25  O1  UNL     1      22.190   5.562  49.631  1.00  0.00    -0.274 OA
HETATM   26  H9  UNL     1      21.983   6.543  52.716  1.00  0.00     0.168 HD
ENDBRANCH  11  22
TORSDOF 4
ENDMDL
MODEL 7
REMARK VINA RESULT:      -6.9      2.505      5.088
REMARK  4 active torsions:
REMARK  status: ('A' for Active; 'I' for Inactive)
REMARK    1  A    between atoms: C10_11  and  N2_12 
REMARK       I    between atoms: N2_12  and  C11_13 
REMARK    2  A    between atoms: C15_18  and  N3_19 
REMARK    3  A    between atoms: N3_19  and  C16_20 
REMARK    4  A    between atoms: C16_20  and  N4_21 
ROOT
HETATM    1  C1  UNL     1      22.863   6.602  48.803  1.00  0.00     0.017 C 
HETATM    2  C2  UNL     1      23.619   5.677  48.948  1.00  0.00    -0.079 C 
HETATM    3  C3  UNL     1      24.501   4.560  49.111  1.00  0.00     0.030 C 
HETATM    4  C4  UNL     1      25.790   4.851  49.072  1.00  0.00     0.023 C 
HETATM    5  C5  UNL     1      26.759   4.030  49.829  1.00  0.00     0.057 C 
HETATM    6  C6  UNL     1      26.213   3.046  50.502  1.00  0.00     0.139 C 
HETATM    7  N1  UNL     1      26.755   2.075  51.352  1.00  0.00    -0.370 N 
HETATM    8  C7  UNL     1      27.015   1.532  52.657  1.00  0.00     0.127 C 
HETATM    9  C8  UNL     1      25.778   1.076  53.371  1.00  0.00     0.020 C 
HETATM   10  C9  UNL     1      24.592   1.284  52.780  1.00  0.00     0.048 C 
HETATM   11  C10 UNL     1      23.101   1.161  52.790  1.00  0.00     0.003 C 
HETATM   12  C13 UNL     1      23.167   1.801  51.588  1.00  0.00     0.069 C 
HETATM   13  C14 UNL     1      22.130   2.238  50.604  1.00  0.00     0.015 C 
HETATM   14  C15 UNL     1      22.743   2.850  49.565  1.00  0.00     0.068 C 
HETATM   15  C17 UNL     1      24.148   3.142  49.310  1.00  0.00     0.223 C 
HETATM   16  O2  UNL     1      24.859   2.755  50.500  1.00  0.00    -0.319 OA
HETATM   17  H4  UNL     1      27.161   1.535  50.521  1.00  0.00     0.161 HD
ENDROOT
BRANCH  14  18
HETATM   18  N3  UNL     1      22.235   3.439  48.378  1.00  0.00    -0.228 NA
BRANCH  18  19
HETATM   19  C16 UNL     1      21.186   2.945  47.834  1.00  0.00     0.190 C 
BRANCH  19  20
HETATM   20  N4  UNL     1      20.034   2.373  47.778  1.00  0.00    -0.279 NA
HETATM   21  H15 UNL     1      19.664   1.893  48.650  1.00  0.00     0.189 HD
ENDBRANCH  19  20
ENDBRANCH  18  19
ENDBRANCH  14  18
BRANCH  11  22
HETATM   22  N2  UNL     1      22.161   0.566  53.775  1.00  0.00    -0.334 N 
HETATM   23  C11 UNL     1      22.071  -0.821  53.622  1.00  0.00     0.217 C 
HETATM   24  C12 UNL     1      21.154  -1.521  54.563  1.00  0.00     0.117 C 
HETATM   25  O1  UNL     1      22.772  -1.313  52.712  1.00  0.00    -0.274 OA
HETATM   26  H9  UNL     1      21.687   1.206  54.447  1.00  0.00     0.168 HD
ENDBRANCH  11  22
TORSDOF 4
ENDMDL
MODEL 8
REMARK VINA RESULT:      -6.5     24.217     25.735
REMARK  4 active torsions:
REMARK  status: ('A' for Active; 'I' for Inactive)
REMARK    1  A    between atoms: C10_11  and  N2_12 
REMARK       I    between atoms: N2_12  and  C11_13 
REMARK    2  A    between atoms: C15_18  and  N3_19 
REMARK    3  A    between atoms: N3_19  and  C16_20 
REMARK    4  A    between atoms: C16_20  and  N4_21 
ROOT
HETATM    1  C1  UNL     1      44.071   0.594  71.987  1.00  0.00     0.017 C 
HETATM    2  C2  UNL     1      43.417   1.463  71.471  1.00  0.00    -0.079 C 
HETATM    3  C3  UNL     1      42.639   2.485  70.836  1.00  0.00     0.030 C 
HETATM    4  C4  UNL     1      41.898   3.216  71.651  1.00  0.00     0.023 C 
HETATM    5  C5  UNL     1      41.584   4.620  71.311  1.00  0.00     0.057 C 
HETATM    6  C6  UNL     1      42.104   5.021  70.175  1.00  0.00     0.139 C 
HETATM    7  N1  UNL     1      42.076   6.254  69.514  1.00  0.00    -0.370 N 
HETATM    8  C7  UNL     1      42.683   7.493  69.111  1.00  0.00     0.127 C 
HETATM    9  C8  UNL     1      43.825   7.315  68.156  1.00  0.00     0.020 C 
HETATM   10  C9  UNL     1      44.204   6.065  67.848  1.00  0.00     0.048 C 
HETATM   11  C10 UNL     1      45.103   5.132  67.099  1.00  0.00     0.003 C 
HETATM   12  C13 UNL     1      44.396   4.150  67.728  1.00  0.00     0.069 C 
HETATM   13  C14 UNL     1      44.470   2.657  67.697  1.00  0.00     0.015 C 
HETATM   14  C15 UNL     1      43.531   2.155  68.531  1.00  0.00     0.068 C 
HETATM   15  C17 UNL     1      42.563   2.812  69.401  1.00  0.00     0.223 C 
HETATM   16  O2  UNL     1      42.856   4.219  69.333  1.00  0.00    -0.319 OA
HETATM   17  H4  UNL     1      41.059   6.102  69.215  1.00  0.00     0.161 HD
ENDROOT
BRANCH  14  18
HETATM   18  N3  UNL     1      43.177   0.823  68.868  1.00  0.00    -0.228 NA
BRANCH  18  19
HETATM   19  C16 UNL     1      42.769   0.032  67.947  1.00  0.00     0.190 C 
BRANCH  19  20
HETATM   20  N4  UNL     1      42.668  -1.066  67.281  1.00  0.00    -0.279 NA
HETATM   21  H15 UNL     1      42.201  -1.899  67.745  1.00  0.00     0.189 HD
ENDBRANCH  19  20
ENDBRANCH  18  19
ENDBRANCH  14  18
BRANCH  11  22
HETATM   22  N2  UNL     1      46.211   5.377  66.141  1.00  0.00    -0.334 N 
HETATM   23  C11 UNL     1      45.746   5.437  64.823  1.00  0.00     0.217 C 
HETATM   24  C12 UNL     1      46.777   5.681  63.779  1.00  0.00     0.117 C 
HETATM   25  O1  UNL     1      44.515   5.278  64.677  1.00  0.00    -0.274 OA
HETATM   26  H9  UNL     1      47.175   5.476  66.523  1.00  0.00     0.168 HD
ENDBRANCH  11  22
TORSDOF 4
ENDMDL
MODEL 9
REMARK VINA RESULT:      -6.4      3.202      6.545
REMARK  4 active torsions:
REMARK  status: ('A' for Active; 'I' for Inactive)
REMARK    1  A    between atoms: C10_11  and  N2_12 
REMARK       I    between atoms: N2_12  and  C11_13 
REMARK    2  A    between atoms: C15_18  and  N3_19 
REMARK    3  A    between atoms: N3_19  and  C16_20 
REMARK    4  A    between atoms: C16_20  and  N4_21 
ROOT
HETATM    1  C1  UNL     1      19.739   0.000  51.972  1.00  0.00     0.017 C 
HETATM    2  C2  UNL     1      20.696   0.696  52.194  1.00  0.00    -0.079 C 
HETATM    3  C3  UNL     1      21.820   1.544  52.458  1.00  0.00     0.030 C 
HETATM    4  C4  UNL     1      22.847   0.950  53.042  1.00  0.00     0.023 C 
HETATM    5  C5  UNL     1      24.222   1.437  52.800  1.00  0.00     0.057 C 
HETATM    6  C6  UNL     1      24.287   2.463  51.985  1.00  0.00     0.139 C 
HETATM    7  N1  UNL     1      25.369   3.193  51.480  1.00  0.00    -0.370 N 
HETATM    8  C7  UNL     1      26.288   3.541  50.431  1.00  0.00     0.127 C 
HETATM    9  C8  UNL     1      25.635   4.222  49.267  1.00  0.00     0.020 C 
HETATM   10  C9  UNL     1      24.301   4.364  49.282  1.00  0.00     0.048 C 
HETATM   11  C10 UNL     1      23.043   4.848  48.633  1.00  0.00     0.003 C 
HETATM   12  C13 UNL     1      22.425   4.318  49.728  1.00  0.00     0.069 C 
HETATM   13  C14 UNL     1      20.995   4.237  50.156  1.00  0.00     0.015 C 
HETATM   14  C15 UNL     1      20.928   3.587  51.340  1.00  0.00     0.068 C 
HETATM   15  C17 UNL     1      21.965   2.982  52.167  1.00  0.00     0.223 C 
HETATM   16  O2  UNL     1      23.186   3.077  51.411  1.00  0.00    -0.319 OA
HETATM   17  H4  UNL     1      25.510   3.687  52.420  1.00  0.00     0.161 HD
ENDROOT
BRANCH  14  18
HETATM   18  N3  UNL     1      19.833   3.246  52.175  1.00  0.00    -0.228 NA
BRANCH  18  19
HETATM   19  C16 UNL     1      18.643   3.510  51.783  1.00  0.00     0.190 C 
BRANCH  19  20
HETATM   20  N4  UNL     1      17.374   3.704  51.885  1.00  0.00    -0.279 NA
HETATM   21  H15 UNL     1      16.905   3.511  52.818  1.00  0.00     0.189 HD
ENDBRANCH  19  20
ENDBRANCH  18  19
ENDBRANCH  14  18
BRANCH  11  22
HETATM   22  N2  UNL     1      22.797   5.568  47.357  1.00  0.00    -0.334 N 
HETATM   23  C11 UNL     1      22.172   4.744  46.416  1.00  0.00     0.217 C 
HETATM   24  C12 UNL     1      21.877   5.369  45.098  1.00  0.00     0.117 C 
HETATM   25  O1  UNL     1      21.932   3.578  46.793  1.00  0.00    -0.274 OA
HETATM   26  H9  UNL     1      23.099   6.563  47.292  1.00  0.00     0.168 HD
ENDBRANCH  11  22
TORSDOF 4
ENDMDL
