MODEL 1
REMARK VINA RESULT:      -7.2      0.000      0.000
REMARK  7 active torsions:
REMARK  status: ('A' for Active; 'I' for Inactive)
REMARK    1  A    between atoms: O1_2  and  C2_3 
REMARK    2  A    between atoms: C4_5  and  C5_6 
REMARK    3  A    between atoms: C5_6  and  N1_7 
REMARK    4  A    between atoms: N2_9  and  C7_10 
REMARK    5  A    between atoms: C8_11  and  N3_12 
REMARK    6  A    between atoms: C9_13  and  C10_14 
REMARK    7  A    between atoms: C17_22  and  O2_23 
ROOT
HETATM    1  C2  UNL     1      26.314   1.272  53.960  1.00  0.00     0.103 A 
HETATM    2  C3  UNL     1      25.891   2.524  53.872  1.00  0.00     0.063 A 
HETATM    3  C4  UNL     1      24.554   2.652  53.312  1.00  0.00     0.060 A 
HETATM    4  C6  UNL     1      23.709   1.553  52.872  1.00  0.00     0.079 A 
HETATM    5  N2  UNL     1      22.526   1.667  52.376  1.00  0.00    -0.258 NA
HETATM    6  C16 UNL     1      24.270   0.215  53.011  1.00  0.00     0.072 A 
HETATM    7  C17 UNL     1      25.500   0.116  53.528  1.00  0.00     0.103 A 
ENDROOT
BRANCH   3   8
HETATM    8  C5  UNL     1      24.064   3.876  53.192  1.00  0.00    -0.011 C 
BRANCH   8   9
HETATM    9  N1  UNL     1      23.856   5.146  53.284  1.00  0.00    -0.257 NA
HETATM   10  H5  UNL     1      24.541   5.721  53.822  1.00  0.00     0.197 HD
ENDBRANCH   8   9
ENDBRANCH   3   8
BRANCH   5  11
HETATM   11  C7  UNL     1      21.833   2.882  52.171  1.00  0.00     0.136 C 
HETATM   12  C8  UNL     1      21.721   3.217  50.875  1.00  0.00     0.135 C 
BRANCH  12  13
HETATM   13  N3  UNL     1      22.374   2.170  50.172  1.00  0.00    -0.271 NA
HETATM   14  C9  UNL     1      23.502   2.432  49.614  1.00  0.00     0.127 C 
BRANCH  14  15
HETATM   15  C10 UNL     1      24.479   3.492  49.396  1.00  0.00    -0.017 A 
HETATM   16  C11 UNL     1      25.796   3.195  49.677  1.00  0.00     0.013 A 
HETATM   17  C12 UNL     1      26.657   4.242  49.446  1.00  0.00     0.002 A 
HETATM   18  C13 UNL     1      26.267   5.479  48.979  1.00  0.00     0.019 A 
HETATM   19  C14 UNL     1      24.937   5.725  48.713  1.00  0.00     0.011 A 
HETATM   20 BR1  UNL     1      24.433   7.435  48.071  1.00  0.00    -0.051 Br
HETATM   21  C15 UNL     1      24.037   4.709  48.927  1.00  0.00     0.032 A 
ENDBRANCH  14  15
ENDBRANCH  12  13
ENDBRANCH   5  11
BRANCH   7  22
HETATM   22  O2  UNL     1      26.096  -1.133  53.688  1.00  0.00    -0.353 OA
HETATM   23  C18 UNL     1      26.759  -1.724  52.593  1.00  0.00     0.210 C 
ENDBRANCH   7  22
BRANCH   1  24
HETATM   24  O1  UNL     1      27.584   1.080  54.486  1.00  0.00    -0.353 OA
HETATM   25  C1  UNL     1      28.665   1.406  53.627  1.00  0.00     0.210 C 
ENDBRANCH   1  24
TORSDOF 7
ENDMDL
MODEL 2
REMARK VINA RESULT:      -7.1      4.153      6.276
REMARK  7 active torsions:
REMARK  status: ('A' for Active; 'I' for Inactive)
REMARK    1  A    between atoms: O1_2  and  C2_3 
REMARK    2  A    between atoms: C4_5  and  C5_6 
REMARK    3  A    between atoms: C5_6  and  N1_7 
REMARK    4  A    between atoms: N2_9  and  C7_10 
REMARK    5  A    between atoms: C8_11  and  N3_12 
REMARK    6  A    between atoms: C9_13  and  C10_14 
REMARK    7  A    between atoms: C17_22  and  O2_23 
ROOT
HETATM    1  C2  UNL     1      27.379   1.112  53.644  1.00  0.00     0.103 A 
HETATM    2  C3  UNL     1      26.857   0.279  54.531  1.00  0.00     0.063 A 
HETATM    3  C4  UNL     1      25.468  -0.065  54.265  1.00  0.00     0.060 A 
HETATM    4  C6  UNL     1      24.670   0.423  53.152  1.00  0.00     0.079 A 
HETATM    5  N2  UNL     1      23.442   0.119  52.918  1.00  0.00    -0.258 NA
HETATM    6  C16 UNL     1      25.339   1.337  52.235  1.00  0.00     0.072 A 
HETATM    7  C17 UNL     1      26.616   1.642  52.494  1.00  0.00     0.103 A 
ENDROOT
BRANCH   3   8
HETATM    8  C5  UNL     1      24.879  -0.894  55.113  1.00  0.00    -0.011 C 
BRANCH   8   9
HETATM    9  N1  UNL     1      24.561  -1.593  56.150  1.00  0.00    -0.257 NA
HETATM   10  H5  UNL     1      23.988  -2.453  56.009  1.00  0.00     0.197 HD
ENDBRANCH   8   9
ENDBRANCH   3   8
BRANCH   5  11
HETATM   11  C7  UNL     1      22.644  -0.747  53.701  1.00  0.00     0.136 C 
HETATM   12  C8  UNL     1      21.333  -0.654  53.427  1.00  0.00     0.135 C 
BRANCH  12  13
HETATM   13  N3  UNL     1      21.244   0.327  52.404  1.00  0.00    -0.271 NA
HETATM   14  C9  UNL     1      20.124   0.451  51.785  1.00  0.00     0.127 C 
BRANCH  14  15
HETATM   15  C10 UNL     1      18.765  -0.073  51.711  1.00  0.00    -0.017 A 
HETATM   16  C11 UNL     1      18.289  -0.729  52.825  1.00  0.00     0.013 A 
HETATM   17  C12 UNL     1      17.002  -1.195  52.682  1.00  0.00     0.002 A 
HETATM   18  C13 UNL     1      16.242  -1.033  51.543  1.00  0.00     0.019 A 
HETATM   19  C14 UNL     1      16.766  -0.368  50.455  1.00  0.00     0.011 A 
HETATM   20 BR1  UNL     1      15.696  -0.162  48.905  1.00  0.00    -0.051 Br
HETATM   21  C15 UNL     1      18.049   0.116  50.550  1.00  0.00     0.032 A 
ENDBRANCH  14  15
ENDBRANCH  12  13
ENDBRANCH   5  11
BRANCH   7  22
HETATM   22  O2  UNL     1      27.315   2.510  51.657  1.00  0.00    -0.353 OA
HETATM   23  C18 UNL     1      26.645   3.100  50.567  1.00  0.00     0.210 C 
ENDBRANCH   7  22
BRANCH   1  24
HETATM   24  O1  UNL     1      28.702   1.482  53.840  1.00  0.00    -0.353 OA
HETATM   25  C1  UNL     1      29.673   0.502  53.513  1.00  0.00     0.210 C 
ENDBRANCH   1  24
TORSDOF 7
ENDMDL
MODEL 3
REMARK VINA RESULT:      -7.0      6.491      9.111
REMARK  7 active torsions:
REMARK  status: ('A' for Active; 'I' for Inactive)
REMARK    1  A    between atoms: O1_2  and  C2_3 
REMARK    2  A    between atoms: C4_5  and  C5_6 
REMARK    3  A    between atoms: C5_6  and  N1_7 
REMARK    4  A    between atoms: N2_9  and  C7_10 
REMARK    5  A    between atoms: C8_11  and  N3_12 
REMARK    6  A    between atoms: C9_13  and  C10_14 
REMARK    7  A    between atoms: C17_22  and  O2_23 
ROOT
HETATM    1  C2  UNL     1      33.058   4.408  46.696  1.00  0.00     0.103 A 
HETATM    2  C3  UNL     1      32.770   4.487  47.987  1.00  0.00     0.063 A 
HETATM    3  C4  UNL     1      32.257   5.787  48.394  1.00  0.00     0.060 A 
HETATM    4  C6  UNL     1      32.055   6.932  47.521  1.00  0.00     0.079 A 
HETATM    5  N2  UNL     1      31.602   8.081  47.882  1.00  0.00    -0.258 NA
HETATM    6  C16 UNL     1      32.404   6.740  46.119  1.00  0.00     0.072 A 
HETATM    7  C17 UNL     1      32.874   5.539  45.762  1.00  0.00     0.103 A 
ENDROOT
BRANCH   3   8
HETATM    8  C5  UNL     1      31.949   5.940  49.673  1.00  0.00    -0.011 C 
BRANCH   8   9
HETATM    9  N1  UNL     1      31.591   5.746  50.897  1.00  0.00    -0.257 NA
HETATM   10  H5  UNL     1      30.921   6.419  51.329  1.00  0.00     0.197 HD
ENDBRANCH   8   9
ENDBRANCH   3   8
BRANCH   5  11
HETATM   11  C7  UNL     1      31.217   8.439  49.195  1.00  0.00     0.136 C 
HETATM   12  C8  UNL     1      29.982   8.962  49.262  1.00  0.00     0.135 C 
BRANCH  12  13
HETATM   13  N3  UNL     1      29.511   8.955  47.922  1.00  0.00    -0.271 NA
HETATM   14  C9  UNL     1      28.637   8.071  47.596  1.00  0.00     0.127 C 
BRANCH  14  15
HETATM   15  C10 UNL     1      27.855   6.955  48.113  1.00  0.00    -0.017 A 
HETATM   16  C11 UNL     1      28.499   5.741  48.227  1.00  0.00     0.013 A 
HETATM   17  C12 UNL     1      27.700   4.738  48.722  1.00  0.00     0.002 A 
HETATM   18  C13 UNL     1      26.378   4.904  49.078  1.00  0.00     0.019 A 
HETATM   19  C14 UNL     1      25.780   6.139  48.945  1.00  0.00     0.011 A 
HETATM   20 BR1  UNL     1      23.962   6.335  49.442  1.00  0.00    -0.051 Br
HETATM   21  C15 UNL     1      26.539   7.175  48.454  1.00  0.00     0.032 A 
ENDBRANCH  14  15
ENDBRANCH  12  13
ENDBRANCH   5  11
BRANCH   7  22
HETATM   22  O2  UNL     1      33.226   5.289  44.437  1.00  0.00    -0.353 OA
HETATM   23  C18 UNL     1      32.783   6.169  43.430  1.00  0.00     0.210 C 
ENDBRANCH   7  22
BRANCH   1  24
HETATM   24  O1  UNL     1      33.552   3.194  46.242  1.00  0.00    -0.353 OA
HETATM   25  C1  UNL     1      33.124   2.046  46.955  1.00  0.00     0.210 C 
ENDBRANCH   1  24
TORSDOF 7
ENDMDL
MODEL 4
REMARK VINA RESULT:      -6.9      2.235      3.481
REMARK  7 active torsions:
REMARK  status: ('A' for Active; 'I' for Inactive)
REMARK    1  A    between atoms: O1_2  and  C2_3 
REMARK    2  A    between atoms: C4_5  and  C5_6 
REMARK    3  A    between atoms: C5_6  and  N1_7 
REMARK    4  A    between atoms: N2_9  and  C7_10 
REMARK    5  A    between atoms: C8_11  and  N3_12 
REMARK    6  A    between atoms: C9_13  and  C10_14 
REMARK    7  A    between atoms: C17_22  and  O2_23 
ROOT
HETATM    1  C2  UNL     1      25.236  -0.342  54.014  1.00  0.00     0.103 A 
HETATM    2  C3  UNL     1      24.141   0.256  53.569  1.00  0.00     0.063 A 
HETATM    3  C4  UNL     1      24.388   1.207  52.495  1.00  0.00     0.060 A 
HETATM    4  C6  UNL     1      25.686   1.519  51.920  1.00  0.00     0.079 A 
HETATM    5  N2  UNL     1      25.904   2.362  50.971  1.00  0.00    -0.258 NA
HETATM    6  C16 UNL     1      26.827   0.808  52.483  1.00  0.00     0.072 A 
HETATM    7  C17 UNL     1      26.582  -0.063  53.469  1.00  0.00     0.103 A 
ENDROOT
BRANCH   3   8
HETATM    8  C5  UNL     1      23.339   1.844  52.001  1.00  0.00    -0.011 C 
BRANCH   8   9
HETATM    9  N1  UNL     1      22.167   2.351  51.814  1.00  0.00    -0.257 NA
HETATM   10  H5  UNL     1      21.644   2.082  50.951  1.00  0.00     0.197 HD
ENDBRANCH   8   9
ENDBRANCH   3   8
BRANCH   5  11
HETATM   11  C7  UNL     1      24.919   3.135  50.315  1.00  0.00     0.136 C 
HETATM   12  C8  UNL     1      25.424   3.949  49.374  1.00  0.00     0.135 C 
BRANCH  12  13
HETATM   13  N3  UNL     1      26.824   3.710  49.399  1.00  0.00    -0.271 NA
HETATM   14  C9  UNL     1      27.598   4.617  48.918  1.00  0.00     0.127 C 
BRANCH  14  15
HETATM   15  C10 UNL     1      27.607   5.933  48.290  1.00  0.00    -0.017 A 
HETATM   16  C11 UNL     1      28.822   6.401  47.838  1.00  0.00     0.013 A 
HETATM   17  C12 UNL     1      28.752   7.646  47.259  1.00  0.00     0.002 A 
HETATM   18  C13 UNL     1      27.589   8.376  47.129  1.00  0.00     0.019 A 
HETATM   19  C14 UNL     1      26.399   7.862  47.598  1.00  0.00     0.011 A 
HETATM   20 BR1  UNL     1      24.819   8.890  47.405  1.00  0.00    -0.051 Br
HETATM   21  C15 UNL     1      26.418   6.620  48.185  1.00  0.00     0.032 A 
ENDBRANCH  14  15
ENDBRANCH  12  13
ENDBRANCH   5  11
BRANCH   7  22
HETATM   22  O2  UNL     1      27.627  -0.777  54.051  1.00  0.00    -0.353 OA
HETATM   23  C18 UNL     1      28.692  -0.072  54.647  1.00  0.00     0.210 C 
ENDBRANCH   7  22
BRANCH   1  24
HETATM   24  O1  UNL     1      25.070  -1.262  55.040  1.00  0.00    -0.353 OA
HETATM   25  C1  UNL     1      23.759  -1.369  55.569  1.00  0.00     0.210 C 
ENDBRANCH   1  24
TORSDOF 7
ENDMDL
MODEL 5
REMARK VINA RESULT:      -6.9      4.344      7.173
REMARK  7 active torsions:
REMARK  status: ('A' for Active; 'I' for Inactive)
REMARK    1  A    between atoms: O1_2  and  C2_3 
REMARK    2  A    between atoms: C4_5  and  C5_6 
REMARK    3  A    between atoms: C5_6  and  N1_7 
REMARK    4  A    between atoms: N2_9  and  C7_10 
REMARK    5  A    between atoms: C8_11  and  N3_12 
REMARK    6  A    between atoms: C9_13  and  C10_14 
REMARK    7  A    between atoms: C17_22  and  O2_23 
ROOT
HETATM    1  C2  UNL     1      27.978   8.207  48.677  1.00  0.00     0.103 A 
HETATM    2  C3  UNL     1      26.944   8.364  49.489  1.00  0.00     0.063 A 
HETATM    3  C4  UNL     1      26.224   7.131  49.767  1.00  0.00     0.060 A 
HETATM    4  C6  UNL     1      26.554   5.817  49.237  1.00  0.00     0.079 A 
HETATM    5  N2  UNL     1      25.916   4.727  49.482  1.00  0.00    -0.258 NA
HETATM    6  C16 UNL     1      27.709   5.753  48.351  1.00  0.00     0.072 A 
HETATM    7  C17 UNL     1      28.360   6.897  48.107  1.00  0.00     0.103 A 
ENDROOT
BRANCH   3   8
HETATM    8  C5  UNL     1      25.175   7.212  50.571  1.00  0.00    -0.011 C 
BRANCH   8   9
HETATM    9  N1  UNL     1      24.315   7.583  51.457  1.00  0.00    -0.257 NA
HETATM   10  H5  UNL     1      23.576   6.905  51.743  1.00  0.00     0.197 HD
ENDBRANCH   8   9
ENDBRANCH   3   8
BRANCH   5  11
HETATM   11  C7  UNL     1      24.778   4.607  50.313  1.00  0.00     0.136 C 
HETATM   12  C8  UNL     1      24.808   3.520  51.101  1.00  0.00     0.135 C 
BRANCH  12  13
HETATM   13  N3  UNL     1      26.032   2.874  50.782  1.00  0.00    -0.271 NA
HETATM   14  C9  UNL     1      26.357   1.831  51.462  1.00  0.00     0.127 C 
BRANCH  14  15
HETATM   15  C10 UNL     1      25.918   0.959  52.544  1.00  0.00    -0.017 A 
HETATM   16  C11 UNL     1      26.858   0.624  53.496  1.00  0.00     0.013 A 
HETATM   17  C12 UNL     1      26.372  -0.200  54.484  1.00  0.00     0.002 A 
HETATM   18  C13 UNL     1      25.073  -0.660  54.540  1.00  0.00     0.019 A 
HETATM   19  C14 UNL     1      24.172  -0.295  53.563  1.00  0.00     0.011 A 
HETATM   20 BR1  UNL     1      22.394  -0.943  53.669  1.00  0.00    -0.051 Br
HETATM   21  C15 UNL     1      24.610   0.528  52.554  1.00  0.00     0.032 A 
ENDBRANCH  14  15
ENDBRANCH  12  13
ENDBRANCH   5  11
BRANCH   7  22
HETATM   22  O2  UNL     1      29.474   6.907  47.270  1.00  0.00    -0.353 OA
HETATM   23  C18 UNL     1      30.672   6.314  47.714  1.00  0.00     0.210 C 
ENDBRANCH   7  22
BRANCH   1  24
HETATM   24  O1  UNL     1      28.709   9.346  48.370  1.00  0.00    -0.353 OA
HETATM   25  C1  UNL     1      29.652   9.758  49.346  1.00  0.00     0.210 C 
ENDBRANCH   1  24
TORSDOF 7
ENDMDL
MODEL 6
REMARK VINA RESULT:      -6.9      3.140      4.844
REMARK  7 active torsions:
REMARK  status: ('A' for Active; 'I' for Inactive)
REMARK    1  A    between atoms: O1_2  and  C2_3 
REMARK    2  A    between atoms: C4_5  and  C5_6 
REMARK    3  A    between atoms: C5_6  and  N1_7 
REMARK    4  A    between atoms: N2_9  and  C7_10 
REMARK    5  A    between atoms: C8_11  and  N3_12 
REMARK    6  A    between atoms: C9_13  and  C10_14 
REMARK    7  A    between atoms: C17_22  and  O2_23 
ROOT
HETATM    1  C2  UNL     1      22.185   0.337  53.454  1.00  0.00     0.103 A 
HETATM    2  C3  UNL     1      23.433  -0.105  53.433  1.00  0.00     0.063 A 
HETATM    3  C4  UNL     1      24.344   0.748  52.683  1.00  0.00     0.060 A 
HETATM    4  C6  UNL     1      23.984   1.980  52.000  1.00  0.00     0.079 A 
HETATM    5  N2  UNL     1      24.790   2.733  51.336  1.00  0.00    -0.258 NA
HETATM    6  C16 UNL     1      22.585   2.377  52.084  1.00  0.00     0.072 A 
HETATM    7  C17 UNL     1      21.762   1.582  52.777  1.00  0.00     0.103 A 
ENDROOT
BRANCH   3   8
HETATM    8  C5  UNL     1      25.610   0.367  52.617  1.00  0.00    -0.011 C 
BRANCH   8   9
HETATM    9  N1  UNL     1      26.709  -0.307  52.663  1.00  0.00    -0.257 NA
HETATM   10  H5  UNL     1      26.953  -0.794  53.553  1.00  0.00     0.197 HD
ENDBRANCH   8   9
ENDBRANCH   3   8
BRANCH   5  11
HETATM   11  C7  UNL     1      26.172   2.500  51.153  1.00  0.00     0.136 C 
HETATM   12  C8  UNL     1      26.740   3.336  50.268  1.00  0.00     0.135 C 
BRANCH  12  13
HETATM   13  N3  UNL     1      25.681   4.178  49.834  1.00  0.00    -0.271 NA
HETATM   14  C9  UNL     1      25.982   5.205  49.121  1.00  0.00     0.127 C 
BRANCH  14  15
HETATM   15  C10 UNL     1      27.100   5.922  48.519  1.00  0.00    -0.017 A 
HETATM   16  C11 UNL     1      26.852   7.202  48.072  1.00  0.00     0.013 A 
HETATM   17  C12 UNL     1      27.951   7.814  47.518  1.00  0.00     0.002 A 
HETATM   18  C13 UNL     1      29.194   7.226  47.409  1.00  0.00     0.019 A 
HETATM   19  C14 UNL     1      29.389   5.943  47.873  1.00  0.00     0.011 A 
HETATM   20 BR1  UNL     1      31.108   5.162  47.709  1.00  0.00    -0.051 Br
HETATM   21  C15 UNL     1      28.320   5.289  48.435  1.00  0.00     0.032 A 
ENDBRANCH  14  15
ENDBRANCH  12  13
ENDBRANCH   5  11
BRANCH   7  22
HETATM   22  O2  UNL     1      20.411   1.903  52.898  1.00  0.00    -0.353 OA
HETATM   23  C18 UNL     1      19.855   2.869  52.035  1.00  0.00     0.210 C 
ENDBRANCH   7  22
BRANCH   1  24
HETATM   24  O1  UNL     1      21.264  -0.431  54.153  1.00  0.00    -0.353 OA
HETATM   25  C1  UNL     1      21.776  -1.601  54.770  1.00  0.00     0.210 C 
ENDBRANCH   1  24
TORSDOF 7
ENDMDL
MODEL 7
REMARK VINA RESULT:      -6.8      5.581      8.314
REMARK  7 active torsions:
REMARK  status: ('A' for Active; 'I' for Inactive)
REMARK    1  A    between atoms: O1_2  and  C2_3 
REMARK    2  A    between atoms: C4_5  and  C5_6 
REMARK    3  A    between atoms: C5_6  and  N1_7 
REMARK    4  A    between atoms: N2_9  and  C7_10 
REMARK    5  A    between atoms: C8_11  and  N3_12 
REMARK    6  A    between atoms: C9_13  and  C10_14 
REMARK    7  A    between atoms: C17_22  and  O2_23 
ROOT
HETATM    1  C2  UNL     1      30.837   9.293  48.050  1.00  0.00     0.103 A 
HETATM    2  C3  UNL     1      29.961   9.699  48.958  1.00  0.00     0.063 A 
HETATM    3  C4  UNL     1      28.791   8.842  49.068  1.00  0.00     0.060 A 
HETATM    4  C6  UNL     1      28.543   7.640  48.288  1.00  0.00     0.079 A 
HETATM    5  N2  UNL     1      27.507   6.882  48.386  1.00  0.00    -0.258 NA
HETATM    6  C16 UNL     1      29.567   7.281  47.316  1.00  0.00     0.072 A 
HETATM    7  C17 UNL     1      30.637   8.081  47.228  1.00  0.00     0.103 A 
ENDROOT
BRANCH   3   8
HETATM    8  C5  UNL     1      27.871   9.187  49.955  1.00  0.00    -0.011 C 
BRANCH   8   9
HETATM    9  N1  UNL     1      27.235   9.722  50.942  1.00  0.00    -0.257 NA
HETATM   10  H5  UNL     1      27.164   9.184  51.833  1.00  0.00     0.197 HD
ENDBRANCH   8   9
ENDBRANCH   3   8
BRANCH   5  11
HETATM   11  C7  UNL     1      26.422   7.080  49.271  1.00  0.00     0.136 C 
HETATM   12  C8  UNL     1      25.845   5.934  49.669  1.00  0.00     0.135 C 
BRANCH  12  13
HETATM   13  N3  UNL     1      26.583   4.911  49.017  1.00  0.00    -0.271 NA
HETATM   14  C9  UNL     1      26.506   3.718  49.492  1.00  0.00     0.127 C 
BRANCH  14  15
HETATM   15  C10 UNL     1      25.897   2.918  50.547  1.00  0.00    -0.017 A 
HETATM   16  C11 UNL     1      24.530   2.746  50.489  1.00  0.00     0.013 A 
HETATM   17  C12 UNL     1      24.028   1.981  51.516  1.00  0.00     0.002 A 
HETATM   18  C13 UNL     1      24.797   1.427  52.518  1.00  0.00     0.019 A 
HETATM   19  C14 UNL     1      26.161   1.628  52.529  1.00  0.00     0.011 A 
HETATM   20 BR1  UNL     1      27.189   0.853  53.919  1.00  0.00    -0.051 Br
HETATM   21  C15 UNL     1      26.710   2.387  51.523  1.00  0.00     0.032 A 
ENDBRANCH  14  15
ENDBRANCH  12  13
ENDBRANCH   5  11
BRANCH   7  22
HETATM   22  O2  UNL     1      31.654   7.796  46.319  1.00  0.00    -0.353 OA
HETATM   23  C18 UNL     1      32.185   6.491  46.270  1.00  0.00     0.210 C 
ENDBRANCH   7  22
BRANCH   1  24
HETATM   24  O1  UNL     1      31.977  10.068  47.894  1.00  0.00    -0.353 OA
HETATM   25  C1  UNL     1      31.758  11.447  47.644  1.00  0.00     0.210 C 
ENDBRANCH   1  24
TORSDOF 7
ENDMDL
MODEL 8
REMARK VINA RESULT:      -6.8      4.759      7.284
REMARK  7 active torsions:
REMARK  status: ('A' for Active; 'I' for Inactive)
REMARK    1  A    between atoms: O1_2  and  C2_3 
REMARK    2  A    between atoms: C4_5  and  C5_6 
REMARK    3  A    between atoms: C5_6  and  N1_7 
REMARK    4  A    between atoms: N2_9  and  C7_10 
REMARK    5  A    between atoms: C8_11  and  N3_12 
REMARK    6  A    between atoms: C9_13  and  C10_14 
REMARK    7  A    between atoms: C17_22  and  O2_23 
ROOT
HETATM    1  C2  UNL     1      18.133   0.363  51.190  1.00  0.00     0.103 A 
HETATM    2  C3  UNL     1      18.434  -0.305  52.293  1.00  0.00     0.063 A 
HETATM    3  C4  UNL     1      19.833  -0.197  52.680  1.00  0.00     0.060 A 
HETATM    4  C6  UNL     1      20.854   0.555  51.969  1.00  0.00     0.079 A 
HETATM    5  N2  UNL     1      22.092   0.650  52.311  1.00  0.00    -0.258 NA
HETATM    6  C16 UNL     1      20.419   1.254  50.767  1.00  0.00     0.072 A 
HETATM    7  C17 UNL     1      19.129   1.144  50.426  1.00  0.00     0.103 A 
ENDROOT
BRANCH   3   8
HETATM    8  C5  UNL     1      20.208  -0.842  53.773  1.00  0.00    -0.011 C 
BRANCH   8   9
HETATM    9  N1  UNL     1      20.608  -1.735  54.614  1.00  0.00    -0.257 NA
HETATM   10  H5  UNL     1      19.941  -2.489  54.888  1.00  0.00     0.197 HD
ENDBRANCH   8   9
ENDBRANCH   3   8
BRANCH   5  11
HETATM   11  C7  UNL     1      22.682   0.040  53.442  1.00  0.00     0.136 C 
HETATM   12  C8  UNL     1      24.024   0.084  53.429  1.00  0.00     0.135 C 
BRANCH  12  13
HETATM   13  N3  UNL     1      24.354   0.762  52.225  1.00  0.00    -0.271 NA
HETATM   14  C9  UNL     1      25.574   1.130  52.056  1.00  0.00     0.127 C 
BRANCH  14  15
HETATM   15  C10 UNL     1      26.893   1.125  52.679  1.00  0.00    -0.017 A 
HETATM   16  C11 UNL     1      27.384   2.340  53.107  1.00  0.00     0.013 A 
HETATM   17  C12 UNL     1      28.630   2.257  53.684  1.00  0.00     0.002 A 
HETATM   18  C13 UNL     1      29.340   1.084  53.831  1.00  0.00     0.019 A 
HETATM   19  C14 UNL     1      28.803  -0.105  53.386  1.00  0.00     0.011 A 
HETATM   20 BR1  UNL     1      29.802  -1.699  53.603  1.00  0.00    -0.051 Br
HETATM   21  C15 UNL     1      27.559  -0.073  52.802  1.00  0.00     0.032 A 
ENDBRANCH  14  15
ENDBRANCH  12  13
ENDBRANCH   5  11
BRANCH   7  22
HETATM   22  O2  UNL     1      18.646   1.787  49.288  1.00  0.00    -0.353 OA
HETATM   23  C18 UNL     1      18.431   3.179  49.325  1.00  0.00     0.210 C 
ENDBRANCH   7  22
BRANCH   1  24
HETATM   24  O1  UNL     1      16.813   0.301  50.765  1.00  0.00    -0.353 OA
HETATM   25  C1  UNL     1      15.835   0.249  51.791  1.00  0.00     0.210 C 
ENDBRANCH   1  24
TORSDOF 7
ENDMDL
MODEL 9
REMARK VINA RESULT:      -6.4      5.679      8.047
REMARK  7 active torsions:
REMARK  status: ('A' for Active; 'I' for Inactive)
REMARK    1  A    between atoms: O1_2  and  C2_3 
REMARK    2  A    between atoms: C4_5  and  C5_6 
REMARK    3  A    between atoms: C5_6  and  N1_7 
REMARK    4  A    between atoms: N2_9  and  C7_10 
REMARK    5  A    between atoms: C8_11  and  N3_12 
REMARK    6  A    between atoms: C9_13  and  C10_14 
REMARK    7  A    between atoms: C17_22  and  O2_23 
ROOT
HETATM    1  C2  UNL     1      32.887   7.475  48.400  1.00  0.00     0.103 A 
HETATM    2  C3  UNL     1      31.991   8.317  48.893  1.00  0.00     0.063 A 
HETATM    3  C4  UNL     1      30.618   7.852  48.765  1.00  0.00     0.060 A 
HETATM    4  C6  UNL     1      30.199   6.596  48.164  1.00  0.00     0.079 A 
HETATM    5  N2  UNL     1      28.984   6.187  48.050  1.00  0.00    -0.258 NA
HETATM    6  C16 UNL     1      31.263   5.743  47.651  1.00  0.00     0.072 A 
HETATM    7  C17 UNL     1      32.520   6.185  47.778  1.00  0.00     0.103 A 
ENDROOT
BRANCH   3   8
HETATM    8  C5  UNL     1      29.667   8.645  49.235  1.00  0.00    -0.011 C 
BRANCH   8   9
HETATM    9  N1  UNL     1      28.973   9.466  49.948  1.00  0.00    -0.257 NA
HETATM   10  H5  UNL     1      28.234   9.076  50.573  1.00  0.00     0.197 HD
ENDBRANCH   8   9
ENDBRANCH   3   8
BRANCH   5  11
HETATM   11  C7  UNL     1      27.836   6.884  48.490  1.00  0.00     0.136 C 
HETATM   12  C8  UNL     1      26.819   6.073  48.828  1.00  0.00     0.135 C 
BRANCH  12  13
HETATM   13  N3  UNL     1      27.312   4.760  48.603  1.00  0.00    -0.271 NA
HETATM   14  C9  UNL     1      26.870   3.815  49.354  1.00  0.00     0.127 C 
BRANCH  14  15
HETATM   15  C10 UNL     1      25.967   3.529  50.463  1.00  0.00    -0.017 A 
HETATM   16  C11 UNL     1      26.406   2.625  51.407  1.00  0.00     0.013 A 
HETATM   17  C12 UNL     1      25.503   2.407  52.421  1.00  0.00     0.002 A 
HETATM   18  C13 UNL     1      24.271   3.020  52.507  1.00  0.00     0.019 A 
HETATM   19  C14 UNL     1      23.880   3.917  51.536  1.00  0.00     0.011 A 
HETATM   20 BR1  UNL     1      22.181   4.744  51.684  1.00  0.00    -0.051 Br
HETATM   21  C15 UNL     1      24.749   4.169  50.502  1.00  0.00     0.032 A 
ENDBRANCH  14  15
ENDBRANCH  12  13
ENDBRANCH   5  11
BRANCH   7  22
HETATM   22  O2  UNL     1      33.584   5.419  47.308  1.00  0.00    -0.353 OA
HETATM   23  C18 UNL     1      33.351   4.085  46.918  1.00  0.00     0.210 C 
ENDBRANCH   7  22
BRANCH   1  24
HETATM   24  O1  UNL     1      34.218   7.858  48.490  1.00  0.00    -0.353 OA
HETATM   25  C1  UNL     1      34.649   8.822  47.544  1.00  0.00     0.210 C 
ENDBRANCH   1  24
TORSDOF 7
ENDMDL
