MODEL 1
REMARK VINA RESULT:      -6.3      0.000      0.000
REMARK  10 active torsions:
REMARK  status: ('A' for Active; 'I' for Inactive)
REMARK    1  A    between atoms: C3_3  and  C4_4 
REMARK    2  A    between atoms: C4_4  and  C5_5 
REMARK    3  A    between atoms: C5_5  and  C6_6 
REMARK    4  A    between atoms: C6_6  and  O1_7 
REMARK    5  A    between atoms: O1_7  and  C7_8 
REMARK    6  A    between atoms: C10_11  and  N1_12 
REMARK    7  A    between atoms: N1_12  and  C11_13 
REMARK    8  A    between atoms: C11_13  and  C12_14 
REMARK    9  A    between atoms: C12_14  and  C13_15 
REMARK   10  A    between atoms: C17_22  and  O2_23 
ROOT
HETATM    1  C1  UNL     1      27.196   6.516  48.213  1.00  0.00     0.012 C 
HETATM    2  C2  UNL     1      26.671   5.681  48.908  1.00  0.00    -0.117 C 
HETATM    3  C3  UNL     1      26.033   4.659  49.726  1.00  0.00     0.093 C 
ENDROOT
BRANCH   3   4
HETATM    4  C4  UNL     1      26.554   3.275  49.447  1.00  0.00     0.014 C 
BRANCH   4   5
HETATM    5  C5  UNL     1      26.036   2.274  50.491  1.00  0.00     0.028 C 
BRANCH   5   6
HETATM    6  C6  UNL     1      26.827   2.461  51.738  1.00  0.00     0.176 C 
BRANCH   6   7
HETATM    7  O1  UNL     1      26.161   2.261  52.931  1.00  0.00    -0.348 OA
BRANCH   7   8
HETATM    8  C7  UNL     1      25.169   1.400  53.275  1.00  0.00     0.103 A 
HETATM    9  C8  UNL     1      23.817   1.379  53.035  1.00  0.00     0.057 A 
HETATM   10  C9  UNL     1      22.956   0.417  53.464  1.00  0.00     0.041 A 
HETATM   11  C10 UNL     1      21.618   0.517  53.152  1.00  0.00     0.137 A 
HETATM   12  C15 UNL     1      23.472  -0.630  54.200  1.00  0.00     0.075 A 
HETATM   13  N2  UNL     1      20.855  -0.483  53.622  1.00  0.00    -0.224 NA
HETATM   14  C14 UNL     1      21.333  -1.514  54.342  1.00  0.00     0.235 A 
HETATM   15  N3  UNL     1      22.644  -1.599  54.639  1.00  0.00    -0.241 NA
HETATM   16  C16 UNL     1      24.814  -0.689  54.487  1.00  0.00     0.072 A 
HETATM   17  C17 UNL     1      25.661   0.324  54.026  1.00  0.00     0.103 A 
BRANCH  11  18
HETATM   18  N1  UNL     1      21.043   1.561  52.405  1.00  0.00    -0.374 N 
HETATM   19  H11 UNL     1      21.025   2.570  52.648  1.00  0.00     0.161 HD
BRANCH  18  20
HETATM   20  C11 UNL     1      20.386   1.254  51.141  1.00  0.00     0.128 C 
BRANCH  20  21
HETATM   21  C12 UNL     1      21.324   0.880  50.064  1.00  0.00     0.030 C 
BRANCH  21  22
HETATM   22  C13 UNL     1      22.132   1.783  49.480  1.00  0.00     0.239 C 
HETATM   23 CL1  UNL     1      23.010   2.719  48.263  1.00  0.00    -0.255 Cl
ENDBRANCH  21  22
ENDBRANCH  20  21
ENDBRANCH  18  20
ENDBRANCH  11  18
BRANCH  17  24
HETATM   24  O2  UNL     1      26.971   0.156  54.373  1.00  0.00    -0.353 OA
HETATM   25  C18 UNL     1      27.922  -0.537  53.612  1.00  0.00     0.210 C 
ENDBRANCH  17  24
ENDBRANCH   7   8
ENDBRANCH   6   7
ENDBRANCH   5   6
ENDBRANCH   4   5
ENDBRANCH   3   4
TORSDOF 10
ENDMDL
MODEL 2
REMARK VINA RESULT:      -6.2      2.345      5.060
REMARK  10 active torsions:
REMARK  status: ('A' for Active; 'I' for Inactive)
REMARK    1  A    between atoms: C3_3  and  C4_4 
REMARK    2  A    between atoms: C4_4  and  C5_5 
REMARK    3  A    between atoms: C5_5  and  C6_6 
REMARK    4  A    between atoms: C6_6  and  O1_7 
REMARK    5  A    between atoms: O1_7  and  C7_8 
REMARK    6  A    between atoms: C10_11  and  N1_12 
REMARK    7  A    between atoms: N1_12  and  C11_13 
REMARK    8  A    between atoms: C11_13  and  C12_14 
REMARK    9  A    between atoms: C12_14  and  C13_15 
REMARK   10  A    between atoms: C17_22  and  O2_23 
ROOT
HETATM    1  C1  UNL     1      29.395   2.134  54.301  1.00  0.00     0.012 C 
HETATM    2  C2  UNL     1      29.029   0.985  54.317  1.00  0.00    -0.117 C 
HETATM    3  C3  UNL     1      28.567  -0.397  54.325  1.00  0.00     0.093 C 
ENDROOT
BRANCH   3   4
HETATM    4  C4  UNL     1      28.113  -0.870  52.971  1.00  0.00     0.014 C 
BRANCH   4   5
HETATM    5  C5  UNL     1      26.800  -0.184  52.564  1.00  0.00     0.028 C 
BRANCH   5   6
HETATM    6  C6  UNL     1      25.690  -0.833  53.316  1.00  0.00     0.176 C 
BRANCH   6   7
HETATM    7  O1  UNL     1      24.687  -0.005  53.777  1.00  0.00    -0.348 OA
BRANCH   7   8
HETATM    8  C7  UNL     1      23.779   0.763  53.121  1.00  0.00     0.103 A 
HETATM    9  C8  UNL     1      23.805   2.053  52.651  1.00  0.00     0.057 A 
HETATM   10  C9  UNL     1      22.784   2.674  52.001  1.00  0.00     0.041 A 
HETATM   11  C10 UNL     1      22.941   3.977  51.580  1.00  0.00     0.137 A 
HETATM   12  C15 UNL     1      21.623   1.959  51.790  1.00  0.00     0.075 A 
HETATM   13  N2  UNL     1      21.875   4.496  50.950  1.00  0.00    -0.224 NA
HETATM   14  C14 UNL     1      20.733   3.821  50.732  1.00  0.00     0.235 A 
HETATM   15  N3  UNL     1      20.594   2.548  51.148  1.00  0.00    -0.241 NA
HETATM   16  C16 UNL     1      21.511   0.662  52.227  1.00  0.00     0.072 A 
HETATM   17  C17 UNL     1      22.586   0.065  52.891  1.00  0.00     0.103 A 
BRANCH  11  18
HETATM   18  N1  UNL     1      24.102   4.747  51.770  1.00  0.00    -0.374 N 
HETATM   19  H11 UNL     1      24.807   4.645  52.525  1.00  0.00     0.161 HD
BRANCH  18  20
HETATM   20  C11 UNL     1      24.403   5.824  50.834  1.00  0.00     0.128 C 
BRANCH  20  21
HETATM   21  C12 UNL     1      25.478   5.492  49.879  1.00  0.00     0.030 C 
BRANCH  21  22
HETATM   22  C13 UNL     1      26.106   4.303  49.902  1.00  0.00     0.239 C 
HETATM   23 CL1  UNL     1      26.518   2.622  50.270  1.00  0.00    -0.255 Cl
ENDBRANCH  21  22
ENDBRANCH  20  21
ENDBRANCH  18  20
ENDBRANCH  11  18
BRANCH  17  24
HETATM   24  O2  UNL     1      22.357  -1.225  53.277  1.00  0.00    -0.353 OA
HETATM   25  C18 UNL     1      21.771  -1.609  54.490  1.00  0.00     0.210 C 
ENDBRANCH  17  24
ENDBRANCH   7   8
ENDBRANCH   6   7
ENDBRANCH   5   6
ENDBRANCH   4   5
ENDBRANCH   3   4
TORSDOF 10
ENDMDL
MODEL 3
REMARK VINA RESULT:      -6.1      2.676      5.268
REMARK  10 active torsions:
REMARK  status: ('A' for Active; 'I' for Inactive)
REMARK    1  A    between atoms: C3_3  and  C4_4 
REMARK    2  A    between atoms: C4_4  and  C5_5 
REMARK    3  A    between atoms: C5_5  and  C6_6 
REMARK    4  A    between atoms: C6_6  and  O1_7 
REMARK    5  A    between atoms: O1_7  and  C7_8 
REMARK    6  A    between atoms: C10_11  and  N1_12 
REMARK    7  A    between atoms: N1_12  and  C11_13 
REMARK    8  A    between atoms: C11_13  and  C12_14 
REMARK    9  A    between atoms: C12_14  and  C13_15 
REMARK   10  A    between atoms: C17_22  and  O2_23 
ROOT
HETATM    1  C1  UNL     1      21.419   0.554  50.717  1.00  0.00     0.012 C 
HETATM    2  C2  UNL     1      21.018   0.752  51.838  1.00  0.00    -0.117 C 
HETATM    3  C3  UNL     1      20.533   0.967  53.194  1.00  0.00     0.093 C 
ENDROOT
BRANCH   3   4
HETATM    4  C4  UNL     1      21.207   0.081  54.206  1.00  0.00     0.014 C 
BRANCH   4   5
HETATM    5  C5  UNL     1      22.210  -0.862  53.524  1.00  0.00     0.028 C 
BRANCH   5   6
HETATM    6  C6  UNL     1      23.285  -1.177  54.506  1.00  0.00     0.176 C 
BRANCH   6   7
HETATM    7  O1  UNL     1      24.440  -0.425  54.423  1.00  0.00    -0.348 OA
BRANCH   7   8
HETATM    8  C7  UNL     1      24.904   0.411  53.459  1.00  0.00     0.103 A 
HETATM    9  C8  UNL     1      24.384   1.531  52.858  1.00  0.00     0.057 A 
HETATM   10  C9  UNL     1      25.001   2.262  51.890  1.00  0.00     0.041 A 
HETATM   11  C10 UNL     1      24.367   3.368  51.369  1.00  0.00     0.137 A 
HETATM   12  C15 UNL     1      26.251   1.855  51.471  1.00  0.00     0.075 A 
HETATM   13  N2  UNL     1      25.060   4.019  50.420  1.00  0.00    -0.224 NA
HETATM   14  C14 UNL     1      26.280   3.643  49.995  1.00  0.00     0.235 A 
HETATM   15  N3  UNL     1      26.887   2.559  50.514  1.00  0.00    -0.241 NA
HETATM   16  C16 UNL     1      26.846   0.745  52.019  1.00  0.00     0.072 A 
HETATM   17  C17 UNL     1      26.174   0.024  53.012  1.00  0.00     0.103 A 
BRANCH  11  18
HETATM   18  N1  UNL     1      23.096   3.824  51.761  1.00  0.00    -0.374 N 
HETATM   19  H11 UNL     1      22.697   3.825  52.719  1.00  0.00     0.161 HD
BRANCH  18  20
HETATM   20  C11 UNL     1      22.192   4.367  50.754  1.00  0.00     0.128 C 
BRANCH  20  21
HETATM   21  C12 UNL     1      20.900   4.821  51.305  1.00  0.00     0.030 C 
BRANCH  21  22
HETATM   22  C13 UNL     1      19.774   4.098  51.163  1.00  0.00     0.239 C 
HETATM   23 CL1  UNL     1      18.278   3.223  51.518  1.00  0.00    -0.255 Cl
ENDBRANCH  21  22
ENDBRANCH  20  21
ENDBRANCH  18  20
ENDBRANCH  11  18
BRANCH  17  24
HETATM   24  O2  UNL     1      26.865  -1.058  53.480  1.00  0.00    -0.353 OA
HETATM   25  C18 UNL     1      27.204  -2.184  52.719  1.00  0.00     0.210 C 
ENDBRANCH  17  24
ENDBRANCH   7   8
ENDBRANCH   6   7
ENDBRANCH   5   6
ENDBRANCH   4   5
ENDBRANCH   3   4
TORSDOF 10
ENDMDL
MODEL 4
REMARK VINA RESULT:      -6.1      3.101      5.968
REMARK  10 active torsions:
REMARK  status: ('A' for Active; 'I' for Inactive)
REMARK    1  A    between atoms: C3_3  and  C4_4 
REMARK    2  A    between atoms: C4_4  and  C5_5 
REMARK    3  A    between atoms: C5_5  and  C6_6 
REMARK    4  A    between atoms: C6_6  and  O1_7 
REMARK    5  A    between atoms: O1_7  and  C7_8 
REMARK    6  A    between atoms: C10_11  and  N1_12 
REMARK    7  A    between atoms: N1_12  and  C11_13 
REMARK    8  A    between atoms: C11_13  and  C12_14 
REMARK    9  A    between atoms: C12_14  and  C13_15 
REMARK   10  A    between atoms: C17_22  and  O2_23 
ROOT
HETATM    1  C1  UNL     1      29.673  -0.834  53.555  1.00  0.00     0.012 C 
HETATM    2  C2  UNL     1      28.501  -0.571  53.440  1.00  0.00    -0.117 C 
HETATM    3  C3  UNL     1      27.092  -0.235  53.288  1.00  0.00     0.093 C 
ENDROOT
BRANCH   3   4
HETATM    4  C4  UNL     1      26.703   0.029  51.858  1.00  0.00     0.014 C 
BRANCH   4   5
HETATM    5  C5  UNL     1      26.193   1.467  51.687  1.00  0.00     0.028 C 
BRANCH   5   6
HETATM    6  C6  UNL     1      26.046   2.067  53.042  1.00  0.00     0.176 C 
BRANCH   6   7
HETATM    7  O1  UNL     1      24.785   2.508  53.392  1.00  0.00    -0.348 OA
BRANCH   7   8
HETATM    8  C7  UNL     1      23.850   3.207  52.698  1.00  0.00     0.103 A 
HETATM    9  C8  UNL     1      23.762   4.518  52.299  1.00  0.00     0.057 A 
HETATM   10  C9  UNL     1      22.731   5.058  51.594  1.00  0.00     0.041 A 
HETATM   11  C10 UNL     1      22.767   6.393  51.256  1.00  0.00     0.137 A 
HETATM   12  C15 UNL     1      21.685   4.230  51.243  1.00  0.00     0.075 A 
HETATM   13  N2  UNL     1      21.703   6.826  50.561  1.00  0.00    -0.224 NA
HETATM   14  C14 UNL     1      20.670   6.039  50.207  1.00  0.00     0.235 A 
HETATM   15  N3  UNL     1      20.649   4.736  50.544  1.00  0.00    -0.241 NA
HETATM   16  C16 UNL     1      21.692   2.904  51.601  1.00  0.00     0.072 A 
HETATM   17  C17 UNL     1      22.772   2.393  52.327  1.00  0.00     0.103 A 
BRANCH  11  18
HETATM   18  N1  UNL     1      23.809   7.278  51.588  1.00  0.00    -0.374 N 
HETATM   19  H11 UNL     1      24.249   7.407  52.519  1.00  0.00     0.161 HD
BRANCH  18  20
HETATM   20  C11 UNL     1      24.373   8.133  50.552  1.00  0.00     0.128 C 
BRANCH  20  21
HETATM   21  C12 UNL     1      25.707   7.700  50.092  1.00  0.00     0.030 C 
BRANCH  21  22
HETATM   22  C13 UNL     1      25.920   6.472  49.586  1.00  0.00     0.239 C 
HETATM   23 CL1  UNL     1      25.785   4.739  49.258  1.00  0.00    -0.255 Cl
ENDBRANCH  21  22
ENDBRANCH  20  21
ENDBRANCH  18  20
ENDBRANCH  11  18
BRANCH  17  24
HETATM   24  O2  UNL     1      22.666   1.063  52.623  1.00  0.00    -0.353 OA
HETATM   25  C18 UNL     1      21.745   0.512  53.524  1.00  0.00     0.210 C 
ENDBRANCH  17  24
ENDBRANCH   7   8
ENDBRANCH   6   7
ENDBRANCH   5   6
ENDBRANCH   4   5
ENDBRANCH   3   4
TORSDOF 10
ENDMDL
MODEL 5
REMARK VINA RESULT:      -6.1      3.275      5.386
REMARK  10 active torsions:
REMARK  status: ('A' for Active; 'I' for Inactive)
REMARK    1  A    between atoms: C3_3  and  C4_4 
REMARK    2  A    between atoms: C4_4  and  C5_5 
REMARK    3  A    between atoms: C5_5  and  C6_6 
REMARK    4  A    between atoms: C6_6  and  O1_7 
REMARK    5  A    between atoms: O1_7  and  C7_8 
REMARK    6  A    between atoms: C10_11  and  N1_12 
REMARK    7  A    between atoms: N1_12  and  C11_13 
REMARK    8  A    between atoms: C11_13  and  C12_14 
REMARK    9  A    between atoms: C12_14  and  C13_15 
REMARK   10  A    between atoms: C17_22  and  O2_23 
ROOT
HETATM    1  C1  UNL     1      24.072   3.831  49.601  1.00  0.00     0.012 C 
HETATM    2  C2  UNL     1      23.219   3.788  48.748  1.00  0.00    -0.117 C 
HETATM    3  C3  UNL     1      22.193   3.712  47.718  1.00  0.00     0.093 C 
ENDROOT
BRANCH   3   4
HETATM    4  C4  UNL     1      21.214   2.592  47.946  1.00  0.00     0.014 C 
BRANCH   4   5
HETATM    5  C5  UNL     1      21.904   1.390  48.609  1.00  0.00     0.028 C 
BRANCH   5   6
HETATM    6  C6  UNL     1      21.044   0.930  49.735  1.00  0.00     0.176 C 
BRANCH   6   7
HETATM    7  O1  UNL     1      21.386   1.374  50.997  1.00  0.00    -0.348 OA
BRANCH   7   8
HETATM    8  C7  UNL     1      22.061   0.774  52.011  1.00  0.00     0.103 A 
HETATM    9  C8  UNL     1      23.386   0.744  52.370  1.00  0.00     0.057 A 
HETATM   10  C9  UNL     1      23.896   0.079  53.441  1.00  0.00     0.041 A 
HETATM   11  C10 UNL     1      25.250   0.131  53.689  1.00  0.00     0.137 A 
HETATM   12  C15 UNL     1      23.021  -0.627  54.240  1.00  0.00     0.075 A 
HETATM   13  N2  UNL     1      25.651  -0.559  54.769  1.00  0.00    -0.224 NA
HETATM   14  C14 UNL     1      24.818  -1.254  55.564  1.00  0.00     0.235 A 
HETATM   15  N3  UNL     1      23.497  -1.297  55.309  1.00  0.00    -0.241 NA
HETATM   16  C16 UNL     1      21.678  -0.652  53.954  1.00  0.00     0.072 A 
HETATM   17  C17 UNL     1      21.198   0.047  52.842  1.00  0.00     0.103 A 
BRANCH  11  18
HETATM   18  N1  UNL     1      26.183   0.836  52.907  1.00  0.00    -0.374 N 
HETATM   19  H11 UNL     1      26.456   0.638  51.925  1.00  0.00     0.161 HD
BRANCH  18  20
HETATM   20  C11 UNL     1      26.876   1.981  53.485  1.00  0.00     0.128 C 
BRANCH  20  21
HETATM   21  C12 UNL     1      28.347   1.861  53.446  1.00  0.00     0.030 C 
BRANCH  21  22
HETATM   22  C13 UNL     1      28.977   0.725  53.798  1.00  0.00     0.239 C 
HETATM   23 CL1  UNL     1      29.531  -0.954  53.825  1.00  0.00    -0.255 Cl
ENDBRANCH  21  22
ENDBRANCH  20  21
ENDBRANCH  18  20
ENDBRANCH  11  18
BRANCH  17  24
HETATM   24  O2  UNL     1      19.847  -0.052  52.661  1.00  0.00    -0.353 OA
HETATM   25  C18 UNL     1      19.013  -0.961  53.324  1.00  0.00     0.210 C 
ENDBRANCH  17  24
ENDBRANCH   7   8
ENDBRANCH   6   7
ENDBRANCH   5   6
ENDBRANCH   4   5
ENDBRANCH   3   4
TORSDOF 10
ENDMDL
MODEL 6
REMARK VINA RESULT:      -6.0      1.411      1.675
REMARK  10 active torsions:
REMARK  status: ('A' for Active; 'I' for Inactive)
REMARK    1  A    between atoms: C3_3  and  C4_4 
REMARK    2  A    between atoms: C4_4  and  C5_5 
REMARK    3  A    between atoms: C5_5  and  C6_6 
REMARK    4  A    between atoms: C6_6  and  O1_7 
REMARK    5  A    between atoms: O1_7  and  C7_8 
REMARK    6  A    between atoms: C10_11  and  N1_12 
REMARK    7  A    between atoms: N1_12  and  C11_13 
REMARK    8  A    between atoms: C11_13  and  C12_14 
REMARK    9  A    between atoms: C12_14  and  C13_15 
REMARK   10  A    between atoms: C17_22  and  O2_23 
ROOT
HETATM    1  C1  UNL     1      29.037   6.088  48.105  1.00  0.00     0.012 C 
HETATM    2  C2  UNL     1      28.234   5.258  48.453  1.00  0.00    -0.117 C 
HETATM    3  C3  UNL     1      27.258   4.270  48.893  1.00  0.00     0.093 C 
ENDROOT
BRANCH   3   4
HETATM    4  C4  UNL     1      25.939   4.880  49.281  1.00  0.00     0.014 C 
BRANCH   4   5
HETATM    5  C5  UNL     1      24.929   3.793  49.678  1.00  0.00     0.028 C 
BRANCH   5   6
HETATM    6  C6  UNL     1      24.473   4.073  51.067  1.00  0.00     0.176 C 
BRANCH   6   7
HETATM    7  O1  UNL     1      24.743   3.107  52.016  1.00  0.00    -0.348 OA
BRANCH   7   8
HETATM    8  C7  UNL     1      23.993   2.082  52.496  1.00  0.00     0.103 A 
HETATM    9  C8  UNL     1      22.640   1.845  52.535  1.00  0.00     0.057 A 
HETATM   10  C9  UNL     1      22.051   0.740  53.065  1.00  0.00     0.041 A 
HETATM   11  C10 UNL     1      20.678   0.626  53.040  1.00  0.00     0.137 A 
HETATM   12  C15 UNL     1      22.867  -0.230  53.609  1.00  0.00     0.075 A 
HETATM   13  N2  UNL     1      20.197  -0.502  53.587  1.00  0.00    -0.224 NA
HETATM   14  C14 UNL     1      20.971  -1.462  54.124  1.00  0.00     0.235 A 
HETATM   15  N3  UNL     1      22.312  -1.337  54.142  1.00  0.00    -0.241 NA
HETATM   16  C16 UNL     1      24.232  -0.075  53.613  1.00  0.00     0.072 A 
HETATM   17  C17 UNL     1      24.794   1.079  53.057  1.00  0.00     0.103 A 
BRANCH  11  18
HETATM   18  N1  UNL     1      19.803   1.584  52.497  1.00  0.00    -0.374 N 
HETATM   19  H11 UNL     1      19.886   2.616  52.559  1.00  0.00     0.161 HD
BRANCH  18  20
HETATM   20  C11 UNL     1      18.631   1.137  51.753  1.00  0.00     0.128 C 
BRANCH  20  21
HETATM   21  C12 UNL     1      18.826   1.137  50.290  1.00  0.00     0.030 C 
BRANCH  21  22
HETATM   22  C13 UNL     1      20.046   1.020  49.736  1.00  0.00     0.239 C 
HETATM   23 CL1  UNL     1      21.714   1.353  49.251  1.00  0.00    -0.255 Cl
ENDBRANCH  21  22
ENDBRANCH  20  21
ENDBRANCH  18  20
ENDBRANCH  11  18
BRANCH  17  24
HETATM   24  O2  UNL     1      26.158   1.119  53.119  1.00  0.00    -0.353 OA
HETATM   25  C18 UNL     1      26.921   0.805  54.251  1.00  0.00     0.210 C 
ENDBRANCH  17  24
ENDBRANCH   7   8
ENDBRANCH   6   7
ENDBRANCH   5   6
ENDBRANCH   4   5
ENDBRANCH   3   4
TORSDOF 10
ENDMDL
MODEL 7
REMARK VINA RESULT:      -6.0      2.689      5.734
REMARK  10 active torsions:
REMARK  status: ('A' for Active; 'I' for Inactive)
REMARK    1  A    between atoms: C3_3  and  C4_4 
REMARK    2  A    between atoms: C4_4  and  C5_5 
REMARK    3  A    between atoms: C5_5  and  C6_6 
REMARK    4  A    between atoms: C6_6  and  O1_7 
REMARK    5  A    between atoms: O1_7  and  C7_8 
REMARK    6  A    between atoms: C10_11  and  N1_12 
REMARK    7  A    between atoms: N1_12  and  C11_13 
REMARK    8  A    between atoms: C11_13  and  C12_14 
REMARK    9  A    between atoms: C12_14  and  C13_15 
REMARK   10  A    between atoms: C17_22  and  O2_23 
ROOT
HETATM    1  C1  UNL     1      18.608  -0.173  51.713  1.00  0.00     0.012 C 
HETATM    2  C2  UNL     1      19.332  -0.089  52.674  1.00  0.00    -0.117 C 
HETATM    3  C3  UNL     1      20.196  -0.007  53.844  1.00  0.00     0.093 C 
ENDROOT
BRANCH   3   4
HETATM    4  C4  UNL     1      20.851  -1.319  54.182  1.00  0.00     0.014 C 
BRANCH   4   5
HETATM    5  C5  UNL     1      22.274  -1.384  53.607  1.00  0.00     0.028 C 
BRANCH   5   6
HETATM    6  C6  UNL     1      23.224  -1.002  54.688  1.00  0.00     0.176 C 
BRANCH   6   7
HETATM    7  O1  UNL     1      24.513  -0.695  54.300  1.00  0.00    -0.348 OA
BRANCH   7   8
HETATM    8  C7  UNL     1      24.995   0.207  53.407  1.00  0.00     0.103 A 
HETATM    9  C8  UNL     1      24.399   0.991  52.448  1.00  0.00     0.057 A 
HETATM   10  C9  UNL     1      25.049   1.858  51.626  1.00  0.00     0.041 A 
HETATM   11  C10 UNL     1      24.329   2.586  50.704  1.00  0.00     0.137 A 
HETATM   12  C15 UNL     1      26.418   1.969  51.757  1.00  0.00     0.075 A 
HETATM   13  N2  UNL     1      25.064   3.412  49.942  1.00  0.00    -0.224 NA
HETATM   14  C14 UNL     1      26.399   3.539  50.050  1.00  0.00     0.235 A 
HETATM   15  N3  UNL     1      27.089   2.821  50.956  1.00  0.00    -0.241 NA
HETATM   16  C16 UNL     1      27.095   1.223  52.690  1.00  0.00     0.072 A 
HETATM   17  C17 UNL     1      26.385   0.344  53.514  1.00  0.00     0.103 A 
BRANCH  11  18
HETATM   18  N1  UNL     1      22.935   2.509  50.532  1.00  0.00    -0.374 N 
HETATM   19  H11 UNL     1      22.388   1.694  50.194  1.00  0.00     0.161 HD
BRANCH  18  20
HETATM   20  C11 UNL     1      22.114   3.672  50.847  1.00  0.00     0.128 C 
BRANCH  20  21
HETATM   21  C12 UNL     1      22.806   4.675  51.679  1.00  0.00     0.030 C 
BRANCH  21  22
HETATM   22  C13 UNL     1      23.020   5.931  51.246  1.00  0.00     0.239 C 
HETATM   23 CL1  UNL     1      23.728   7.536  51.017  1.00  0.00    -0.255 Cl
ENDBRANCH  21  22
ENDBRANCH  20  21
ENDBRANCH  18  20
ENDBRANCH  11  18
BRANCH  17  24
HETATM   24  O2  UNL     1      27.165  -0.342  54.401  1.00  0.00    -0.353 OA
HETATM   25  C18 UNL     1      28.438   0.059  54.827  1.00  0.00     0.210 C 
ENDBRANCH  17  24
ENDBRANCH   7   8
ENDBRANCH   6   7
ENDBRANCH   5   6
ENDBRANCH   4   5
ENDBRANCH   3   4
TORSDOF 10
ENDMDL
MODEL 8
REMARK VINA RESULT:      -6.0      3.079      4.783
REMARK  10 active torsions:
REMARK  status: ('A' for Active; 'I' for Inactive)
REMARK    1  A    between atoms: C3_3  and  C4_4 
REMARK    2  A    between atoms: C4_4  and  C5_5 
REMARK    3  A    between atoms: C5_5  and  C6_6 
REMARK    4  A    between atoms: C6_6  and  O1_7 
REMARK    5  A    between atoms: O1_7  and  C7_8 
REMARK    6  A    between atoms: C10_11  and  N1_12 
REMARK    7  A    between atoms: N1_12  and  C11_13 
REMARK    8  A    between atoms: C11_13  and  C12_14 
REMARK    9  A    between atoms: C12_14  and  C13_15 
REMARK   10  A    between atoms: C17_22  and  O2_23 
ROOT
HETATM    1  C1  UNL     1      22.719   7.123  50.065  1.00  0.00     0.012 C 
HETATM    2  C2  UNL     1      22.706   6.227  50.873  1.00  0.00    -0.117 C 
HETATM    3  C3  UNL     1      22.669   5.153  51.857  1.00  0.00     0.093 C 
ENDROOT
BRANCH   3   4
HETATM    4  C4  UNL     1      21.344   4.441  51.898  1.00  0.00     0.014 C 
BRANCH   4   5
HETATM    5  C5  UNL     1      21.212   3.464  50.720  1.00  0.00     0.028 C 
BRANCH   5   6
HETATM    6  C6  UNL     1      20.920   2.113  51.274  1.00  0.00     0.176 C 
BRANCH   6   7
HETATM    7  O1  UNL     1      21.518   1.795  52.478  1.00  0.00    -0.348 OA
BRANCH   7   8
HETATM    8  C7  UNL     1      22.752   1.310  52.770  1.00  0.00     0.103 A 
HETATM    9  C8  UNL     1      24.024   1.750  52.495  1.00  0.00     0.057 A 
HETATM   10  C9  UNL     1      25.172   1.127  52.875  1.00  0.00     0.041 A 
HETATM   11  C10 UNL     1      26.387   1.677  52.532  1.00  0.00     0.137 A 
HETATM   12  C15 UNL     1      25.062  -0.043  53.598  1.00  0.00     0.075 A 
HETATM   13  N2  UNL     1      27.457   0.985  52.955  1.00  0.00    -0.224 NA
HETATM   14  C14 UNL     1      27.377  -0.158  53.661  1.00  0.00     0.235 A 
HETATM   15  N3  UNL     1      26.182  -0.684  53.989  1.00  0.00    -0.241 NA
HETATM   16  C16 UNL     1      23.829  -0.555  53.918  1.00  0.00     0.072 A 
HETATM   17  C17 UNL     1      22.676   0.120  53.505  1.00  0.00     0.103 A 
BRANCH  11  18
HETATM   18  N1  UNL     1      26.552   2.865  51.798  1.00  0.00    -0.374 N 
HETATM   19  H11 UNL     1      26.669   3.825  52.176  1.00  0.00     0.161 HD
BRANCH  18  20
HETATM   20  C11 UNL     1      26.570   2.806  50.341  1.00  0.00     0.128 C 
BRANCH  20  21
HETATM   21  C12 UNL     1      25.595   3.712  49.703  1.00  0.00     0.030 C 
BRANCH  21  22
HETATM   22  C13 UNL     1      25.912   4.977  49.373  1.00  0.00     0.239 C 
HETATM   23 CL1  UNL     1      26.077   6.493  48.476  1.00  0.00    -0.255 Cl
ENDBRANCH  21  22
ENDBRANCH  20  21
ENDBRANCH  18  20
ENDBRANCH  11  18
BRANCH  17  24
HETATM   24  O2  UNL     1      21.510  -0.485  53.883  1.00  0.00    -0.353 OA
HETATM   25  C18 UNL     1      21.417  -1.752  54.473  1.00  0.00     0.210 C 
ENDBRANCH  17  24
ENDBRANCH   7   8
ENDBRANCH   6   7
ENDBRANCH   5   6
ENDBRANCH   4   5
ENDBRANCH   3   4
TORSDOF 10
ENDMDL
MODEL 9
REMARK VINA RESULT:      -5.7      5.258      8.794
REMARK  10 active torsions:
REMARK  status: ('A' for Active; 'I' for Inactive)
REMARK    1  A    between atoms: C3_3  and  C4_4 
REMARK    2  A    between atoms: C4_4  and  C5_5 
REMARK    3  A    between atoms: C5_5  and  C6_6 
REMARK    4  A    between atoms: C6_6  and  O1_7 
REMARK    5  A    between atoms: O1_7  and  C7_8 
REMARK    6  A    between atoms: C10_11  and  N1_12 
REMARK    7  A    between atoms: N1_12  and  C11_13 
REMARK    8  A    between atoms: C11_13  and  C12_14 
REMARK    9  A    between atoms: C12_14  and  C13_15 
REMARK   10  A    between atoms: C17_22  and  O2_23 
ROOT
HETATM    1  C1  UNL     1      28.888   2.414  53.824  1.00  0.00     0.012 C 
HETATM    2  C2  UNL     1      28.264   1.458  53.434  1.00  0.00    -0.117 C 
HETATM    3  C3  UNL     1      27.491   0.313  52.972  1.00  0.00     0.093 C 
ENDROOT
BRANCH   3   4
HETATM    4  C4  UNL     1      26.235   0.710  52.245  1.00  0.00     0.014 C 
BRANCH   4   5
HETATM    5  C5  UNL     1      26.533   1.775  51.179  1.00  0.00     0.028 C 
BRANCH   5   6
HETATM    6  C6  UNL     1      25.338   2.656  51.062  1.00  0.00     0.176 C 
BRANCH   6   7
HETATM    7  O1  UNL     1      25.114   3.236  49.829  1.00  0.00    -0.348 OA
BRANCH   7   8
HETATM    8  C7  UNL     1      25.532   4.415  49.299  1.00  0.00     0.103 A 
HETATM    9  C8  UNL     1      26.774   4.959  49.081  1.00  0.00     0.057 A 
HETATM   10  C9  UNL     1      27.012   6.177  48.526  1.00  0.00     0.041 A 
HETATM   11  C10 UNL     1      28.312   6.605  48.363  1.00  0.00     0.137 A 
HETATM   12  C15 UNL     1      25.926   6.937  48.145  1.00  0.00     0.075 A 
HETATM   13  N2  UNL     1      28.438   7.821  47.806  1.00  0.00    -0.224 NA
HETATM   14  C14 UNL     1      27.395   8.581  47.426  1.00  0.00     0.235 A 
HETATM   15  N3  UNL     1      26.130   8.149  47.591  1.00  0.00    -0.241 NA
HETATM   16  C16 UNL     1      24.647   6.470  48.326  1.00  0.00     0.072 A 
HETATM   17  C17 UNL     1      24.450   5.211  48.902  1.00  0.00     0.103 A 
BRANCH  11  18
HETATM   18  N1  UNL     1      29.452   5.870  48.733  1.00  0.00    -0.374 N 
HETATM   19  H11 UNL     1      29.478   4.919  49.149  1.00  0.00     0.161 HD
BRANCH  18  20
HETATM   20  C11 UNL     1      30.772   6.455  48.534  1.00  0.00     0.128 C 
BRANCH  20  21
HETATM   21  C12 UNL     1      31.874   5.481  48.664  1.00  0.00     0.030 C 
BRANCH  21  22
HETATM   22  C13 UNL     1      32.023   4.457  47.804  1.00  0.00     0.239 C 
HETATM   23 CL1  UNL     1      32.114   3.510  46.313  1.00  0.00    -0.255 Cl
ENDBRANCH  21  22
ENDBRANCH  20  21
ENDBRANCH  18  20
ENDBRANCH  11  18
BRANCH  17  24
HETATM   24  O2  UNL     1      23.137   4.856  49.030  1.00  0.00    -0.353 OA
HETATM   25  C18 UNL     1      22.297   5.249  50.080  1.00  0.00     0.210 C 
ENDBRANCH  17  24
ENDBRANCH   7   8
ENDBRANCH   6   7
ENDBRANCH   5   6
ENDBRANCH   4   5
ENDBRANCH   3   4
TORSDOF 10
ENDMDL
