MODEL 1
REMARK VINA RESULT:      -9.0      0.000      0.000
REMARK  1 active torsions:
REMARK  status: ('A' for Active; 'I' for Inactive)
REMARK    1  A    between atoms: N1_1  and  C1_2 
ROOT
HETATM    1  C1  UNL     1      26.659   0.690  54.188  1.00  0.00     0.095 C 
HETATM    2  N2  UNL     1      26.131  -0.091  53.375  1.00  0.00    -0.247 NA
HETATM    3  C2  UNL     1      25.193   0.210  52.363  1.00  0.00     0.237 C 
HETATM    4  N3  UNL     1      23.979  -0.533  52.591  1.00  0.00    -0.363 N 
HETATM    5  C3  UNL     1      22.581  -0.524  52.814  1.00  0.00     0.041 A 
HETATM    6  C4  UNL     1      22.099  -1.356  53.781  1.00  0.00     0.032 A 
HETATM    7  C5  UNL     1      20.771  -1.488  54.079  1.00  0.00     0.026 A 
HETATM    8  C6  UNL     1      19.930  -0.707  53.317  1.00  0.00     0.035 A 
HETATM    9 CL1  UNL     1      18.221  -0.891  53.718  1.00  0.00    -0.084 Cl
HETATM   10  C7  UNL     1      20.388   0.158  52.316  1.00  0.00     0.038 A 
HETATM   11  C8  UNL     1      21.743   0.238  52.076  1.00  0.00     0.004 A 
HETATM   12  C9  UNL     1      21.890   1.235  50.995  1.00  0.00     0.005 A 
HETATM   13  C10 UNL     1      21.591   0.569  49.828  1.00  0.00     0.014 A 
HETATM   14  C11 UNL     1      21.627   1.188  48.569  1.00  0.00     0.001 A 
HETATM   15  C12 UNL     1      21.975   2.520  48.504  1.00  0.00     0.002 A 
HETATM   16  C13 UNL     1      22.260   3.126  49.711  1.00  0.00     0.032 A 
HETATM   17  C14 UNL     1      22.241   2.571  50.973  1.00  0.00     0.068 A 
HETATM   18  N4  UNL     1      22.510   3.361  52.126  1.00  0.00    -0.246 NA
HETATM   19  C15 UNL     1      23.270   4.380  51.912  1.00  0.00     0.086 C 
HETATM   20  C16 UNL     1      24.444   4.085  51.373  1.00  0.00     0.034 C 
HETATM   21  C17 UNL     1      24.660   2.619  51.261  1.00  0.00     0.009 C 
HETATM   22  C18 UNL     1      24.934   1.691  52.175  1.00  0.00    -0.036 C 
HETATM   23  C19 UNL     1      25.020   2.391  53.457  1.00  0.00     0.045 C 
HETATM   24  C20 UNL     1      26.332   2.113  54.179  1.00  0.00     0.082 C 
HETATM   25  H4  UNL     1      24.342  -1.541  52.566  1.00  0.00     0.162 HD
ENDROOT
BRANCH   1  26
HETATM   26  N1  UNL     1      27.604   0.200  55.160  1.00  0.00    -0.388 N 
HETATM   27  H1  UNL     1      27.757  -0.820  55.407  1.00  0.00     0.157 HD
HETATM   28  H2  UNL     1      28.296   0.704  55.792  1.00  0.00     0.157 HD
ENDBRANCH   1  26
TORSDOF 1
ENDMDL
MODEL 2
REMARK VINA RESULT:      -8.6      2.853      5.232
REMARK  1 active torsions:
REMARK  status: ('A' for Active; 'I' for Inactive)
REMARK    1  A    between atoms: N1_1  and  C1_2 
ROOT
HETATM    1  C1  UNL     1      18.832  -0.817  53.191  1.00  0.00     0.095 C 
HETATM    2  N2  UNL     1      19.578  -0.150  53.932  1.00  0.00    -0.247 NA
HETATM    3  C2  UNL     1      20.407   0.938  53.580  1.00  0.00     0.237 C 
HETATM    4  N3  UNL     1      21.779   0.621  53.880  1.00  0.00    -0.363 N 
HETATM    5  C3  UNL     1      23.110   0.461  53.425  1.00  0.00     0.041 A 
HETATM    6  C4  UNL     1      23.796  -0.629  53.874  1.00  0.00     0.032 A 
HETATM    7  C5  UNL     1      25.100  -0.892  53.556  1.00  0.00     0.026 A 
HETATM    8  C6  UNL     1      25.691   0.040  52.732  1.00  0.00     0.035 A 
HETATM    9 CL1  UNL     1      27.372  -0.319  52.333  1.00  0.00    -0.084 Cl
HETATM   10  C7  UNL     1      25.018   1.171  52.252  1.00  0.00     0.038 A 
HETATM   11  C8  UNL     1      23.704   1.366  52.615  1.00  0.00     0.004 A 
HETATM   12  C9  UNL     1      23.292   2.613  51.937  1.00  0.00     0.005 A 
HETATM   13  C10 UNL     1      23.793   3.640  52.707  1.00  0.00     0.014 A 
HETATM   14  C11 UNL     1      23.601   4.993  52.385  1.00  0.00     0.001 A 
HETATM   15  C12 UNL     1      22.882   5.301  51.251  1.00  0.00     0.002 A 
HETATM   16  C13 UNL     1      22.411   4.224  50.526  1.00  0.00     0.032 A 
HETATM   17  C14 UNL     1      22.569   2.881  50.791  1.00  0.00     0.068 A 
HETATM   18  N4  UNL     1      22.061   1.893  49.901  1.00  0.00    -0.246 NA
HETATM   19  C15 UNL     1      21.041   2.270  49.208  1.00  0.00     0.086 C 
HETATM   20  C16 UNL     1      20.013   2.693  49.929  1.00  0.00     0.034 C 
HETATM   21  C17 UNL     1      20.235   2.509  51.387  1.00  0.00     0.009 C 
HETATM   22  C18 UNL     1      20.227   1.422  52.154  1.00  0.00    -0.036 C 
HETATM   23  C19 UNL     1      19.918   0.298  51.270  1.00  0.00     0.045 C 
HETATM   24  C20 UNL     1      18.731  -0.517  51.766  1.00  0.00     0.082 C 
HETATM   25  H4  UNL     1      21.725   0.434  54.935  1.00  0.00     0.162 HD
ENDROOT
BRANCH   1  26
HETATM   26  N1  UNL     1      18.053  -1.902  53.731  1.00  0.00    -0.388 N 
HETATM   27  H1  UNL     1      17.765  -2.775  53.199  1.00  0.00     0.157 HD
HETATM   28  H2  UNL     1      17.628  -2.061  54.693  1.00  0.00     0.157 HD
ENDBRANCH   1  26
TORSDOF 1
ENDMDL
MODEL 3
REMARK VINA RESULT:      -8.4      3.033      4.810
REMARK  1 active torsions:
REMARK  status: ('A' for Active; 'I' for Inactive)
REMARK    1  A    between atoms: N1_1  and  C1_2 
ROOT
HETATM    1  C1  UNL     1      26.532   6.231  49.330  1.00  0.00     0.095 C 
HETATM    2  N2  UNL     1      26.412   5.028  49.030  1.00  0.00    -0.247 NA
HETATM    3  C2  UNL     1      25.329   4.165  49.311  1.00  0.00     0.237 C 
HETATM    4  N3  UNL     1      25.786   3.059  50.112  1.00  0.00    -0.363 N 
HETATM    5  C3  UNL     1      25.687   2.312  51.311  1.00  0.00     0.041 A 
HETATM    6  C4  UNL     1      26.853   1.946  51.916  1.00  0.00     0.032 A 
HETATM    7  C5  UNL     1      26.916   1.189  53.053  1.00  0.00     0.026 A 
HETATM    8  C6  UNL     1      25.692   0.808  53.559  1.00  0.00     0.035 A 
HETATM    9 CL1  UNL     1      25.795  -0.167  55.027  1.00  0.00    -0.084 Cl
HETATM   10  C7  UNL     1      24.475   1.165  52.966  1.00  0.00     0.038 A 
HETATM   11  C8  UNL     1      24.494   1.932  51.822  1.00  0.00     0.004 A 
HETATM   12  C9  UNL     1      23.074   2.144  51.470  1.00  0.00     0.005 A 
HETATM   13  C10 UNL     1      22.667   0.987  50.842  1.00  0.00     0.014 A 
HETATM   14  C11 UNL     1      21.365   0.807  50.351  1.00  0.00     0.001 A 
HETATM   15  C12 UNL     1      20.459   1.834  50.506  1.00  0.00     0.002 A 
HETATM   16  C13 UNL     1      20.932   2.962  51.145  1.00  0.00     0.032 A 
HETATM   17  C14 UNL     1      22.195   3.194  51.647  1.00  0.00     0.068 A 
HETATM   18  N4  UNL     1      22.501   4.405  52.332  1.00  0.00    -0.246 NA
HETATM   19  C15 UNL     1      21.780   5.415  51.982  1.00  0.00     0.086 C 
HETATM   20  C16 UNL     1      21.817   5.693  50.688  1.00  0.00     0.034 C 
HETATM   21  C17 UNL     1      22.794   4.844  49.957  1.00  0.00     0.009 C 
HETATM   22  C18 UNL     1      24.124   4.856  49.919  1.00  0.00    -0.036 C 
HETATM   23  C19 UNL     1      24.549   5.957  50.783  1.00  0.00     0.045 C 
HETATM   24  C20 UNL     1      25.481   6.927  50.066  1.00  0.00     0.082 C 
HETATM   25  H4  UNL     1      26.533   2.631  49.473  1.00  0.00     0.162 HD
ENDROOT
BRANCH   1  26
HETATM   26  N1  UNL     1      27.718   6.958  48.958  1.00  0.00    -0.388 N 
HETATM   27  H1  UNL     1      28.236   7.648  49.576  1.00  0.00     0.157 HD
HETATM   28  H2  UNL     1      28.290   6.971  48.060  1.00  0.00     0.157 HD
ENDBRANCH   1  26
TORSDOF 1
ENDMDL
MODEL 4
REMARK VINA RESULT:      -7.9      3.015      5.438
REMARK  1 active torsions:
REMARK  status: ('A' for Active; 'I' for Inactive)
REMARK    1  A    between atoms: N1_1  and  C1_2 
ROOT
HETATM    1  C1  UNL     1      18.583   0.670  51.639  1.00  0.00     0.095 C 
HETATM    2  N2  UNL     1      19.303   1.379  52.367  1.00  0.00    -0.247 NA
HETATM    3  C2  UNL     1      20.358   2.234  51.979  1.00  0.00     0.237 C 
HETATM    4  N3  UNL     1      21.582   1.808  52.607  1.00  0.00    -0.363 N 
HETATM    5  C3  UNL     1      22.921   1.367  52.470  1.00  0.00     0.041 A 
HETATM    6  C4  UNL     1      23.317   0.325  53.255  1.00  0.00     0.032 A 
HETATM    7  C5  UNL     1      24.588  -0.181  53.265  1.00  0.00     0.026 A 
HETATM    8  C6  UNL     1      25.464   0.448  52.408  1.00  0.00     0.035 A 
HETATM    9 CL1  UNL     1      27.098  -0.221  52.435  1.00  0.00    -0.084 Cl
HETATM   10  C7  UNL     1      25.093   1.520  51.587  1.00  0.00     0.038 A 
HETATM   11  C8  UNL     1      23.793   1.972  51.633  1.00  0.00     0.004 A 
HETATM   12  C9  UNL     1      23.728   3.076  50.651  1.00  0.00     0.005 A 
HETATM   13  C10 UNL     1      24.268   4.173  51.286  1.00  0.00     0.014 A 
HETATM   14  C11 UNL     1      24.377   5.429  50.669  1.00  0.00     0.001 A 
HETATM   15  C12 UNL     1      23.923   5.565  49.375  1.00  0.00     0.002 A 
HETATM   16  C13 UNL     1      23.396   4.427  48.800  1.00  0.00     0.032 A 
HETATM   17  C14 UNL     1      23.265   3.170  49.354  1.00  0.00     0.068 A 
HETATM   18  N4  UNL     1      22.745   2.084  48.593  1.00  0.00    -0.246 NA
HETATM   19  C15 UNL     1      21.939   2.430  47.648  1.00  0.00     0.086 C 
HETATM   20  C16 UNL     1      20.898   3.144  48.049  1.00  0.00     0.034 C 
HETATM   21  C17 UNL     1      20.837   3.269  49.528  1.00  0.00     0.009 C 
HETATM   22  C18 UNL     1      20.507   2.398  50.479  1.00  0.00    -0.036 C 
HETATM   23  C19 UNL     1      20.156   1.155  49.792  1.00  0.00     0.045 C 
HETATM   24  C20 UNL     1      18.776   0.646  50.192  1.00  0.00     0.082 C 
HETATM   25  H4  UNL     1      21.322   1.876  53.644  1.00  0.00     0.162 HD
ENDROOT
BRANCH   1  26
HETATM   26  N1  UNL     1      17.545  -0.146  52.215  1.00  0.00    -0.388 N 
HETATM   27  H1  UNL     1      17.685  -1.108  52.640  1.00  0.00     0.157 HD
HETATM   28  H2  UNL     1      16.499   0.015  52.332  1.00  0.00     0.157 HD
ENDBRANCH   1  26
TORSDOF 1
ENDMDL
MODEL 5
REMARK VINA RESULT:      -7.7      8.101      9.993
REMARK  1 active torsions:
REMARK  status: ('A' for Active; 'I' for Inactive)
REMARK    1  A    between atoms: N1_1  and  C1_2 
ROOT
HETATM    1  C1  UNL     1      32.998   6.093  48.608  1.00  0.00     0.095 C 
HETATM    2  N2  UNL     1      32.172   5.851  47.708  1.00  0.00    -0.247 NA
HETATM    3  C2  UNL     1      31.122   6.675  47.247  1.00  0.00     0.237 C 
HETATM    4  N3  UNL     1      29.861   6.003  47.434  1.00  0.00    -0.363 N 
HETATM    5  C3  UNL     1      28.568   5.998  48.010  1.00  0.00     0.041 A 
HETATM    6  C4  UNL     1      28.144   4.835  48.580  1.00  0.00     0.032 A 
HETATM    7  C5  UNL     1      26.906   4.666  49.137  1.00  0.00     0.026 A 
HETATM    8  C6  UNL     1      26.094   5.777  49.080  1.00  0.00     0.035 A 
HETATM    9 CL1  UNL     1      24.501   5.539  49.805  1.00  0.00    -0.084 Cl
HETATM   10  C7  UNL     1      26.494   6.988  48.503  1.00  0.00     0.038 A 
HETATM   11  C8  UNL     1      27.759   7.081  47.965  1.00  0.00     0.004 A 
HETATM   12  C9  UNL     1      27.871   8.468  47.466  1.00  0.00     0.005 A 
HETATM   13  C10 UNL     1      27.214   8.484  46.255  1.00  0.00     0.014 A 
HETATM   14  C11 UNL     1      27.108   9.639  45.464  1.00  0.00     0.001 A 
HETATM   15  C12 UNL     1      27.687  10.802  45.922  1.00  0.00     0.002 A 
HETATM   16  C13 UNL     1      28.327  10.715  47.142  1.00  0.00     0.032 A 
HETATM   17  C14 UNL     1      28.462   9.614  47.961  1.00  0.00     0.068 A 
HETATM   18  N4  UNL     1      29.111   9.714  49.224  1.00  0.00    -0.246 NA
HETATM   19  C15 UNL     1      29.993  10.651  49.299  1.00  0.00     0.086 C 
HETATM   20  C16 UNL     1      30.951  10.578  48.387  1.00  0.00     0.034 C 
HETATM   21  C17 UNL     1      30.850   9.346  47.563  1.00  0.00     0.009 C 
HETATM   22  C18 UNL     1      31.122   8.072  47.836  1.00  0.00    -0.036 C 
HETATM   23  C19 UNL     1      31.605   8.043  49.217  1.00  0.00     0.045 C 
HETATM   24  C20 UNL     1      32.958   7.355  49.340  1.00  0.00     0.082 C 
HETATM   25  H4  UNL     1      30.009   5.115  46.852  1.00  0.00     0.162 HD
ENDROOT
BRANCH   1  26
HETATM   26  N1  UNL     1      34.009   5.124  48.947  1.00  0.00    -0.388 N 
HETATM   27  H1  UNL     1      34.198   4.747  49.921  1.00  0.00     0.157 HD
HETATM   28  H2  UNL     1      34.732   4.616  48.353  1.00  0.00     0.157 HD
ENDBRANCH   1  26
TORSDOF 1
ENDMDL
MODEL 6
REMARK VINA RESULT:      -7.5      3.424      5.731
REMARK  1 active torsions:
REMARK  status: ('A' for Active; 'I' for Inactive)
REMARK    1  A    between atoms: N1_1  and  C1_2 
ROOT
HETATM    1  C1  UNL     1      25.285   2.133  53.377  1.00  0.00     0.095 C 
HETATM    2  N2  UNL     1      24.715   3.239  53.415  1.00  0.00    -0.247 NA
HETATM    3  C2  UNL     1      23.604   3.672  52.659  1.00  0.00     0.237 C 
HETATM    4  N3  UNL     1      23.970   4.824  51.875  1.00  0.00    -0.363 N 
HETATM    5  C3  UNL     1      24.093   5.429  50.600  1.00  0.00     0.041 A 
HETATM    6  C4  UNL     1      25.235   6.132  50.352  1.00  0.00     0.032 A 
HETATM    7  C5  UNL     1      25.477   6.805  49.186  1.00  0.00     0.026 A 
HETATM    8  C6  UNL     1      24.464   6.725  48.256  1.00  0.00     0.035 A 
HETATM    9 CL1  UNL     1      24.796   7.599  46.758  1.00  0.00    -0.084 Cl
HETATM   10  C7  UNL     1      23.278   6.013  48.475  1.00  0.00     0.038 A 
HETATM   11  C8  UNL     1      23.110   5.359  49.676  1.00  0.00     0.004 A 
HETATM   12  C9  UNL     1      21.789   4.702  49.580  1.00  0.00     0.005 A 
HETATM   13  C10 UNL     1      20.861   5.687  49.839  1.00  0.00     0.014 A 
HETATM   14  C11 UNL     1      19.479   5.445  49.845  1.00  0.00     0.001 A 
HETATM   15  C12 UNL     1      19.036   4.167  49.580  1.00  0.00     0.002 A 
HETATM   16  C13 UNL     1      20.018   3.231  49.328  1.00  0.00     0.032 A 
HETATM   17  C14 UNL     1      21.385   3.409  49.307  1.00  0.00     0.068 A 
HETATM   18  N4  UNL     1      22.260   2.337  48.971  1.00  0.00    -0.246 NA
HETATM   19  C15 UNL     1      21.794   1.164  49.234  1.00  0.00     0.086 C 
HETATM   20  C16 UNL     1      21.443   0.983  50.499  1.00  0.00     0.034 C 
HETATM   21  C17 UNL     1      21.793   2.149  51.352  1.00  0.00     0.009 C 
HETATM   22  C18 UNL     1      22.960   2.586  51.820  1.00  0.00    -0.036 C 
HETATM   23  C19 UNL     1      23.973   1.647  51.337  1.00  0.00     0.045 C 
HETATM   24  C20 UNL     1      24.825   1.086  52.469  1.00  0.00     0.082 C 
HETATM   25  H4  UNL     1      24.274   5.511  52.640  1.00  0.00     0.162 HD
ENDROOT
BRANCH   1  26
HETATM   26  N1  UNL     1      26.415   1.866  54.230  1.00  0.00    -0.388 N 
HETATM   27  H1  UNL     1      27.365   2.332  54.153  1.00  0.00     0.157 HD
HETATM   28  H2  UNL     1      26.542   1.203  55.053  1.00  0.00     0.157 HD
ENDBRANCH   1  26
TORSDOF 1
ENDMDL
MODEL 7
REMARK VINA RESULT:      -7.5      3.549      6.993
REMARK  1 active torsions:
REMARK  status: ('A' for Active; 'I' for Inactive)
REMARK    1  A    between atoms: N1_1  and  C1_2 
ROOT
HETATM    1  C1  UNL     1      19.833   2.599  47.845  1.00  0.00     0.095 C 
HETATM    2  N2  UNL     1      21.017   2.594  47.457  1.00  0.00    -0.247 NA
HETATM    3  C2  UNL     1      22.185   2.414  48.230  1.00  0.00     0.237 C 
HETATM    4  N3  UNL     1      23.027   3.577  48.113  1.00  0.00    -0.363 N 
HETATM    5  C3  UNL     1      23.705   4.647  48.746  1.00  0.00     0.041 A 
HETATM    6  C4  UNL     1      23.617   5.874  48.159  1.00  0.00     0.032 A 
HETATM    7  C5  UNL     1      24.252   6.991  48.630  1.00  0.00     0.026 A 
HETATM    8  C6  UNL     1      25.007   6.788  49.764  1.00  0.00     0.035 A 
HETATM    9 CL1  UNL     1      25.816   8.241  50.356  1.00  0.00    -0.084 Cl
HETATM   10  C7  UNL     1      25.120   5.542  50.395  1.00  0.00     0.038 A 
HETATM   11  C8  UNL     1      24.448   4.465  49.860  1.00  0.00     0.004 A 
HETATM   12  C9  UNL     1      24.755   3.330  50.757  1.00  0.00     0.005 A 
HETATM   13  C10 UNL     1      26.009   2.893  50.391  1.00  0.00     0.014 A 
HETATM   14  C11 UNL     1      26.650   1.813  51.017  1.00  0.00     0.001 A 
HETATM   15  C12 UNL     1      25.993   1.166  52.041  1.00  0.00     0.002 A 
HETATM   16  C13 UNL     1      24.742   1.656  52.356  1.00  0.00     0.032 A 
HETATM   17  C14 UNL     1      24.065   2.709  51.779  1.00  0.00     0.068 A 
HETATM   18  N4  UNL     1      22.793   3.120  52.269  1.00  0.00    -0.246 NA
HETATM   19  C15 UNL     1      22.111   2.186  52.838  1.00  0.00     0.086 C 
HETATM   20  C16 UNL     1      21.897   1.122  52.078  1.00  0.00     0.034 C 
HETATM   21  C17 UNL     1      22.392   1.313  50.690  1.00  0.00     0.009 C 
HETATM   22  C18 UNL     1      21.924   2.035  49.674  1.00  0.00    -0.036 C 
HETATM   23  C19 UNL     1      20.704   2.682  50.158  1.00  0.00     0.045 C 
HETATM   24  C20 UNL     1      19.508   2.407  49.255  1.00  0.00     0.082 C 
HETATM   25  H4  UNL     1      23.201   3.605  47.055  1.00  0.00     0.162 HD
ENDROOT
BRANCH   1  26
HETATM   26  N1  UNL     1      18.760   2.799  46.905  1.00  0.00    -0.388 N 
HETATM   27  H1  UNL     1      17.775   3.104  47.154  1.00  0.00     0.157 HD
HETATM   28  H2  UNL     1      18.715   2.694  45.847  1.00  0.00     0.157 HD
ENDBRANCH   1  26
TORSDOF 1
ENDMDL
MODEL 8
REMARK VINA RESULT:      -7.1      9.773     12.486
REMARK  1 active torsions:
REMARK  status: ('A' for Active; 'I' for Inactive)
REMARK    1  A    between atoms: N1_1  and  C1_2 
ROOT
HETATM    1  C1  UNL     1      26.846   8.362  49.686  1.00  0.00     0.095 C 
HETATM    2  N2  UNL     1      27.917   8.858  50.083  1.00  0.00    -0.247 NA
HETATM    3  C2  UNL     1      28.957   9.416  49.306  1.00  0.00     0.237 C 
HETATM    4  N3  UNL     1      30.177   8.685  49.533  1.00  0.00    -0.363 N 
HETATM    5  C3  UNL     1      31.242   7.916  49.003  1.00  0.00     0.041 A 
HETATM    6  C4  UNL     1      31.611   6.801  49.697  1.00  0.00     0.032 A 
HETATM    7  C5  UNL     1      32.647   5.986  49.332  1.00  0.00     0.026 A 
HETATM    8  C6  UNL     1      33.312   6.376  48.190  1.00  0.00     0.035 A 
HETATM    9 CL1  UNL     1      34.644   5.310  47.737  1.00  0.00    -0.084 Cl
HETATM   10  C7  UNL     1      32.961   7.513  47.453  1.00  0.00     0.038 A 
HETATM   11  C8  UNL     1      31.903   8.284  47.883  1.00  0.00     0.004 A 
HETATM   12  C9  UNL     1      31.786   9.374  46.892  1.00  0.00     0.005 A 
HETATM   13  C10 UNL     1      32.757  10.291  47.228  1.00  0.00     0.014 A 
HETATM   14  C11 UNL     1      32.957  11.483  46.513  1.00  0.00     0.001 A 
HETATM   15  C12 UNL     1      32.144  11.740  45.430  1.00  0.00     0.002 A 
HETATM   16  C13 UNL     1      31.194  10.779  45.150  1.00  0.00     0.032 A 
HETATM   17  C14 UNL     1      30.953   9.595  45.813  1.00  0.00     0.068 A 
HETATM   18  N4  UNL     1      29.960   8.684  45.351  1.00  0.00    -0.246 NA
HETATM   19  C15 UNL     1      28.995   9.233  44.696  1.00  0.00     0.086 C 
HETATM   20  C16 UNL     1      28.355  10.187  45.356  1.00  0.00     0.034 C 
HETATM   21  C17 UNL     1      28.826  10.312  46.760  1.00  0.00     0.009 C 
HETATM   22  C18 UNL     1      28.631   9.548  47.832  1.00  0.00    -0.036 C 
HETATM   23  C19 UNL     1      27.778   8.442  47.397  1.00  0.00     0.045 C 
HETATM   24  C20 UNL     1      26.531   8.301  48.262  1.00  0.00     0.082 C 
HETATM   25  H4  UNL     1      30.304   8.810  50.590  1.00  0.00     0.162 HD
ENDROOT
BRANCH   1  26
HETATM   26  N1  UNL     1      25.895   7.836  50.632  1.00  0.00    -0.388 N 
HETATM   27  H1  UNL     1      24.914   7.505  50.397  1.00  0.00     0.157 HD
HETATM   28  H2  UNL     1      25.953   7.675  51.682  1.00  0.00     0.157 HD
ENDBRANCH   1  26
TORSDOF 1
ENDMDL
MODEL 9
REMARK VINA RESULT:      -7.0      8.416     11.333
REMARK  1 active torsions:
REMARK  status: ('A' for Active; 'I' for Inactive)
REMARK    1  A    between atoms: N1_1  and  C1_2 
ROOT
HETATM    1  C1  UNL     1      24.774   6.796  48.208  1.00  0.00     0.095 C 
HETATM    2  N2  UNL     1      25.687   6.862  49.053  1.00  0.00    -0.247 NA
HETATM    3  C2  UNL     1      26.771   7.766  49.093  1.00  0.00     0.237 C 
HETATM    4  N3  UNL     1      28.013   7.038  49.033  1.00  0.00    -0.363 N 
HETATM    5  C3  UNL     1      29.242   6.797  48.373  1.00  0.00     0.041 A 
HETATM    6  C4  UNL     1      29.617   5.497  48.207  1.00  0.00     0.032 A 
HETATM    7  C5  UNL     1      30.795   5.111  47.629  1.00  0.00     0.026 A 
HETATM    8  C6  UNL     1      31.599   6.150  47.215  1.00  0.00     0.035 A 
HETATM    9 CL1  UNL     1      33.113   5.631  46.470  1.00  0.00    -0.084 Cl
HETATM   10  C7  UNL     1      31.248   7.497  47.368  1.00  0.00     0.038 A 
HETATM   11  C8  UNL     1      30.042   7.805  47.959  1.00  0.00     0.004 A 
HETATM   12  C9  UNL     1      29.969   9.282  47.950  1.00  0.00     0.005 A 
HETATM   13  C10 UNL     1      30.743   9.701  49.009  1.00  0.00     0.014 A 
HETATM   14  C11 UNL     1      30.918  11.056  49.333  1.00  0.00     0.001 A 
HETATM   15  C12 UNL     1      30.286  12.002  48.554  1.00  0.00     0.002 A 
HETATM   16  C13 UNL     1      29.529  11.512  47.510  1.00  0.00     0.032 A 
HETATM   17  C14 UNL     1      29.322  10.198  47.144  1.00  0.00     0.068 A 
HETATM   18  N4  UNL     1      28.549   9.869  45.995  1.00  0.00    -0.246 NA
HETATM   19  C15 UNL     1      27.656  10.745  45.682  1.00  0.00     0.086 C 
HETATM   20  C16 UNL     1      26.795  11.021  46.650  1.00  0.00     0.034 C 
HETATM   21  C17 UNL     1      26.988  10.151  47.839  1.00  0.00     0.009 C 
HETATM   22  C18 UNL     1      26.701   8.869  48.056  1.00  0.00    -0.036 C 
HETATM   23  C19 UNL     1      26.083   8.374  46.825  1.00  0.00     0.045 C 
HETATM   24  C20 UNL     1      24.730   7.723  47.081  1.00  0.00     0.082 C 
HETATM   25  H4  UNL     1      27.931   6.412  49.900  1.00  0.00     0.162 HD
ENDROOT
BRANCH   1  26
HETATM   26  N1  UNL     1      23.742   5.798  48.329  1.00  0.00    -0.388 N 
HETATM   27  H1  UNL     1      23.142   5.637  49.189  1.00  0.00     0.157 HD
HETATM   28  H2  UNL     1      23.382   5.064  47.648  1.00  0.00     0.157 HD
ENDBRANCH   1  26
TORSDOF 1
ENDMDL
