MODEL 1
REMARK VINA RESULT:      -7.2      0.000      0.000
REMARK  6 active torsions:
REMARK  status: ('A' for Active; 'I' for Inactive)
REMARK    1  A    between atoms: C2_2  and  C15_18 
REMARK    2  A    between atoms: C3_3  and  C4_4 
REMARK    3  A    between atoms: C7_9  and  N3_10 
REMARK    4  A    between atoms: N3_10  and  C9_12 
REMARK    5  A    between atoms: C15_18  and  O2_21 
REMARK    6  A    between atoms: C16_19  and  O1_20 
ROOT
HETATM    1  C4  UNL     1      27.209   1.408  53.049  1.00  0.00     0.028 A 
HETATM    2  C5  UNL     1      28.197   2.236  53.587  1.00  0.00     0.133 A 
HETATM    3  N1  UNL     1      29.019   1.813  54.557  1.00  0.00    -0.253 NA
HETATM    4  C6  UNL     1      28.949   0.571  55.074  1.00  0.00     0.234 A 
HETATM    5  N2  UNL     1      28.016  -0.269  54.594  1.00  0.00    -0.223 NA
HETATM    6  C7  UNL     1      27.178   0.131  53.620  1.00  0.00     0.143 A 
ENDROOT
BRANCH   1   7
HETATM    7  C3  UNL     1      26.334   1.859  51.993  1.00  0.00     0.026 C 
HETATM    8  C2  UNL     1      25.218   2.548  52.131  1.00  0.00    -0.024 C 
HETATM    9  C1  UNL     1      24.751   2.940  53.484  1.00  0.00     0.051 C 
BRANCH   8  10
HETATM   10  C15 UNL     1      24.545   2.862  50.886  1.00  0.00     0.119 C 
HETATM   11  C16 UNL     1      24.875   3.927  50.212  1.00  0.00     0.170 C 
BRANCH  11  12
HETATM   12  O1  UNL     1      25.810   4.966  50.393  1.00  0.00    -0.370 OA
HETATM   13  H16 UNL     1      26.172   5.460  49.577  1.00  0.00     0.216 HD
ENDBRANCH  11  12
BRANCH  10  14
HETATM   14  O2  UNL     1      23.554   2.128  50.310  1.00  0.00    -0.239 OA
HETATM   15 CL1  UNL     1      21.989   2.056  51.046  1.00  0.00     0.067 Cl
ENDBRANCH  10  14
ENDBRANCH   8  10
ENDBRANCH   1   7
BRANCH   6  16
HETATM   16  N3  UNL     1      26.188  -0.749  53.106  1.00  0.00    -0.335 N 
HETATM   17  C8  UNL     1      26.386  -1.635  51.950  1.00  0.00     0.158 C 
BRANCH  16  18
HETATM   18  C9  UNL     1      24.909  -0.806  53.722  1.00  0.00     0.035 A 
HETATM   19  C10 UNL     1      23.757  -0.545  53.003  1.00  0.00     0.029 A 
HETATM   20  C11 UNL     1      22.482  -0.590  53.553  1.00  0.00     0.002 A 
HETATM   21  C12 UNL     1      22.339  -0.909  54.877  1.00  0.00     0.000 A 
HETATM   22  C13 UNL     1      23.469  -1.183  55.652  1.00  0.00     0.002 A 
HETATM   23  C14 UNL     1      24.704  -1.120  55.043  1.00  0.00     0.029 A 
ENDBRANCH  16  18
ENDBRANCH   6  16
TORSDOF 6
ENDMDL
MODEL 2
REMARK VINA RESULT:      -7.0      1.887      4.157
REMARK  6 active torsions:
REMARK  status: ('A' for Active; 'I' for Inactive)
REMARK    1  A    between atoms: C2_2  and  C15_18 
REMARK    2  A    between atoms: C3_3  and  C4_4 
REMARK    3  A    between atoms: C7_9  and  N3_10 
REMARK    4  A    between atoms: N3_10  and  C9_12 
REMARK    5  A    between atoms: C15_18  and  O2_21 
REMARK    6  A    between atoms: C16_19  and  O1_20 
ROOT
HETATM    1  C4  UNL     1      23.868   0.502  52.664  1.00  0.00     0.028 A 
HETATM    2  C5  UNL     1      22.543   0.063  52.643  1.00  0.00     0.133 A 
HETATM    3  N1  UNL     1      22.040  -0.704  53.620  1.00  0.00    -0.253 NA
HETATM    4  C6  UNL     1      22.774  -1.101  54.678  1.00  0.00     0.234 A 
HETATM    5  N2  UNL     1      24.057  -0.708  54.749  1.00  0.00    -0.223 NA
HETATM    6  C7  UNL     1      24.586   0.063  53.782  1.00  0.00     0.143 A 
ENDROOT
BRANCH   1   7
HETATM    7  C3  UNL     1      24.405   1.343  51.619  1.00  0.00     0.026 C 
HETATM    8  C2  UNL     1      24.277   2.651  51.513  1.00  0.00    -0.024 C 
HETATM    9  C1  UNL     1      23.517   3.407  52.538  1.00  0.00     0.051 C 
BRANCH   8  10
HETATM   10  C15 UNL     1      24.927   3.229  50.352  1.00  0.00     0.119 C 
HETATM   11  C16 UNL     1      26.217   3.408  50.345  1.00  0.00     0.170 C 
BRANCH  11  12
HETATM   12  O1  UNL     1      27.259   3.166  51.264  1.00  0.00    -0.370 OA
HETATM   13  H16 UNL     1      27.036   3.060  52.254  1.00  0.00     0.216 HD
ENDBRANCH  11  12
BRANCH  10  14
HETATM   14  O2  UNL     1      24.306   3.624  49.208  1.00  0.00    -0.239 OA
HETATM   15 CL1  UNL     1      23.039   2.660  48.530  1.00  0.00     0.067 Cl
ENDBRANCH  10  14
ENDBRANCH   8  10
ENDBRANCH   1   7
BRANCH   6  16
HETATM   16  N3  UNL     1      25.941   0.483  53.847  1.00  0.00    -0.335 N 
HETATM   17  C8  UNL     1      26.372   1.843  54.203  1.00  0.00     0.158 C 
BRANCH  16  18
HETATM   18  C9  UNL     1      26.979  -0.441  53.555  1.00  0.00     0.035 A 
HETATM   19  C10 UNL     1      28.283  -0.201  53.949  1.00  0.00     0.029 A 
HETATM   20  C11 UNL     1      29.336  -1.072  53.694  1.00  0.00     0.002 A 
HETATM   21  C12 UNL     1      29.087  -2.236  53.018  1.00  0.00     0.000 A 
HETATM   22  C13 UNL     1      27.788  -2.532  52.597  1.00  0.00     0.002 A 
HETATM   23  C14 UNL     1      26.791  -1.624  52.883  1.00  0.00     0.029 A 
ENDBRANCH  16  18
ENDBRANCH   6  16
TORSDOF 6
ENDMDL
MODEL 3
REMARK VINA RESULT:      -7.0      3.365      5.745
REMARK  6 active torsions:
REMARK  status: ('A' for Active; 'I' for Inactive)
REMARK    1  A    between atoms: C2_2  and  C15_18 
REMARK    2  A    between atoms: C3_3  and  C4_4 
REMARK    3  A    between atoms: C7_9  and  N3_10 
REMARK    4  A    between atoms: N3_10  and  C9_12 
REMARK    5  A    between atoms: C15_18  and  O2_21 
REMARK    6  A    between atoms: C16_19  and  O1_20 
ROOT
HETATM    1  C4  UNL     1      23.618  -0.259  53.675  1.00  0.00     0.028 A 
HETATM    2  C5  UNL     1      23.118  -1.243  54.531  1.00  0.00     0.133 A 
HETATM    3  N1  UNL     1      21.854  -1.213  54.976  1.00  0.00    -0.253 NA
HETATM    4  C6  UNL     1      20.989  -0.239  54.631  1.00  0.00     0.234 A 
HETATM    5  N2  UNL     1      21.417   0.735  53.809  1.00  0.00    -0.223 NA
HETATM    6  C7  UNL     1      22.681   0.728  53.348  1.00  0.00     0.143 A 
ENDROOT
BRANCH   1   7
HETATM    7  C3  UNL     1      24.974  -0.301  53.182  1.00  0.00     0.026 C 
HETATM    8  C2  UNL     1      26.079  -0.182  53.894  1.00  0.00    -0.024 C 
HETATM    9  C1  UNL     1      25.996   0.014  55.362  1.00  0.00     0.051 C 
BRANCH   8  10
HETATM   10  C15 UNL     1      27.304  -0.264  53.124  1.00  0.00     0.119 C 
HETATM   11  C16 UNL     1      27.826  -1.425  52.843  1.00  0.00     0.170 C 
BRANCH  11  12
HETATM   12  O1  UNL     1      27.479  -2.763  53.120  1.00  0.00    -0.370 OA
HETATM   13  H16 UNL     1      27.055  -2.993  54.020  1.00  0.00     0.216 HD
ENDBRANCH  11  12
BRANCH  10  14
HETATM   14  O2  UNL     1      28.009   0.792  52.634  1.00  0.00    -0.239 OA
HETATM   15 CL1  UNL     1      27.982   2.311  53.464  1.00  0.00     0.067 Cl
ENDBRANCH  10  14
ENDBRANCH   8  10
ENDBRANCH   1   7
BRANCH   6  16
HETATM   16  N3  UNL     1      23.143   1.752  52.480  1.00  0.00    -0.335 N 
HETATM   17  C8  UNL     1      24.017   2.859  52.894  1.00  0.00     0.158 C 
BRANCH  16  18
HETATM   18  C9  UNL     1      22.758   1.742  51.112  1.00  0.00     0.035 A 
HETATM   19  C10 UNL     1      23.351   2.593  50.196  1.00  0.00     0.029 A 
HETATM   20  C11 UNL     1      23.016   2.623  48.848  1.00  0.00     0.002 A 
HETATM   21  C12 UNL     1      22.050   1.771  48.383  1.00  0.00     0.000 A 
HETATM   22  C13 UNL     1      21.419   0.888  49.264  1.00  0.00     0.002 A 
HETATM   23  C14 UNL     1      21.799   0.911  50.588  1.00  0.00     0.029 A 
ENDBRANCH  16  18
ENDBRANCH   6  16
TORSDOF 6
ENDMDL
MODEL 4
REMARK VINA RESULT:      -6.7      3.639      6.088
REMARK  6 active torsions:
REMARK  status: ('A' for Active; 'I' for Inactive)
REMARK    1  A    between atoms: C2_2  and  C15_18 
REMARK    2  A    between atoms: C3_3  and  C4_4 
REMARK    3  A    between atoms: C7_9  and  N3_10 
REMARK    4  A    between atoms: N3_10  and  C9_12 
REMARK    5  A    between atoms: C15_18  and  O2_21 
REMARK    6  A    between atoms: C16_19  and  O1_20 
ROOT
HETATM    1  C4  UNL     1      22.042   1.276  50.468  1.00  0.00     0.028 A 
HETATM    2  C5  UNL     1      21.462   1.199  49.200  1.00  0.00     0.133 A 
HETATM    3  N1  UNL     1      21.947   1.891  48.160  1.00  0.00    -0.253 NA
HETATM    4  C6  UNL     1      23.019   2.701  48.267  1.00  0.00     0.234 A 
HETATM    5  N2  UNL     1      23.617   2.813  49.466  1.00  0.00    -0.223 NA
HETATM    6  C7  UNL     1      23.150   2.129  50.526  1.00  0.00     0.143 A 
ENDROOT
BRANCH   1   7
HETATM    7  C3  UNL     1      21.528   0.518  51.584  1.00  0.00     0.026 C 
HETATM    8  C2  UNL     1      20.625   0.913  52.460  1.00  0.00    -0.024 C 
HETATM    9  C1  UNL     1      20.028   2.266  52.349  1.00  0.00     0.051 C 
BRANCH   8  10
HETATM   10  C15 UNL     1      20.302  -0.068  53.478  1.00  0.00     0.119 C 
HETATM   11  C16 UNL     1      19.223  -0.790  53.375  1.00  0.00     0.170 C 
BRANCH  11  12
HETATM   12  O1  UNL     1      18.174  -0.878  52.437  1.00  0.00    -0.370 OA
HETATM   13  H16 UNL     1      17.256  -1.201  52.743  1.00  0.00     0.216 HD
ENDBRANCH  11  12
BRANCH  10  14
HETATM   14  O2  UNL     1      21.041  -0.333  54.590  1.00  0.00    -0.239 OA
HETATM   15 CL1  UNL     1      21.884  -1.838  54.732  1.00  0.00     0.067 Cl
ENDBRANCH  10  14
ENDBRANCH   8  10
ENDBRANCH   1   7
BRANCH   6  16
HETATM   16  N3  UNL     1      23.774   2.241  51.796  1.00  0.00    -0.335 N 
HETATM   17  C8  UNL     1      23.556   3.353  52.732  1.00  0.00     0.158 C 
BRANCH  16  18
HETATM   18  C9  UNL     1      24.676   1.233  52.228  1.00  0.00     0.035 A 
HETATM   19  C10 UNL     1      24.376   0.418  53.305  1.00  0.00     0.029 A 
HETATM   20  C11 UNL     1      25.219  -0.585  53.768  1.00  0.00     0.002 A 
HETATM   21  C12 UNL     1      26.416  -0.793  53.135  1.00  0.00     0.000 A 
HETATM   22  C13 UNL     1      26.770  -0.000  52.040  1.00  0.00     0.002 A 
HETATM   23  C14 UNL     1      25.887   0.977  51.634  1.00  0.00     0.029 A 
ENDBRANCH  16  18
ENDBRANCH   6  16
TORSDOF 6
ENDMDL
MODEL 5
REMARK VINA RESULT:      -6.7      3.430      4.909
REMARK  6 active torsions:
REMARK  status: ('A' for Active; 'I' for Inactive)
REMARK    1  A    between atoms: C2_2  and  C15_18 
REMARK    2  A    between atoms: C3_3  and  C4_4 
REMARK    3  A    between atoms: C7_9  and  N3_10 
REMARK    4  A    between atoms: N3_10  and  C9_12 
REMARK    5  A    between atoms: C15_18  and  O2_21 
REMARK    6  A    between atoms: C16_19  and  O1_20 
ROOT
HETATM    1  C4  UNL     1      23.554   3.521  52.042  1.00  0.00     0.028 A 
HETATM    2  C5  UNL     1      23.700   4.901  52.197  1.00  0.00     0.133 A 
HETATM    3  N1  UNL     1      22.707   5.752  51.904  1.00  0.00    -0.253 NA
HETATM    4  C6  UNL     1      21.511   5.336  51.444  1.00  0.00     0.234 A 
HETATM    5  N2  UNL     1      21.314   4.017  51.275  1.00  0.00    -0.223 NA
HETATM    6  C7  UNL     1      22.295   3.141  51.561  1.00  0.00     0.143 A 
ENDROOT
BRANCH   1   7
HETATM    7  C3  UNL     1      24.619   2.603  52.372  1.00  0.00     0.026 C 
HETATM    8  C2  UNL     1      25.703   2.359  51.661  1.00  0.00    -0.024 C 
HETATM    9  C1  UNL     1      25.920   3.067  50.376  1.00  0.00     0.051 C 
BRANCH   8  10
HETATM   10  C15 UNL     1      26.601   1.383  52.246  1.00  0.00     0.119 C 
HETATM   11  C16 UNL     1      27.369   1.715  53.245  1.00  0.00     0.170 C 
BRANCH  11  12
HETATM   12  O1  UNL     1      27.582   2.897  53.985  1.00  0.00    -0.370 OA
HETATM   13  H16 UNL     1      27.691   2.839  54.997  1.00  0.00     0.216 HD
ENDBRANCH  11  12
BRANCH  10  14
HETATM   14  O2  UNL     1      26.739   0.090  51.848  1.00  0.00    -0.239 OA
HETATM   15 CL1  UNL     1      26.307  -1.199  52.920  1.00  0.00     0.067 Cl
ENDBRANCH  10  14
ENDBRANCH   8  10
ENDBRANCH   1   7
BRANCH   6  16
HETATM   16  N3  UNL     1      22.099   1.746  51.386  1.00  0.00    -0.335 N 
HETATM   17  C8  UNL     1      22.074   1.070  50.081  1.00  0.00     0.158 C 
BRANCH  16  18
HETATM   18  C9  UNL     1      21.909   0.914  52.521  1.00  0.00     0.035 A 
HETATM   19  C10 UNL     1      22.751  -0.154  52.774  1.00  0.00     0.029 A 
HETATM   20  C11 UNL     1      22.614  -0.997  53.870  1.00  0.00     0.002 A 
HETATM   21  C12 UNL     1      21.597  -0.773  54.758  1.00  0.00     0.000 A 
HETATM   22  C13 UNL     1      20.716   0.292  54.553  1.00  0.00     0.002 A 
HETATM   23  C14 UNL     1      20.909   1.089  53.446  1.00  0.00     0.029 A 
ENDBRANCH  16  18
ENDBRANCH   6  16
TORSDOF 6
ENDMDL
MODEL 6
REMARK VINA RESULT:      -6.6      3.279      6.030
REMARK  6 active torsions:
REMARK  status: ('A' for Active; 'I' for Inactive)
REMARK    1  A    between atoms: C2_2  and  C15_18 
REMARK    2  A    between atoms: C3_3  and  C4_4 
REMARK    3  A    between atoms: C7_9  and  N3_10 
REMARK    4  A    between atoms: N3_10  and  C9_12 
REMARK    5  A    between atoms: C15_18  and  O2_21 
REMARK    6  A    between atoms: C16_19  and  O1_20 
ROOT
HETATM    1  C4  UNL     1      24.272   0.494  53.287  1.00  0.00     0.028 A 
HETATM    2  C5  UNL     1      23.543  -0.697  53.297  1.00  0.00     0.133 A 
HETATM    3  N1  UNL     1      22.312  -0.773  52.773  1.00  0.00    -0.253 NA
HETATM    4  C6  UNL     1      21.700   0.286  52.207  1.00  0.00     0.234 A 
HETATM    5  N2  UNL     1      22.356   1.459  52.171  1.00  0.00    -0.223 NA
HETATM    6  C7  UNL     1      23.593   1.562  52.689  1.00  0.00     0.143 A 
ENDROOT
BRANCH   1   7
HETATM    7  C3  UNL     1      25.606   0.572  53.836  1.00  0.00     0.026 C 
HETATM    8  C2  UNL     1      26.723   0.169  53.262  1.00  0.00    -0.024 C 
HETATM    9  C1  UNL     1      26.683  -0.436  51.908  1.00  0.00     0.051 C 
BRANCH   8  10
HETATM   10  C15 UNL     1      27.918   0.375  54.057  1.00  0.00     0.119 C 
HETATM   11  C16 UNL     1      28.345   1.582  54.299  1.00  0.00     0.170 C 
BRANCH  11  12
HETATM   12  O1  UNL     1      27.907   2.877  53.954  1.00  0.00    -0.370 OA
HETATM   13  H16 UNL     1      28.428   3.687  54.291  1.00  0.00     0.216 HD
ENDBRANCH  11  12
BRANCH  10  14
HETATM   14  O2  UNL     1      28.684  -0.604  54.610  1.00  0.00    -0.239 OA
HETATM   15 CL1  UNL     1      30.088  -1.180  53.777  1.00  0.00     0.067 Cl
ENDBRANCH  10  14
ENDBRANCH   8  10
ENDBRANCH   1   7
BRANCH   6  16
HETATM   16  N3  UNL     1      24.294   2.796  52.656  1.00  0.00    -0.335 N 
HETATM   17  C8  UNL     1      24.534   3.645  53.832  1.00  0.00     0.158 C 
BRANCH  16  18
HETATM   18  C9  UNL     1      24.814   3.277  51.425  1.00  0.00     0.035 A 
HETATM   19  C10 UNL     1      26.051   2.867  50.962  1.00  0.00     0.029 A 
HETATM   20  C11 UNL     1      26.605   3.303  49.764  1.00  0.00     0.002 A 
HETATM   21  C12 UNL     1      25.903   4.185  48.988  1.00  0.00     0.000 A 
HETATM   22  C13 UNL     1      24.647   4.633  49.406  1.00  0.00     0.002 A 
HETATM   23  C14 UNL     1      24.157   4.161  50.605  1.00  0.00     0.029 A 
ENDBRANCH  16  18
ENDBRANCH   6  16
TORSDOF 6
ENDMDL
MODEL 7
REMARK VINA RESULT:      -6.4      3.300      5.596
REMARK  6 active torsions:
REMARK  status: ('A' for Active; 'I' for Inactive)
REMARK    1  A    between atoms: C2_2  and  C15_18 
REMARK    2  A    between atoms: C3_3  and  C4_4 
REMARK    3  A    between atoms: C7_9  and  N3_10 
REMARK    4  A    between atoms: N3_10  and  C9_12 
REMARK    5  A    between atoms: C15_18  and  O2_21 
REMARK    6  A    between atoms: C16_19  and  O1_20 
ROOT
HETATM    1  C4  UNL     1      23.215   2.826  49.191  1.00  0.00     0.028 A 
HETATM    2  C5  UNL     1      22.582   2.511  47.986  1.00  0.00     0.133 A 
HETATM    3  N1  UNL     1      21.670   1.533  47.904  1.00  0.00    -0.253 NA
HETATM    4  C6  UNL     1      21.306   0.792  48.970  1.00  0.00     0.234 A 
HETATM    5  N2  UNL     1      21.884   1.052  50.155  1.00  0.00    -0.223 NA
HETATM    6  C7  UNL     1      22.802   2.029  50.264  1.00  0.00     0.143 A 
ENDROOT
BRANCH   1   7
HETATM    7  C3  UNL     1      24.186   3.891  49.282  1.00  0.00     0.026 C 
HETATM    8  C2  UNL     1      23.941   5.187  49.277  1.00  0.00    -0.024 C 
HETATM    9  C1  UNL     1      22.544   5.676  49.172  1.00  0.00     0.051 C 
BRANCH   8  10
HETATM   10  C15 UNL     1      25.120   6.024  49.382  1.00  0.00     0.119 C 
HETATM   11  C16 UNL     1      25.323   6.739  50.453  1.00  0.00     0.170 C 
BRANCH  11  12
HETATM   12  O1  UNL     1      24.625   6.936  51.662  1.00  0.00    -0.370 OA
HETATM   13  H16 UNL     1      23.918   7.669  51.717  1.00  0.00     0.216 HD
ENDBRANCH  11  12
BRANCH  10  14
HETATM   14  O2  UNL     1      26.091   6.153  48.438  1.00  0.00    -0.239 OA
HETATM   15 CL1  UNL     1      27.550   5.230  48.562  1.00  0.00     0.067 Cl
ENDBRANCH  10  14
ENDBRANCH   8  10
ENDBRANCH   1   7
BRANCH   6  16
HETATM   16  N3  UNL     1      23.419   2.310  51.512  1.00  0.00    -0.335 N 
HETATM   17  C8  UNL     1      23.068   3.448  52.373  1.00  0.00     0.158 C 
BRANCH  16  18
HETATM   18  C9  UNL     1      24.449   1.459  51.996  1.00  0.00     0.035 A 
HETATM   19  C10 UNL     1      24.169   0.419  52.863  1.00  0.00     0.029 A 
HETATM   20  C11 UNL     1      25.136  -0.445  53.363  1.00  0.00     0.002 A 
HETATM   21  C12 UNL     1      26.441  -0.272  52.987  1.00  0.00     0.000 A 
HETATM   22  C13 UNL     1      26.782   0.763  52.113  1.00  0.00     0.002 A 
HETATM   23  C14 UNL     1      25.773   1.583  51.655  1.00  0.00     0.029 A 
ENDBRANCH  16  18
ENDBRANCH   6  16
TORSDOF 6
ENDMDL
MODEL 8
REMARK VINA RESULT:      -6.4      3.403      5.025
REMARK  6 active torsions:
REMARK  status: ('A' for Active; 'I' for Inactive)
REMARK    1  A    between atoms: C2_2  and  C15_18 
REMARK    2  A    between atoms: C3_3  and  C4_4 
REMARK    3  A    between atoms: C7_9  and  N3_10 
REMARK    4  A    between atoms: N3_10  and  C9_12 
REMARK    5  A    between atoms: C15_18  and  O2_21 
REMARK    6  A    between atoms: C16_19  and  O1_20 
ROOT
HETATM    1  C4  UNL     1      26.152   2.649  50.730  1.00  0.00     0.028 A 
HETATM    2  C5  UNL     1      27.019   3.127  49.745  1.00  0.00     0.133 A 
HETATM    3  N1  UNL     1      26.804   4.294  49.123  1.00  0.00    -0.253 NA
HETATM    4  C6  UNL     1      25.744   5.078  49.404  1.00  0.00     0.234 A 
HETATM    5  N2  UNL     1      24.875   4.666  50.344  1.00  0.00    -0.223 NA
HETATM    6  C7  UNL     1      25.069   3.498  50.983  1.00  0.00     0.143 A 
ENDROOT
BRANCH   1   7
HETATM    7  C3  UNL     1      26.394   1.398  51.411  1.00  0.00     0.026 C 
HETATM    8  C2  UNL     1      27.132   1.214  52.488  1.00  0.00    -0.024 C 
HETATM    9  C1  UNL     1      27.814   2.368  53.124  1.00  0.00     0.051 C 
BRANCH   8  10
HETATM   10  C15 UNL     1      27.192  -0.159  52.951  1.00  0.00     0.119 C 
HETATM   11  C16 UNL     1      28.337  -0.697  53.261  1.00  0.00     0.170 C 
BRANCH  11  12
HETATM   12  O1  UNL     1      29.675  -0.251  53.264  1.00  0.00    -0.370 OA
HETATM   13  H16 UNL     1      30.371  -0.766  53.803  1.00  0.00     0.216 HD
ENDBRANCH  11  12
BRANCH  10  14
HETATM   14  O2  UNL     1      26.128  -0.993  53.107  1.00  0.00    -0.239 OA
HETATM   15 CL1  UNL     1      25.064  -0.798  54.458  1.00  0.00     0.067 Cl
ENDBRANCH  10  14
ENDBRANCH   8  10
ENDBRANCH   1   7
BRANCH   6  16
HETATM   16  N3  UNL     1      24.157   3.053  51.977  1.00  0.00    -0.335 N 
HETATM   17  C8  UNL     1      24.161   3.515  53.372  1.00  0.00     0.158 C 
BRANCH  16  18
HETATM   18  C9  UNL     1      23.160   2.100  51.640  1.00  0.00     0.035 A 
HETATM   19  C10 UNL     1      22.711   1.176  52.567  1.00  0.00     0.029 A 
HETATM   20  C11 UNL     1      21.736   0.225  52.293  1.00  0.00     0.002 A 
HETATM   21  C12 UNL     1      21.178   0.185  51.044  1.00  0.00     0.000 A 
HETATM   22  C13 UNL     1      21.592   1.095  50.067  1.00  0.00     0.002 A 
HETATM   23  C14 UNL     1      22.563   2.012  50.406  1.00  0.00     0.029 A 
ENDBRANCH  16  18
ENDBRANCH   6  16
TORSDOF 6
ENDMDL
MODEL 9
REMARK VINA RESULT:      -6.4      3.322      5.563
REMARK  6 active torsions:
REMARK  status: ('A' for Active; 'I' for Inactive)
REMARK    1  A    between atoms: C2_2  and  C15_18 
REMARK    2  A    between atoms: C3_3  and  C4_4 
REMARK    3  A    between atoms: C7_9  and  N3_10 
REMARK    4  A    between atoms: N3_10  and  C9_12 
REMARK    5  A    between atoms: C15_18  and  O2_21 
REMARK    6  A    between atoms: C16_19  and  O1_20 
ROOT
HETATM    1  C4  UNL     1      23.001   0.670  52.985  1.00  0.00     0.028 A 
HETATM    2  C5  UNL     1      22.815  -0.383  53.883  1.00  0.00     0.133 A 
HETATM    3  N1  UNL     1      21.652  -0.567  54.522  1.00  0.00    -0.253 NA
HETATM    4  C6  UNL     1      20.592   0.246  54.343  1.00  0.00     0.234 A 
HETATM    5  N2  UNL     1      20.715   1.277  53.490  1.00  0.00    -0.223 NA
HETATM    6  C7  UNL     1      21.872   1.484  52.835  1.00  0.00     0.143 A 
ENDROOT
BRANCH   1   7
HETATM    7  C3  UNL     1      24.249   0.858  52.284  1.00  0.00     0.026 C 
HETATM    8  C2  UNL     1      25.252   1.633  52.648  1.00  0.00    -0.024 C 
HETATM    9  C1  UNL     1      25.160   2.424  53.900  1.00  0.00     0.051 C 
BRANCH   8  10
HETATM   10  C15 UNL     1      26.384   1.621  51.742  1.00  0.00     0.119 C 
HETATM   11  C16 UNL     1      26.662   2.674  51.026  1.00  0.00     0.170 C 
BRANCH  11  12
HETATM   12  O1  UNL     1      26.092   3.956  50.882  1.00  0.00    -0.370 OA
HETATM   13  H16 UNL     1      26.704   4.764  50.766  1.00  0.00     0.216 HD
ENDBRANCH  11  12
BRANCH  10  14
HETATM   14  O2  UNL     1      27.235   0.578  51.546  1.00  0.00    -0.239 OA
HETATM   15 CL1  UNL     1      27.215  -0.773  52.628  1.00  0.00     0.067 Cl
ENDBRANCH  10  14
ENDBRANCH   8  10
ENDBRANCH   1   7
BRANCH   6  16
HETATM   16  N3  UNL     1      22.012   2.570  51.932  1.00  0.00    -0.335 N 
HETATM   17  C8  UNL     1      22.094   3.981  52.337  1.00  0.00     0.158 C 
BRANCH  16  18
HETATM   18  C9  UNL     1      22.082   2.320  50.535  1.00  0.00     0.035 A 
HETATM   19  C10 UNL     1      22.906   3.069  49.715  1.00  0.00     0.029 A 
HETATM   20  C11 UNL     1      23.016   2.864  48.345  1.00  0.00     0.002 A 
HETATM   21  C12 UNL     1      22.276   1.873  47.758  1.00  0.00     0.000 A 
HETATM   22  C13 UNL     1      21.427   1.084  48.539  1.00  0.00     0.002 A 
HETATM   23  C14 UNL     1      21.366   1.341  49.892  1.00  0.00     0.029 A 
ENDBRANCH  16  18
ENDBRANCH   6  16
TORSDOF 6
ENDMDL
