MODEL 1
REMARK VINA RESULT:      -7.7      0.000      0.000
REMARK  6 active torsions:
REMARK  status: ('A' for Active; 'I' for Inactive)
REMARK    1  A    between atoms: C4_5  and  N1_6 
REMARK    2  A    between atoms: N1_6  and  C5_7 
REMARK    3  A    between atoms: C5_7  and  C6_8 
REMARK    4  A    between atoms: C6_8  and  C7_9 
REMARK    5  A    between atoms: C7_9  and  O1_10 
REMARK    6  A    between atoms: O1_10  and  C8_11 
ROOT
HETATM    1  C7  UNL     1      23.991   3.600  51.016  1.00  0.00     0.170 C 
ENDROOT
BRANCH   1   2
HETATM    2  C6  UNL     1      25.029   3.361  49.919  1.00  0.00     0.046 C 
BRANCH   2   3
HETATM    3  C5  UNL     1      26.325   2.877  50.497  1.00  0.00     0.122 C 
BRANCH   3   4
HETATM    4  N1  UNL     1      26.357   2.867  51.936  1.00  0.00    -0.390 N 
HETATM    5  H3  UNL     1      25.887   3.512  52.585  1.00  0.00     0.159 HD
BRANCH   4   6
HETATM    6  C4  UNL     1      27.148   1.822  52.502  1.00  0.00     0.029 A 
HETATM    7  C3  UNL     1      28.267   2.098  53.273  1.00  0.00     0.032 A 
HETATM    8  C2  UNL     1      29.067   1.117  53.846  1.00  0.00     0.046 A 
HETATM    9  C1  UNL     1      28.713  -0.199  53.624  1.00  0.00     0.138 A 
HETATM   10  F1  UNL     1      29.443  -1.223  54.149  1.00  0.00    -0.204 F 
HETATM   11  C18 UNL     1      27.597  -0.546  52.856  1.00  0.00     0.074 A 
HETATM   12  C17 UNL     1      26.839   0.480  52.314  1.00  0.00     0.056 A 
HETATM   13 CL1  UNL     1      27.132  -2.212  52.564  1.00  0.00    -0.081 Cl
ENDBRANCH   4   6
ENDBRANCH   3   4
ENDBRANCH   2   3
ENDBRANCH   1   2
BRANCH   1  14
HETATM   14  O1  UNL     1      22.783   3.239  50.475  1.00  0.00    -0.381 OA
BRANCH  14  15
HETATM   15  C8  UNL     1      22.552   1.878  50.390  1.00  0.00     0.157 C 
HETATM   16  C9  UNL     1      21.992   1.473  49.044  1.00  0.00     0.063 C 
HETATM   17  C10 UNL     1      20.500   1.705  48.957  1.00  0.00     0.171 C 
HETATM   18  O2  UNL     1      19.846   1.094  50.023  1.00  0.00    -0.387 OA
HETATM   19  C11 UNL     1      20.206   1.800  51.160  1.00  0.00     0.207 C 
HETATM   20  C12 UNL     1      21.624   1.529  51.493  1.00  0.00     0.004 C 
HETATM   21  C13 UNL     1      21.940   1.035  52.654  1.00  0.00     0.077 C 
HETATM   22  C14 UNL     1      23.290   0.698  53.170  1.00  0.00     0.232 C 
HETATM   23  O4  UNL     1      20.956   0.757  53.590  1.00  0.00    -0.351 OA
HETATM   24  O3  UNL     1      23.384  -0.665  53.446  1.00  0.00    -0.383 OA
HETATM   25  C15 UNL     1      22.192  -1.202  53.893  1.00  0.00     0.194 C 
HETATM   26  C16 UNL     1      21.321  -0.171  54.625  1.00  0.00     0.201 C 
ENDBRANCH  14  15
ENDBRANCH   1  14
TORSDOF 6
ENDMDL
MODEL 2
REMARK VINA RESULT:      -7.2      1.810      4.002
REMARK  6 active torsions:
REMARK  status: ('A' for Active; 'I' for Inactive)
REMARK    1  A    between atoms: C4_5  and  N1_6 
REMARK    2  A    between atoms: N1_6  and  C5_7 
REMARK    3  A    between atoms: C5_7  and  C6_8 
REMARK    4  A    between atoms: C6_8  and  C7_9 
REMARK    5  A    between atoms: C7_9  and  O1_10 
REMARK    6  A    between atoms: O1_10  and  C8_11 
ROOT
HETATM    1  C7  UNL     1      21.537  -0.385  54.258  1.00  0.00     0.170 C 
ENDROOT
BRANCH   1   2
HETATM    2  C6  UNL     1      22.571  -1.471  54.556  1.00  0.00     0.046 C 
BRANCH   2   3
HETATM    3  C5  UNL     1      23.950  -0.892  54.654  1.00  0.00     0.122 C 
BRANCH   3   4
HETATM    4  N1  UNL     1      24.497  -0.463  53.394  1.00  0.00    -0.390 N 
HETATM    5  H3  UNL     1      23.990  -0.219  52.533  1.00  0.00     0.159 HD
BRANCH   4   6
HETATM    6  C4  UNL     1      25.922  -0.376  53.367  1.00  0.00     0.029 A 
HETATM    7  C3  UNL     1      26.711  -1.490  53.125  1.00  0.00     0.032 A 
HETATM    8  C2  UNL     1      28.099  -1.456  53.088  1.00  0.00     0.046 A 
HETATM    9  C1  UNL     1      28.709  -0.238  53.306  1.00  0.00     0.138 A 
HETATM   10  F1  UNL     1      30.067  -0.115  53.287  1.00  0.00    -0.204 F 
HETATM   11  C18 UNL     1      27.973   0.925  53.555  1.00  0.00     0.074 A 
HETATM   12  C17 UNL     1      26.591   0.824  53.578  1.00  0.00     0.056 A 
HETATM   13 CL1  UNL     1      28.731   2.482  53.834  1.00  0.00    -0.081 Cl
ENDBRANCH   4   6
ENDBRANCH   3   4
ENDBRANCH   2   3
ENDBRANCH   1   2
BRANCH   1  14
HETATM   14  O1  UNL     1      21.652  -0.114  52.918  1.00  0.00    -0.381 OA
BRANCH  14  15
HETATM   15  C8  UNL     1      21.207   1.134  52.522  1.00  0.00     0.157 C 
HETATM   16  C9  UNL     1      19.753   1.121  52.105  1.00  0.00     0.063 C 
HETATM   17  C10 UNL     1      19.574   0.636  50.684  1.00  0.00     0.171 C 
HETATM   18  O2  UNL     1      20.382   1.362  49.814  1.00  0.00    -0.387 OA
HETATM   19  C11 UNL     1      21.690   1.005  50.104  1.00  0.00     0.207 C 
HETATM   20  C12 UNL     1      22.087   1.573  51.413  1.00  0.00     0.004 C 
HETATM   21  C13 UNL     1      23.115   2.367  51.497  1.00  0.00     0.077 C 
HETATM   22  C14 UNL     1      23.666   3.028  52.705  1.00  0.00     0.232 C 
HETATM   23  O4  UNL     1      23.847   2.689  50.364  1.00  0.00    -0.351 OA
HETATM   24  O3  UNL     1      23.601   4.414  52.578  1.00  0.00    -0.383 OA
HETATM   25  C15 UNL     1      23.777   4.839  51.276  1.00  0.00     0.194 C 
HETATM   26  C16 UNL     1      24.650   3.878  50.456  1.00  0.00     0.201 C 
ENDBRANCH  14  15
ENDBRANCH   1  14
TORSDOF 6
ENDMDL
MODEL 3
REMARK VINA RESULT:      -7.2      4.138      6.088
REMARK  6 active torsions:
REMARK  status: ('A' for Active; 'I' for Inactive)
REMARK    1  A    between atoms: C4_5  and  N1_6 
REMARK    2  A    between atoms: N1_6  and  C5_7 
REMARK    3  A    between atoms: C5_7  and  C6_8 
REMARK    4  A    between atoms: C6_8  and  C7_9 
REMARK    5  A    between atoms: C7_9  and  O1_10 
REMARK    6  A    between atoms: O1_10  and  C8_11 
ROOT
HETATM    1  C7  UNL     1      26.390   2.288  51.146  1.00  0.00     0.170 C 
ENDROOT
BRANCH   1   2
HETATM    2  C6  UNL     1      25.095   3.027  50.810  1.00  0.00     0.046 C 
BRANCH   2   3
HETATM    3  C5  UNL     1      25.125   3.564  49.411  1.00  0.00     0.122 C 
BRANCH   3   4
HETATM    4  N1  UNL     1      25.162   5.000  49.336  1.00  0.00    -0.390 N 
HETATM    5  H3  UNL     1      24.419   5.668  49.579  1.00  0.00     0.159 HD
BRANCH   4   6
HETATM    6  C4  UNL     1      26.398   5.535  48.860  1.00  0.00     0.029 A 
HETATM    7  C3  UNL     1      27.525   4.740  48.720  1.00  0.00     0.032 A 
HETATM    8  C2  UNL     1      28.748   5.213  48.262  1.00  0.00     0.046 A 
HETATM    9  C1  UNL     1      28.827   6.551  47.932  1.00  0.00     0.138 A 
HETATM   10  F1  UNL     1      29.988   7.098  47.474  1.00  0.00    -0.204 F 
HETATM   11  C18 UNL     1      27.728   7.409  48.049  1.00  0.00     0.074 A 
HETATM   12  C17 UNL     1      26.535   6.873  48.511  1.00  0.00     0.056 A 
HETATM   13 CL1  UNL     1      27.809   9.110  47.634  1.00  0.00    -0.081 Cl
ENDBRANCH   4   6
ENDBRANCH   3   4
ENDBRANCH   2   3
ENDBRANCH   1   2
BRANCH   1  14
HETATM   14  O1  UNL     1      26.011   1.141  51.797  1.00  0.00    -0.381 OA
BRANCH  14  15
HETATM   15  C8  UNL     1      25.459   1.323  53.051  1.00  0.00     0.157 C 
HETATM   16  C9  UNL     1      26.499   1.665  54.094  1.00  0.00     0.063 C 
HETATM   17  C10 UNL     1      27.208   0.433  54.614  1.00  0.00     0.171 C 
HETATM   18  O2  UNL     1      26.286  -0.512  55.055  1.00  0.00    -0.387 OA
HETATM   19  C11 UNL     1      25.634  -0.980  53.926  1.00  0.00     0.207 C 
HETATM   20  C12 UNL     1      24.739   0.071  53.390  1.00  0.00     0.004 C 
HETATM   21  C13 UNL     1      23.464  -0.157  53.261  1.00  0.00     0.077 C 
HETATM   22  C14 UNL     1      22.416   0.759  52.748  1.00  0.00     0.232 C 
HETATM   23  O4  UNL     1      22.932  -1.386  53.623  1.00  0.00    -0.351 OA
HETATM   24  O3  UNL     1      21.466   1.018  53.734  1.00  0.00    -0.383 OA
HETATM   25  C15 UNL     1      21.255  -0.061  54.569  1.00  0.00     0.194 C 
HETATM   26  C16 UNL     1      21.516  -1.404  53.871  1.00  0.00     0.201 C 
ENDBRANCH  14  15
ENDBRANCH   1  14
TORSDOF 6
ENDMDL
MODEL 4
REMARK VINA RESULT:      -7.0      2.487      4.958
REMARK  6 active torsions:
REMARK  status: ('A' for Active; 'I' for Inactive)
REMARK    1  A    between atoms: C4_5  and  N1_6 
REMARK    2  A    between atoms: N1_6  and  C5_7 
REMARK    3  A    between atoms: C5_7  and  C6_8 
REMARK    4  A    between atoms: C6_8  and  C7_9 
REMARK    5  A    between atoms: C7_9  and  O1_10 
REMARK    6  A    between atoms: O1_10  and  C8_11 
ROOT
HETATM    1  C7  UNL     1      23.578   3.091  51.789  1.00  0.00     0.170 C 
ENDROOT
BRANCH   1   2
HETATM    2  C6  UNL     1      23.658   1.622  51.375  1.00  0.00     0.046 C 
BRANCH   2   3
HETATM    3  C5  UNL     1      24.369   0.805  52.412  1.00  0.00     0.122 C 
BRANCH   3   4
HETATM    4  N1  UNL     1      25.165   1.582  53.325  1.00  0.00    -0.390 N 
HETATM    5  H3  UNL     1      24.864   2.364  53.922  1.00  0.00     0.159 HD
BRANCH   4   6
HETATM    6  C4  UNL     1      26.538   1.197  53.386  1.00  0.00     0.029 A 
HETATM    7  C3  UNL     1      27.542   2.128  53.605  1.00  0.00     0.032 A 
HETATM    8  C2  UNL     1      28.891   1.803  53.674  1.00  0.00     0.046 A 
HETATM    9  C1  UNL     1      29.232   0.476  53.513  1.00  0.00     0.138 A 
HETATM   10  F1  UNL     1      30.532   0.070  53.566  1.00  0.00    -0.204 F 
HETATM   11  C18 UNL     1      28.270  -0.515  53.289  1.00  0.00     0.074 A 
HETATM   12  C17 UNL     1      26.941  -0.124  53.233  1.00  0.00     0.056 A 
HETATM   13 CL1  UNL     1      28.684  -2.206  53.083  1.00  0.00    -0.081 Cl
ENDBRANCH   4   6
ENDBRANCH   3   4
ENDBRANCH   2   3
ENDBRANCH   1   2
BRANCH   1  14
HETATM   14  O1  UNL     1      24.674   3.700  51.231  1.00  0.00    -0.381 OA
BRANCH  14  15
HETATM   15  C8  UNL     1      24.890   3.426  49.893  1.00  0.00     0.157 C 
HETATM   16  C9  UNL     1      26.353   3.204  49.580  1.00  0.00     0.063 C 
HETATM   17  C10 UNL     1      27.100   4.507  49.406  1.00  0.00     0.171 C 
HETATM   18  O2  UNL     1      26.462   5.317  48.472  1.00  0.00    -0.387 OA
HETATM   19  C11 UNL     1      25.267   5.716  49.050  1.00  0.00     0.207 C 
HETATM   20  C12 UNL     1      24.336   4.567  49.125  1.00  0.00     0.004 C 
HETATM   21  C13 UNL     1      23.170   4.631  48.550  1.00  0.00     0.077 C 
HETATM   22  C14 UNL     1      22.108   3.596  48.514  1.00  0.00     0.232 C 
HETATM   23  O4  UNL     1      22.789   5.773  47.862  1.00  0.00    -0.351 OA
HETATM   24  O3  UNL     1      21.855   3.198  47.203  1.00  0.00    -0.383 OA
HETATM   25  C15 UNL     1      22.010   4.227  46.294  1.00  0.00     0.194 C 
HETATM   26  C16 UNL     1      21.725   5.604  46.911  1.00  0.00     0.201 C 
ENDBRANCH  14  15
ENDBRANCH   1  14
TORSDOF 6
ENDMDL
MODEL 5
REMARK VINA RESULT:      -7.0      3.629      5.983
REMARK  6 active torsions:
REMARK  status: ('A' for Active; 'I' for Inactive)
REMARK    1  A    between atoms: C4_5  and  N1_6 
REMARK    2  A    between atoms: N1_6  and  C5_7 
REMARK    3  A    between atoms: C5_7  and  C6_8 
REMARK    4  A    between atoms: C6_8  and  C7_9 
REMARK    5  A    between atoms: C7_9  and  O1_10 
REMARK    6  A    between atoms: O1_10  and  C8_11 
ROOT
HETATM    1  C7  UNL     1      26.655   2.504  51.379  1.00  0.00     0.170 C 
ENDROOT
BRANCH   1   2
HETATM    2  C6  UNL     1      26.433   2.828  49.901  1.00  0.00     0.046 C 
BRANCH   2   3
HETATM    3  C5  UNL     1      26.236   4.300  49.694  1.00  0.00     0.122 C 
BRANCH   3   4
HETATM    4  N1  UNL     1      25.273   4.893  50.584  1.00  0.00    -0.390 N 
HETATM    5  H3  UNL     1      25.449   5.408  51.457  1.00  0.00     0.159 HD
BRANCH   4   6
HETATM    6  C4  UNL     1      23.914   4.730  50.179  1.00  0.00     0.029 A 
HETATM    7  C3  UNL     1      23.530   4.878  48.855  1.00  0.00     0.032 A 
HETATM    8  C2  UNL     1      22.222   4.728  48.412  1.00  0.00     0.046 A 
HETATM    9  C1  UNL     1      21.265   4.415  49.356  1.00  0.00     0.138 A 
HETATM   10  F1  UNL     1      19.958   4.250  49.008  1.00  0.00    -0.204 F 
HETATM   11  C18 UNL     1      21.584   4.251  50.708  1.00  0.00     0.074 A 
HETATM   12  C17 UNL     1      22.909   4.412  51.085  1.00  0.00     0.056 A 
HETATM   13 CL1  UNL     1      20.382   3.852  51.921  1.00  0.00    -0.081 Cl
ENDBRANCH   4   6
ENDBRANCH   3   4
ENDBRANCH   2   3
ENDBRANCH   1   2
BRANCH   1  14
HETATM   14  O1  UNL     1      25.729   1.542  51.695  1.00  0.00    -0.381 OA
BRANCH  14  15
HETATM   15  C8  UNL     1      25.244   1.585  52.989  1.00  0.00     0.157 C 
HETATM   16  C9  UNL     1      26.327   1.888  54.001  1.00  0.00     0.063 C 
HETATM   17  C10 UNL     1      27.121   0.654  54.368  1.00  0.00     0.171 C 
HETATM   18  O2  UNL     1      26.272  -0.372  54.773  1.00  0.00    -0.387 OA
HETATM   19  C11 UNL     1      25.576  -0.773  53.643  1.00  0.00     0.207 C 
HETATM   20  C12 UNL     1      24.604   0.274  53.253  1.00  0.00     0.004 C 
HETATM   21  C13 UNL     1      23.335  -0.008  53.173  1.00  0.00     0.077 C 
HETATM   22  C14 UNL     1      22.218   0.895  52.803  1.00  0.00     0.232 C 
HETATM   23  O4  UNL     1      22.883  -1.288  53.452  1.00  0.00    -0.351 OA
HETATM   24  O3  UNL     1      21.317   1.018  53.858  1.00  0.00    -0.383 OA
HETATM   25  C15 UNL     1      21.205  -0.139  54.603  1.00  0.00     0.194 C 
HETATM   26  C16 UNL     1      21.487  -1.401  53.774  1.00  0.00     0.201 C 
ENDBRANCH  14  15
ENDBRANCH   1  14
TORSDOF 6
ENDMDL
MODEL 6
REMARK VINA RESULT:      -7.0      1.860      4.012
REMARK  6 active torsions:
REMARK  status: ('A' for Active; 'I' for Inactive)
REMARK    1  A    between atoms: C4_5  and  N1_6 
REMARK    2  A    between atoms: N1_6  and  C5_7 
REMARK    3  A    between atoms: C5_7  and  C6_8 
REMARK    4  A    between atoms: C6_8  and  C7_9 
REMARK    5  A    between atoms: C7_9  and  O1_10 
REMARK    6  A    between atoms: O1_10  and  C8_11 
ROOT
HETATM    1  C7  UNL     1      22.332   1.207  52.677  1.00  0.00     0.170 C 
ENDROOT
BRANCH   1   2
HETATM    2  C6  UNL     1      22.662  -0.216  53.128  1.00  0.00     0.046 C 
BRANCH   2   3
HETATM    3  C5  UNL     1      24.128  -0.370  53.405  1.00  0.00     0.122 C 
BRANCH   3   4
HETATM    4  N1  UNL     1      24.929   0.734  52.947  1.00  0.00    -0.390 N 
HETATM    5  H3  UNL     1      24.612   1.610  52.510  1.00  0.00     0.159 HD
BRANCH   4   6
HETATM    6  C4  UNL     1      26.334   0.564  53.136  1.00  0.00     0.029 A 
HETATM    7  C3  UNL     1      27.166   1.642  53.394  1.00  0.00     0.032 A 
HETATM    8  C2  UNL     1      28.537   1.527  53.585  1.00  0.00     0.046 A 
HETATM    9  C1  UNL     1      29.084   0.261  53.510  1.00  0.00     0.138 A 
HETATM   10  F1  UNL     1      30.420   0.059  53.686  1.00  0.00    -0.204 F 
HETATM   11  C18 UNL     1      28.301  -0.869  53.254  1.00  0.00     0.074 A 
HETATM   12  C17 UNL     1      26.939  -0.686  53.074  1.00  0.00     0.056 A 
HETATM   13 CL1  UNL     1      28.978  -2.484  53.157  1.00  0.00    -0.081 Cl
ENDBRANCH   4   6
ENDBRANCH   3   4
ENDBRANCH   2   3
ENDBRANCH   1   2
BRANCH   1  14
HETATM   14  O1  UNL     1      22.543   1.231  51.322  1.00  0.00    -0.381 OA
BRANCH  14  15
HETATM   15  C8  UNL     1      21.804   2.166  50.621  1.00  0.00     0.157 C 
HETATM   16  C9  UNL     1      21.049   1.552  49.463  1.00  0.00     0.063 C 
HETATM   17  C10 UNL     1      21.927   1.371  48.244  1.00  0.00     0.171 C 
HETATM   18  O2  UNL     1      22.554   2.568  47.911  1.00  0.00    -0.387 OA
HETATM   19  C11 UNL     1      23.468   2.826  48.919  1.00  0.00     0.207 C 
HETATM   20  C12 UNL     1      22.755   3.207  50.160  1.00  0.00     0.004 C 
HETATM   21  C13 UNL     1      22.993   4.355  50.726  1.00  0.00     0.077 C 
HETATM   22  C14 UNL     1      22.386   4.911  51.961  1.00  0.00     0.232 C 
HETATM   23  O4  UNL     1      23.916   5.231  50.175  1.00  0.00    -0.351 OA
HETATM   24  O3  UNL     1      21.692   6.086  51.680  1.00  0.00    -0.383 OA
HETATM   25  C15 UNL     1      22.275   6.821  50.666  1.00  0.00     0.194 C 
HETATM   26  C16 UNL     1      23.793   6.604  50.581  1.00  0.00     0.201 C 
ENDBRANCH  14  15
ENDBRANCH   1  14
TORSDOF 6
ENDMDL
MODEL 7
REMARK VINA RESULT:      -7.0      4.000      5.567
REMARK  6 active torsions:
REMARK  status: ('A' for Active; 'I' for Inactive)
REMARK    1  A    between atoms: C4_5  and  N1_6 
REMARK    2  A    between atoms: N1_6  and  C5_7 
REMARK    3  A    between atoms: C5_7  and  C6_8 
REMARK    4  A    between atoms: C6_8  and  C7_9 
REMARK    5  A    between atoms: C7_9  and  O1_10 
REMARK    6  A    between atoms: O1_10  and  C8_11 
ROOT
HETATM    1  C7  UNL     1      21.756   3.855  51.302  1.00  0.00     0.170 C 
ENDROOT
BRANCH   1   2
HETATM    2  C6  UNL     1      22.164   5.256  51.759  1.00  0.00     0.046 C 
BRANCH   2   3
HETATM    3  C5  UNL     1      23.641   5.339  51.998  1.00  0.00     0.122 C 
BRANCH   3   4
HETATM    4  N1  UNL     1      24.217   6.615  51.668  1.00  0.00    -0.390 N 
HETATM    5  H3  UNL     1      24.009   7.532  52.085  1.00  0.00     0.159 HD
BRANCH   4   6
HETATM    6  C4  UNL     1      25.195   6.572  50.629  1.00  0.00     0.029 A 
HETATM    7  C3  UNL     1      25.482   5.395  49.953  1.00  0.00     0.032 A 
HETATM    8  C2  UNL     1      26.424   5.302  48.936  1.00  0.00     0.046 A 
HETATM    9  C1  UNL     1      27.101   6.455  48.592  1.00  0.00     0.138 A 
HETATM   10  F1  UNL     1      28.041   6.453  47.605  1.00  0.00    -0.204 F 
HETATM   11  C18 UNL     1      26.860   7.675  49.232  1.00  0.00     0.074 A 
HETATM   12  C17 UNL     1      25.907   7.700  50.239  1.00  0.00     0.056 A 
HETATM   13 CL1  UNL     1      27.710   9.149  48.808  1.00  0.00    -0.081 Cl
ENDBRANCH   4   6
ENDBRANCH   3   4
ENDBRANCH   2   3
ENDBRANCH   1   2
BRANCH   1  14
HETATM   14  O1  UNL     1      22.385   2.984  52.155  1.00  0.00    -0.381 OA
BRANCH  14  15
HETATM   15  C8  UNL     1      22.805   1.795  51.589  1.00  0.00     0.157 C 
HETATM   16  C9  UNL     1      21.668   1.027  50.951  1.00  0.00     0.063 C 
HETATM   17  C10 UNL     1      20.879   0.233  51.968  1.00  0.00     0.171 C 
HETATM   18  O2  UNL     1      21.726  -0.576  52.721  1.00  0.00    -0.387 OA
HETATM   19  C11 UNL     1      22.483   0.276  53.509  1.00  0.00     0.207 C 
HETATM   20  C12 UNL     1      23.455   1.010  52.666  1.00  0.00     0.004 C 
HETATM   21  C13 UNL     1      24.731   0.924  52.911  1.00  0.00     0.077 C 
HETATM   22  C14 UNL     1      25.849   1.578  52.188  1.00  0.00     0.232 C 
HETATM   23  O4  UNL     1      25.192   0.145  53.962  1.00  0.00    -0.351 OA
HETATM   24  O3  UNL     1      26.694   0.623  51.627  1.00  0.00    -0.383 OA
HETATM   25  C15 UNL     1      26.790  -0.522  52.393  1.00  0.00     0.194 C 
HETATM   26  C16 UNL     1      26.572  -0.249  53.888  1.00  0.00     0.201 C 
ENDBRANCH  14  15
ENDBRANCH   1  14
TORSDOF 6
ENDMDL
MODEL 8
REMARK VINA RESULT:      -6.9      3.088      5.922
REMARK  6 active torsions:
REMARK  status: ('A' for Active; 'I' for Inactive)
REMARK    1  A    between atoms: C4_5  and  N1_6 
REMARK    2  A    between atoms: N1_6  and  C5_7 
REMARK    3  A    between atoms: C5_7  and  C6_8 
REMARK    4  A    between atoms: C6_8  and  C7_9 
REMARK    5  A    between atoms: C7_9  and  O1_10 
REMARK    6  A    between atoms: O1_10  and  C8_11 
ROOT
HETATM    1  C7  UNL     1      22.602   4.153  49.764  1.00  0.00     0.170 C 
ENDROOT
BRANCH   1   2
HETATM    2  C6  UNL     1      21.990   3.042  48.911  1.00  0.00     0.046 C 
BRANCH   2   3
HETATM    3  C5  UNL     1      22.011   1.730  49.635  1.00  0.00     0.122 C 
BRANCH   3   4
HETATM    4  N1  UNL     1      20.721   1.300  50.106  1.00  0.00    -0.390 N 
HETATM    5  H3  UNL     1      19.803   1.450  49.667  1.00  0.00     0.159 HD
BRANCH   4   6
HETATM    6  C4  UNL     1      20.752   0.581  51.339  1.00  0.00     0.029 A 
HETATM    7  C3  UNL     1      19.587   0.153  51.957  1.00  0.00     0.032 A 
HETATM    8  C2  UNL     1      19.564  -0.550  53.155  1.00  0.00     0.046 A 
HETATM    9  C1  UNL     1      20.779  -0.828  53.749  1.00  0.00     0.138 A 
HETATM   10  F1  UNL     1      20.848  -1.513  54.925  1.00  0.00    -0.204 F 
HETATM   11  C18 UNL     1      21.992  -0.426  53.179  1.00  0.00     0.074 A 
HETATM   12  C17 UNL     1      21.945   0.271  51.982  1.00  0.00     0.056 A 
HETATM   13 CL1  UNL     1      23.543  -0.772  53.919  1.00  0.00    -0.081 Cl
ENDBRANCH   4   6
ENDBRANCH   3   4
ENDBRANCH   2   3
ENDBRANCH   1   2
BRANCH   1  14
HETATM   14  O1  UNL     1      23.856   4.372  49.252  1.00  0.00    -0.381 OA
BRANCH  14  15
HETATM   15  C8  UNL     1      24.831   4.692  50.179  1.00  0.00     0.157 C 
HETATM   16  C9  UNL     1      25.679   5.866  49.741  1.00  0.00     0.063 C 
HETATM   17  C10 UNL     1      26.769   5.451  48.778  1.00  0.00     0.171 C 
HETATM   18  O2  UNL     1      27.520   4.406  49.310  1.00  0.00    -0.387 OA
HETATM   19  C11 UNL     1      26.688   3.299  49.336  1.00  0.00     0.207 C 
HETATM   20  C12 UNL     1      25.651   3.473  50.380  1.00  0.00     0.004 C 
HETATM   21  C13 UNL     1      25.536   2.602  51.340  1.00  0.00     0.077 C 
HETATM   22  C14 UNL     1      24.570   2.602  52.466  1.00  0.00     0.232 C 
HETATM   23  O4  UNL     1      26.381   1.504  51.396  1.00  0.00    -0.351 OA
HETATM   24  O3  UNL     1      25.239   2.683  53.686  1.00  0.00    -0.383 OA
HETATM   25  C15 UNL     1      26.459   2.036  53.670  1.00  0.00     0.194 C 
HETATM   26  C16 UNL     1      26.490   0.864  52.679  1.00  0.00     0.201 C 
ENDBRANCH  14  15
ENDBRANCH   1  14
TORSDOF 6
ENDMDL
MODEL 9
REMARK VINA RESULT:      -6.9      4.316      6.317
REMARK  6 active torsions:
REMARK  status: ('A' for Active; 'I' for Inactive)
REMARK    1  A    between atoms: C4_5  and  N1_6 
REMARK    2  A    between atoms: N1_6  and  C5_7 
REMARK    3  A    between atoms: C5_7  and  C6_8 
REMARK    4  A    between atoms: C6_8  and  C7_9 
REMARK    5  A    between atoms: C7_9  and  O1_10 
REMARK    6  A    between atoms: O1_10  and  C8_11 
ROOT
HETATM    1  C7  UNL     1      23.912   2.895  50.937  1.00  0.00     0.170 C 
ENDROOT
BRANCH   1   2
HETATM    2  C6  UNL     1      24.424   3.143  49.518  1.00  0.00     0.046 C 
BRANCH   2   3
HETATM    3  C5  UNL     1      25.827   3.670  49.534  1.00  0.00     0.122 C 
BRANCH   3   4
HETATM    4  N1  UNL     1      26.027   4.779  50.429  1.00  0.00    -0.390 N 
HETATM    5  H3  UNL     1      26.466   4.772  51.359  1.00  0.00     0.159 HD
BRANCH   4   6
HETATM    6  C4  UNL     1      25.544   6.029  49.938  1.00  0.00     0.029 A 
HETATM    7  C3  UNL     1      24.761   6.861  50.723  1.00  0.00     0.032 A 
HETATM    8  C2  UNL     1      24.268   8.087  50.291  1.00  0.00     0.046 A 
HETATM    9  C1  UNL     1      24.586   8.480  49.007  1.00  0.00     0.138 A 
HETATM   10  F1  UNL     1      24.144   9.667  48.503  1.00  0.00    -0.204 F 
HETATM   11  C18 UNL     1      25.372   7.689  48.163  1.00  0.00     0.074 A 
HETATM   12  C17 UNL     1      25.833   6.478  48.655  1.00  0.00     0.056 A 
HETATM   13 CL1  UNL     1      25.786   8.174  46.529  1.00  0.00    -0.081 Cl
ENDBRANCH   4   6
ENDBRANCH   3   4
ENDBRANCH   2   3
ENDBRANCH   1   2
BRANCH   1  14
HETATM   14  O1  UNL     1      24.889   2.166  51.567  1.00  0.00    -0.381 OA
BRANCH  14  15
HETATM   15  C8  UNL     1      24.688   1.941  52.916  1.00  0.00     0.157 C 
HETATM   16  C9  UNL     1      25.911   2.270  53.743  1.00  0.00     0.063 C 
HETATM   17  C10 UNL     1      26.923   1.146  53.733  1.00  0.00     0.171 C 
HETATM   18  O2  UNL     1      26.324  -0.054  54.104  1.00  0.00    -0.387 OA
HETATM   19  C11 UNL     1      25.464  -0.398  53.073  1.00  0.00     0.207 C 
HETATM   20  C12 UNL     1      24.300   0.517  53.062  1.00  0.00     0.004 C 
HETATM   21  C13 UNL     1      23.093   0.042  53.174  1.00  0.00     0.077 C 
HETATM   22  C14 UNL     1      21.812   0.790  53.184  1.00  0.00     0.232 C 
HETATM   23  O4  UNL     1      22.885  -1.322  53.305  1.00  0.00    -0.351 OA
HETATM   24  O3  UNL     1      21.147   0.608  54.395  1.00  0.00    -0.383 OA
HETATM   25  C15 UNL     1      21.352  -0.647  54.933  1.00  0.00     0.194 C 
HETATM   26  C16 UNL     1      21.617  -1.711  53.859  1.00  0.00     0.201 C 
ENDBRANCH  14  15
ENDBRANCH   1  14
TORSDOF 6
ENDMDL
