MODEL 1
REMARK VINA RESULT:      -8.7      0.000      0.000
REMARK  6 active torsions:
REMARK  status: ('A' for Active; 'I' for Inactive)
REMARK    1  A    between atoms: C2_2  and  C3_3 
REMARK       I    between atoms: C3_3  and  N1_5 
REMARK    2  A    between atoms: N1_5  and  C4_6 
REMARK    3  A    between atoms: C4_6  and  N2_7 
REMARK    4  A    between atoms: C5_8  and  O2_9 
REMARK    5  A    between atoms: C15_21  and  O3_22 
REMARK    6  A    between atoms: O3_22  and  C16_23 
ROOT
HETATM    1  C4  UNL     1      23.716   4.333  52.044  1.00  0.00     0.287 C 
HETATM    2  C5  UNL     1      22.636   4.900  51.200  1.00  0.00     0.105 C 
HETATM    3  C7  UNL     1      21.469   5.066  50.505  1.00  0.00     0.123 C 
HETATM    4  C8  UNL     1      20.218   4.307  50.212  1.00  0.00     0.059 C 
HETATM    5  C9  UNL     1      19.631   3.858  51.507  1.00  0.00     0.003 C 
HETATM    6  C10 UNL     1      20.575   3.226  52.233  1.00  0.00     0.115 C 
HETATM    7  N3  UNL     1      21.600   2.442  51.582  1.00  0.00    -0.245 N 
HETATM    8  N4  UNL     1      21.490   2.426  50.190  1.00  0.00    -0.184 NA
HETATM    9  C11 UNL     1      20.574   3.041  49.517  1.00  0.00     0.121 C 
HETATM   10  C12 UNL     1      22.634   1.834  52.277  1.00  0.00     0.068 A 
HETATM   11  C13 UNL     1      22.863   0.584  52.769  1.00  0.00     0.035 A 
HETATM   12  C14 UNL     1      24.023   0.294  53.422  1.00  0.00     0.039 A 
HETATM   13  C15 UNL     1      24.985   1.257  53.597  1.00  0.00     0.070 A 
HETATM   14  C20 UNL     1      24.703   2.521  53.076  1.00  0.00     0.050 A 
HETATM   15  C21 UNL     1      23.527   2.892  52.389  1.00  0.00     0.034 A 
ENDROOT
BRANCH   1  16
HETATM   16  N1  UNL     1      24.986   4.538  51.376  1.00  0.00    -0.317 N 
HETATM   17  C3  UNL     1      25.230   3.898  50.140  1.00  0.00     0.239 C 
HETATM   18  O1  UNL     1      24.471   3.139  49.504  1.00  0.00    -0.269 OA
HETATM   19  H4  UNL     1      25.800   5.120  51.678  1.00  0.00     0.165 HD
BRANCH  17  20
HETATM   20  C2  UNL     1      26.481   4.028  49.371  1.00  0.00     0.047 C 
HETATM   21  C1  UNL     1      26.286   5.306  49.037  1.00  0.00     0.037 C 
ENDBRANCH  17  20
ENDBRANCH   1  16
BRANCH   1  22
HETATM   22  N2  UNL     1      23.755   5.042  53.297  1.00  0.00     0.115 N 
HETATM   23  H5  UNL     1      24.704   5.405  53.467  1.00  0.00     0.316 HD
HETATM   24  H6  UNL     1      23.025   5.791  53.364  1.00  0.00     0.316 HD
ENDBRANCH   1  22
BRANCH   2  25
HETATM   25  O2  UNL     1      23.324   6.137  50.978  1.00  0.00    -0.385 OA
HETATM   26  C6  UNL     1      22.562   7.227  50.508  1.00  0.00     0.202 C 
ENDBRANCH   2  25
BRANCH  13  27
HETATM   27  O3  UNL     1      26.153   0.963  54.255  1.00  0.00    -0.337 OA
BRANCH  27  28
HETATM   28  C16 UNL     1      27.392   0.814  53.678  1.00  0.00     0.193 A 
HETATM   29  C17 UNL     1      27.430  -0.354  52.744  1.00  0.00     0.030 A 
HETATM   30  C18 UNL     1      28.354  -1.226  53.157  1.00  0.00     0.115 A 
HETATM   31  N5  UNL     1      28.966  -0.733  54.329  1.00  0.00    -0.274 NA
HETATM   32  C19 UNL     1      28.449   0.418  54.653  1.00  0.00     0.125 A 
ENDBRANCH  27  28
ENDBRANCH  13  27
TORSDOF 6
ENDMDL
MODEL 2
REMARK VINA RESULT:      -8.2      2.887      6.536
REMARK  6 active torsions:
REMARK  status: ('A' for Active; 'I' for Inactive)
REMARK    1  A    between atoms: C2_2  and  C3_3 
REMARK       I    between atoms: C3_3  and  N1_5 
REMARK    2  A    between atoms: N1_5  and  C4_6 
REMARK    3  A    between atoms: C4_6  and  N2_7 
REMARK    4  A    between atoms: C5_8  and  O2_9 
REMARK    5  A    between atoms: C15_21  and  O3_22 
REMARK    6  A    between atoms: O3_22  and  C16_23 
ROOT
HETATM    1  C4  UNL     1      24.008   1.621  52.308  1.00  0.00     0.287 C 
HETATM    2  C5  UNL     1      25.487   1.733  52.344  1.00  0.00     0.105 C 
HETATM    3  C7  UNL     1      26.812   1.492  52.584  1.00  0.00     0.123 C 
HETATM    4  C8  UNL     1      27.663   0.472  53.266  1.00  0.00     0.059 C 
HETATM    5  C9  UNL     1      27.295  -0.872  52.736  1.00  0.00     0.003 C 
HETATM    6  C10 UNL     1      25.959  -1.037  52.815  1.00  0.00     0.115 C 
HETATM    7  N3  UNL     1      25.210  -0.447  53.902  1.00  0.00    -0.245 N 
HETATM    8  N4  UNL     1      26.003   0.268  54.803  1.00  0.00    -0.184 NA
HETATM    9  C11 UNL     1      27.284   0.411  54.703  1.00  0.00     0.121 C 
HETATM   10  C12 UNL     1      23.829  -0.525  53.991  1.00  0.00     0.068 A 
HETATM   11  C13 UNL     1      22.947  -1.333  54.644  1.00  0.00     0.035 A 
HETATM   12  C14 UNL     1      21.603  -1.138  54.524  1.00  0.00     0.039 A 
HETATM   13  C15 UNL     1      21.113  -0.122  53.743  1.00  0.00     0.070 A 
HETATM   14  C20 UNL     1      22.055   0.677  53.094  1.00  0.00     0.050 A 
HETATM   15  C21 UNL     1      23.458   0.534  53.172  1.00  0.00     0.034 A 
ENDROOT
BRANCH   1  16
HETATM   16  N1  UNL     1      23.435   2.903  52.668  1.00  0.00    -0.317 N 
HETATM   17  C3  UNL     1      22.610   3.577  51.740  1.00  0.00     0.239 C 
HETATM   18  O1  UNL     1      22.284   3.211  50.592  1.00  0.00    -0.269 OA
HETATM   19  H4  UNL     1      23.538   3.442  53.558  1.00  0.00     0.165 HD
BRANCH  17  20
HETATM   20  C2  UNL     1      21.975   4.884  51.990  1.00  0.00     0.047 C 
HETATM   21  C1  UNL     1      22.995   5.606  51.522  1.00  0.00     0.037 C 
ENDBRANCH  17  20
ENDBRANCH   1  16
BRANCH   1  22
HETATM   22  N2  UNL     1      23.592   1.311  50.964  1.00  0.00     0.115 N 
HETATM   23  H5  UNL     1      24.316   1.609  50.294  1.00  0.00     0.316 HD
HETATM   24  H6  UNL     1      23.327   0.305  50.842  1.00  0.00     0.316 HD
ENDBRANCH   1  22
BRANCH   2  25
HETATM   25  O2  UNL     1      25.511   2.951  51.590  1.00  0.00    -0.385 OA
HETATM   26  C6  UNL     1      26.547   3.108  50.645  1.00  0.00     0.202 C 
ENDBRANCH   2  25
BRANCH  13  27
HETATM   27  O3  UNL     1      19.759   0.073  53.624  1.00  0.00    -0.337 OA
BRANCH  27  28
HETATM   28  C16 UNL     1      18.919  -0.586  52.759  1.00  0.00     0.193 A 
HETATM   29  C17 UNL     1      18.208   0.365  51.848  1.00  0.00     0.030 A 
HETATM   30  C18 UNL     1      16.888   0.247  52.021  1.00  0.00     0.115 A 
HETATM   31  N5  UNL     1      16.636  -0.734  53.004  1.00  0.00    -0.274 NA
HETATM   32  C19 UNL     1      17.759  -1.227  53.443  1.00  0.00     0.125 A 
ENDBRANCH  27  28
ENDBRANCH  13  27
TORSDOF 6
ENDMDL
MODEL 3
REMARK VINA RESULT:      -7.8      1.984      4.141
REMARK  6 active torsions:
REMARK  status: ('A' for Active; 'I' for Inactive)
REMARK    1  A    between atoms: C2_2  and  C3_3 
REMARK       I    between atoms: C3_3  and  N1_5 
REMARK    2  A    between atoms: N1_5  and  C4_6 
REMARK    3  A    between atoms: C4_6  and  N2_7 
REMARK    4  A    between atoms: C5_8  and  O2_9 
REMARK    5  A    between atoms: C15_21  and  O3_22 
REMARK    6  A    between atoms: O3_22  and  C16_23 
ROOT
HETATM    1  C4  UNL     1      22.594   1.995  51.815  1.00  0.00     0.287 C 
HETATM    2  C5  UNL     1      21.772   3.200  51.546  1.00  0.00     0.105 C 
HETATM    3  C7  UNL     1      21.363   4.442  51.144  1.00  0.00     0.123 C 
HETATM    4  C8  UNL     1      21.931   5.650  50.475  1.00  0.00     0.059 C 
HETATM    5  C9  UNL     1      22.580   5.218  49.205  1.00  0.00     0.003 C 
HETATM    6  C10 UNL     1      23.429   4.201  49.456  1.00  0.00     0.115 C 
HETATM    7  N3  UNL     1      24.152   4.141  50.706  1.00  0.00    -0.245 N 
HETATM    8  N4  UNL     1      23.875   5.208  51.564  1.00  0.00    -0.184 NA
HETATM    9  C11 UNL     1      23.055   6.171  51.297  1.00  0.00     0.121 C 
HETATM   10  C12 UNL     1      24.980   3.081  51.044  1.00  0.00     0.068 A 
HETATM   11  C13 UNL     1      26.320   2.841  50.972  1.00  0.00     0.035 A 
HETATM   12  C14 UNL     1      26.840   1.659  51.407  1.00  0.00     0.039 A 
HETATM   13  C15 UNL     1      26.023   0.687  51.927  1.00  0.00     0.070 A 
HETATM   14  C20 UNL     1      24.660   0.980  51.978  1.00  0.00     0.050 A 
HETATM   15  C21 UNL     1      24.052   2.179  51.548  1.00  0.00     0.034 A 
ENDROOT
BRANCH   1  16
HETATM   16  N1  UNL     1      22.372   1.574  53.184  1.00  0.00    -0.317 N 
HETATM   17  C3  UNL     1      21.825   0.295  53.435  1.00  0.00     0.239 C 
HETATM   18  O1  UNL     1      21.487  -0.573  52.605  1.00  0.00    -0.269 OA
HETATM   19  H4  UNL     1      22.563   2.094  54.070  1.00  0.00     0.165 HD
BRANCH  17  20
HETATM   20  C2  UNL     1      21.552  -0.241  54.781  1.00  0.00     0.047 C 
HETATM   21  C1  UNL     1      21.690  -1.522  54.433  1.00  0.00     0.037 C 
ENDBRANCH  17  20
ENDBRANCH   1  16
BRANCH   1  22
HETATM   22  N2  UNL     1      22.162   0.928  50.948  1.00  0.00     0.115 N 
HETATM   23  H5  UNL     1      22.723   0.928  50.084  1.00  0.00     0.316 HD
HETATM   24  H6  UNL     1      22.162  -0.007  51.421  1.00  0.00     0.316 HD
ENDBRANCH   1  22
BRANCH   2  25
HETATM   25  O2  UNL     1      20.583   2.635  52.112  1.00  0.00    -0.385 OA
HETATM   26  C6  UNL     1      19.347   3.178  51.700  1.00  0.00     0.202 C 
ENDBRANCH   2  25
BRANCH  13  27
HETATM   27  O3  UNL     1      26.549  -0.503  52.366  1.00  0.00    -0.337 OA
BRANCH  27  28
HETATM   28  C16 UNL     1      27.216  -0.705  53.550  1.00  0.00     0.193 A 
HETATM   29  C17 UNL     1      27.344   0.562  54.336  1.00  0.00     0.030 A 
HETATM   30  C18 UNL     1      28.636   0.840  54.530  1.00  0.00     0.115 A 
HETATM   31  N5  UNL     1      29.422  -0.163  53.923  1.00  0.00    -0.274 NA
HETATM   32  C19 UNL     1      28.654  -1.053  53.360  1.00  0.00     0.125 A 
ENDBRANCH  27  28
ENDBRANCH  13  27
TORSDOF 6
ENDMDL
MODEL 4
REMARK VINA RESULT:      -7.8      2.168      6.441
REMARK  6 active torsions:
REMARK  status: ('A' for Active; 'I' for Inactive)
REMARK    1  A    between atoms: C2_2  and  C3_3 
REMARK       I    between atoms: C3_3  and  N1_5 
REMARK    2  A    between atoms: N1_5  and  C4_6 
REMARK    3  A    between atoms: C4_6  and  N2_7 
REMARK    4  A    between atoms: C5_8  and  O2_9 
REMARK    5  A    between atoms: C15_21  and  O3_22 
REMARK    6  A    between atoms: O3_22  and  C16_23 
ROOT
HETATM    1  C4  UNL     1      23.458   1.630  51.934  1.00  0.00     0.287 C 
HETATM    2  C5  UNL     1      23.737   0.504  52.858  1.00  0.00     0.105 C 
HETATM    3  C7  UNL     1      24.374  -0.408  53.655  1.00  0.00     0.123 C 
HETATM    4  C8  UNL     1      25.763  -0.748  54.084  1.00  0.00     0.059 C 
HETATM    5  C9  UNL     1      26.400   0.486  54.624  1.00  0.00     0.003 C 
HETATM    6  C10 UNL     1      26.262   1.490  53.734  1.00  0.00     0.115 C 
HETATM    7  N3  UNL     1      26.277   1.219  52.314  1.00  0.00    -0.245 N 
HETATM    8  N4  UNL     1      26.443  -0.133  52.006  1.00  0.00    -0.184 NA
HETATM    9  C11 UNL     1      26.573  -1.077  52.880  1.00  0.00     0.121 C 
HETATM   10  C12 UNL     1      26.068   2.203  51.361  1.00  0.00     0.068 A 
HETATM   11  C13 UNL     1      26.872   2.988  50.589  1.00  0.00     0.035 A 
HETATM   12  C14 UNL     1      26.338   3.885  49.715  1.00  0.00     0.039 A 
HETATM   13  C15 UNL     1      24.977   4.016  49.593  1.00  0.00     0.070 A 
HETATM   14  C20 UNL     1      24.196   3.191  50.404  1.00  0.00     0.050 A 
HETATM   15  C21 UNL     1      24.679   2.241  51.330  1.00  0.00     0.034 A 
ENDROOT
BRANCH   1  16
HETATM   16  N1  UNL     1      22.549   1.172  50.902  1.00  0.00    -0.317 N 
HETATM   17  C3  UNL     1      21.290   1.800  50.759  1.00  0.00     0.239 C 
HETATM   18  O1  UNL     1      20.822   2.743  51.428  1.00  0.00    -0.269 OA
HETATM   19  H4  UNL     1      22.681   0.406  50.203  1.00  0.00     0.165 HD
BRANCH  17  20
HETATM   20  C2  UNL     1      20.284   1.420  49.751  1.00  0.00     0.047 C 
HETATM   21  C1  UNL     1      21.166   1.207  48.773  1.00  0.00     0.037 C 
ENDBRANCH  17  20
ENDBRANCH   1  16
BRANCH   1  22
HETATM   22  N2  UNL     1      22.803   2.686  52.664  1.00  0.00     0.115 N 
HETATM   23  H5  UNL     1      23.037   2.619  53.665  1.00  0.00     0.316 HD
HETATM   24  H6  UNL     1      23.004   3.637  52.272  1.00  0.00     0.316 HD
ENDBRANCH   1  22
BRANCH   2  25
HETATM   25  O2  UNL     1      22.357   0.146  52.996  1.00  0.00    -0.385 OA
HETATM   26  C6  UNL     1      21.967  -0.482  54.198  1.00  0.00     0.202 C 
ENDBRANCH   2  25
BRANCH  13  27
HETATM   27  O3  UNL     1      24.441   4.920  48.710  1.00  0.00    -0.337 OA
BRANCH  27  28
HETATM   28  C16 UNL     1      24.387   6.283  48.881  1.00  0.00     0.193 A 
HETATM   29  C17 UNL     1      25.535   6.969  48.211  1.00  0.00     0.030 A 
HETATM   30  C18 UNL     1      26.245   7.644  49.120  1.00  0.00     0.115 A 
HETATM   31  N5  UNL     1      25.657   7.467  50.391  1.00  0.00    -0.274 NA
HETATM   32  C19 UNL     1      24.605   6.705  50.295  1.00  0.00     0.125 A 
ENDBRANCH  27  28
ENDBRANCH  13  27
TORSDOF 6
ENDMDL
MODEL 5
REMARK VINA RESULT:      -7.6      2.423      6.858
REMARK  6 active torsions:
REMARK  status: ('A' for Active; 'I' for Inactive)
REMARK    1  A    between atoms: C2_2  and  C3_3 
REMARK       I    between atoms: C3_3  and  N1_5 
REMARK    2  A    between atoms: N1_5  and  C4_6 
REMARK    3  A    between atoms: C4_6  and  N2_7 
REMARK    4  A    between atoms: C5_8  and  O2_9 
REMARK    5  A    between atoms: C15_21  and  O3_22 
REMARK    6  A    between atoms: O3_22  and  C16_23 
ROOT
HETATM    1  C4  UNL     1      23.495   1.712  51.824  1.00  0.00     0.287 C 
HETATM    2  C5  UNL     1      23.879   0.601  52.728  1.00  0.00     0.105 C 
HETATM    3  C7  UNL     1      24.601  -0.273  53.494  1.00  0.00     0.123 C 
HETATM    4  C8  UNL     1      26.023  -0.525  53.872  1.00  0.00     0.059 C 
HETATM    5  C9  UNL     1      26.598   0.745  54.400  1.00  0.00     0.003 C 
HETATM    6  C10 UNL     1      26.364   1.743  53.524  1.00  0.00     0.115 C 
HETATM    7  N3  UNL     1      26.347   1.481  52.102  1.00  0.00    -0.245 N 
HETATM    8  N4  UNL     1      26.588   0.144  51.777  1.00  0.00    -0.184 NA
HETATM    9  C11 UNL     1      26.809  -0.794  52.638  1.00  0.00     0.121 C 
HETATM   10  C12 UNL     1      26.041   2.455  51.164  1.00  0.00     0.068 A 
HETATM   11  C13 UNL     1      26.765   3.295  50.372  1.00  0.00     0.035 A 
HETATM   12  C14 UNL     1      26.144   4.161  49.523  1.00  0.00     0.039 A 
HETATM   13  C15 UNL     1      24.774   4.204  49.450  1.00  0.00     0.070 A 
HETATM   14  C20 UNL     1      24.077   3.327  50.282  1.00  0.00     0.050 A 
HETATM   15  C21 UNL     1      24.652   2.404  51.182  1.00  0.00     0.034 A 
ENDROOT
BRANCH   1  16
HETATM   16  N1  UNL     1      22.581   1.202  50.821  1.00  0.00    -0.317 N 
HETATM   17  C3  UNL     1      21.300   1.785  50.691  1.00  0.00     0.239 C 
HETATM   18  O1  UNL     1      20.813   2.725  51.350  1.00  0.00    -0.269 OA
HETATM   19  H4  UNL     1      22.725   0.427  50.134  1.00  0.00     0.165 HD
BRANCH  17  20
HETATM   20  C2  UNL     1      20.287   1.350  49.712  1.00  0.00     0.047 C 
HETATM   21  C1  UNL     1      21.161   1.098  48.736  1.00  0.00     0.037 C 
ENDBRANCH  17  20
ENDBRANCH   1  16
BRANCH   1  22
HETATM   22  N2  UNL     1      22.800   2.719  52.585  1.00  0.00     0.115 N 
HETATM   23  H5  UNL     1      23.249   2.838  53.504  1.00  0.00     0.316 HD
HETATM   24  H6  UNL     1      22.705   3.626  52.068  1.00  0.00     0.316 HD
ENDBRANCH   1  22
BRANCH   2  25
HETATM   25  O2  UNL     1      22.530   0.153  52.911  1.00  0.00    -0.385 OA
HETATM   26  C6  UNL     1      22.339  -1.070  53.588  1.00  0.00     0.202 C 
ENDBRANCH   2  25
BRANCH  13  27
HETATM   27  O3  UNL     1      24.149   5.078  48.594  1.00  0.00    -0.337 OA
BRANCH  27  28
HETATM   28  C16 UNL     1      22.795   5.173  48.382  1.00  0.00     0.193 A 
HETATM   29  C17 UNL     1      22.352   4.309  47.244  1.00  0.00     0.030 A 
HETATM   30  C18 UNL     1      21.789   5.067  46.299  1.00  0.00     0.115 A 
HETATM   31  N5  UNL     1      21.813   6.416  46.712  1.00  0.00    -0.274 NA
HETATM   32  C19 UNL     1      22.374   6.515  47.884  1.00  0.00     0.125 A 
ENDBRANCH  27  28
ENDBRANCH  13  27
TORSDOF 6
ENDMDL
MODEL 6
REMARK VINA RESULT:      -7.5      2.796      5.079
REMARK  6 active torsions:
REMARK  status: ('A' for Active; 'I' for Inactive)
REMARK    1  A    between atoms: C2_2  and  C3_3 
REMARK       I    between atoms: C3_3  and  N1_5 
REMARK    2  A    between atoms: N1_5  and  C4_6 
REMARK    3  A    between atoms: C4_6  and  N2_7 
REMARK    4  A    between atoms: C5_8  and  O2_9 
REMARK    5  A    between atoms: C15_21  and  O3_22 
REMARK    6  A    between atoms: O3_22  and  C16_23 
ROOT
HETATM    1  C4  UNL     1      20.546   0.999  52.135  1.00  0.00     0.287 C 
HETATM    2  C5  UNL     1      19.109   0.924  51.777  1.00  0.00     0.105 C 
HETATM    3  C7  UNL     1      17.853   1.235  51.331  1.00  0.00     0.123 C 
HETATM    4  C8  UNL     1      17.131   2.394  50.728  1.00  0.00     0.059 C 
HETATM    5  C9  UNL     1      17.899   2.853  49.536  1.00  0.00     0.003 C 
HETATM    6  C10 UNL     1      19.188   3.046  49.879  1.00  0.00     0.115 C 
HETATM    7  N3  UNL     1      19.533   3.521  51.200  1.00  0.00    -0.245 N 
HETATM    8  N4  UNL     1      18.424   3.739  52.021  1.00  0.00    -0.184 NA
HETATM    9  C11 UNL     1      17.196   3.545  51.667  1.00  0.00     0.121 C 
HETATM   10  C12 UNL     1      20.843   3.667  51.627  1.00  0.00     0.068 A 
HETATM   11  C13 UNL     1      21.725   4.704  51.701  1.00  0.00     0.035 A 
HETATM   12  C14 UNL     1      22.983   4.516  52.191  1.00  0.00     0.039 A 
HETATM   13  C15 UNL     1      23.385   3.276  52.620  1.00  0.00     0.070 A 
HETATM   14  C20 UNL     1      22.448   2.247  52.523  1.00  0.00     0.050 A 
HETATM   15  C21 UNL     1      21.131   2.369  52.028  1.00  0.00     0.034 A 
ENDROOT
BRANCH   1  16
HETATM   16  N1  UNL     1      20.723   0.468  53.472  1.00  0.00    -0.317 N 
HETATM   17  C3  UNL     1      21.634  -0.593  53.681  1.00  0.00     0.239 C 
HETATM   18  O1  UNL     1      22.348  -1.171  52.837  1.00  0.00    -0.269 OA
HETATM   19  H4  UNL     1      20.258   0.761  54.361  1.00  0.00     0.165 HD
BRANCH  17  20
HETATM   20  C2  UNL     1      21.895  -1.215  54.992  1.00  0.00     0.047 C 
HETATM   21  C1  UNL     1      23.219  -1.058  54.939  1.00  0.00     0.037 C 
ENDBRANCH  17  20
ENDBRANCH   1  16
BRANCH   1  22
HETATM   22  N2  UNL     1      21.300   0.172  51.227  1.00  0.00     0.115 N 
HETATM   23  H5  UNL     1      21.156   0.491  50.258  1.00  0.00     0.316 HD
HETATM   24  H6  UNL     1      22.316   0.111  51.479  1.00  0.00     0.316 HD
ENDBRANCH   1  22
BRANCH   2  25
HETATM   25  O2  UNL     1      18.971  -0.435  52.211  1.00  0.00    -0.385 OA
HETATM   26  C6  UNL     1      17.662  -0.913  52.437  1.00  0.00     0.202 C 
ENDBRANCH   2  25
BRANCH  13  27
HETATM   27  O3  UNL     1      24.652   3.088  53.114  1.00  0.00    -0.337 OA
BRANCH  27  28
HETATM   28  C16 UNL     1      25.514   2.075  52.768  1.00  0.00     0.193 A 
HETATM   29  C17 UNL     1      26.425   1.714  53.899  1.00  0.00     0.030 A 
HETATM   30  C18 UNL     1      27.695   1.898  53.527  1.00  0.00     0.115 A 
HETATM   31  N5  UNL     1      27.724   2.369  52.197  1.00  0.00    -0.274 NA
HETATM   32  C19 UNL     1      26.510   2.481  51.735  1.00  0.00     0.125 A 
ENDBRANCH  27  28
ENDBRANCH  13  27
TORSDOF 6
ENDMDL
MODEL 7
REMARK VINA RESULT:      -7.5      1.530      2.018
REMARK  6 active torsions:
REMARK  status: ('A' for Active; 'I' for Inactive)
REMARK    1  A    between atoms: C2_2  and  C3_3 
REMARK       I    between atoms: C3_3  and  N1_5 
REMARK    2  A    between atoms: N1_5  and  C4_6 
REMARK    3  A    between atoms: C4_6  and  N2_7 
REMARK    4  A    between atoms: C5_8  and  O2_9 
REMARK    5  A    between atoms: C15_21  and  O3_22 
REMARK    6  A    between atoms: O3_22  and  C16_23 
ROOT
HETATM    1  C4  UNL     1      23.988   5.193  51.303  1.00  0.00     0.287 C 
HETATM    2  C5  UNL     1      23.251   6.258  50.582  1.00  0.00     0.105 C 
HETATM    3  C7  UNL     1      22.307   6.940  49.862  1.00  0.00     0.123 C 
HETATM    4  C8  UNL     1      20.987   6.683  49.214  1.00  0.00     0.059 C 
HETATM    5  C9  UNL     1      20.080   6.074  50.229  1.00  0.00     0.003 C 
HETATM    6  C10 UNL     1      20.694   5.021  50.806  1.00  0.00     0.115 C 
HETATM    7  N3  UNL     1      21.604   4.195  50.045  1.00  0.00    -0.245 N 
HETATM    8  N4  UNL     1      21.753   4.604  48.717  1.00  0.00    -0.184 NA
HETATM    9  C11 UNL     1      21.152   5.619  48.189  1.00  0.00     0.121 C 
HETATM   10  C12 UNL     1      22.316   3.147  50.608  1.00  0.00     0.068 A 
HETATM   11  C13 UNL     1      22.144   1.797  50.692  1.00  0.00     0.035 A 
HETATM   12  C14 UNL     1      23.059   1.017  51.332  1.00  0.00     0.039 A 
HETATM   13  C15 UNL     1      24.174   1.576  51.904  1.00  0.00     0.070 A 
HETATM   14  C20 UNL     1      24.305   2.960  51.793  1.00  0.00     0.050 A 
HETATM   15  C21 UNL     1      23.399   3.830  51.146  1.00  0.00     0.034 A 
ENDROOT
BRANCH   1  16
HETATM   16  N1  UNL     1      25.371   5.208  50.870  1.00  0.00    -0.317 N 
HETATM   17  C3  UNL     1      25.682   4.873  49.533  1.00  0.00     0.239 C 
HETATM   18  O1  UNL     1      24.897   4.549  48.619  1.00  0.00    -0.269 OA
HETATM   19  H4  UNL     1      26.229   5.442  51.420  1.00  0.00     0.165 HD
BRANCH  17  20
HETATM   20  C2  UNL     1      27.048   4.851  48.979  1.00  0.00     0.047 C 
HETATM   21  C1  UNL     1      27.016   6.106  48.525  1.00  0.00     0.037 C 
ENDBRANCH  17  20
ENDBRANCH   1  16
BRANCH   1  22
HETATM   22  N2  UNL     1      23.963   5.477  52.716  1.00  0.00     0.115 N 
HETATM   23  H5  UNL     1      23.037   5.837  52.986  1.00  0.00     0.316 HD
HETATM   24  H6  UNL     1      24.258   4.659  53.301  1.00  0.00     0.316 HD
ENDBRANCH   1  22
BRANCH   2  25
HETATM   25  O2  UNL     1      24.244   7.258  50.841  1.00  0.00    -0.385 OA
HETATM   26  C6  UNL     1      24.264   8.387  49.995  1.00  0.00     0.202 C 
ENDBRANCH   2  25
BRANCH  13  27
HETATM   27  O3  UNL     1      25.095   0.787  52.548  1.00  0.00    -0.337 OA
BRANCH  27  28
HETATM   28  C16 UNL     1      25.601   0.998  53.809  1.00  0.00     0.193 A 
HETATM   29  C17 UNL     1      27.035   1.422  53.765  1.00  0.00     0.030 A 
HETATM   30  C18 UNL     1      27.783   0.541  54.434  1.00  0.00     0.115 A 
HETATM   31  N5  UNL     1      26.951  -0.479  54.945  1.00  0.00    -0.274 NA
HETATM   32  C19 UNL     1      25.711  -0.254  54.612  1.00  0.00     0.125 A 
ENDBRANCH  27  28
ENDBRANCH  13  27
TORSDOF 6
ENDMDL
MODEL 8
REMARK VINA RESULT:      -7.3      4.572      7.748
REMARK  6 active torsions:
REMARK  status: ('A' for Active; 'I' for Inactive)
REMARK    1  A    between atoms: C2_2  and  C3_3 
REMARK       I    between atoms: C3_3  and  N1_5 
REMARK    2  A    between atoms: N1_5  and  C4_6 
REMARK    3  A    between atoms: C4_6  and  N2_7 
REMARK    4  A    between atoms: C5_8  and  O2_9 
REMARK    5  A    between atoms: C15_21  and  O3_22 
REMARK    6  A    between atoms: O3_22  and  C16_23 
ROOT
HETATM    1  C4  UNL     1      27.554   8.998  49.537  1.00  0.00     0.287 C 
HETATM    2  C5  UNL     1      28.179   9.886  48.527  1.00  0.00     0.105 C 
HETATM    3  C7  UNL     1      28.370  10.784  47.512  1.00  0.00     0.123 C 
HETATM    4  C8  UNL     1      27.553  11.618  46.582  1.00  0.00     0.059 C 
HETATM    5  C9  UNL     1      26.591  12.417  47.394  1.00  0.00     0.003 C 
HETATM    6  C10 UNL     1      25.922  11.599  48.232  1.00  0.00     0.115 C 
HETATM    7  N3  UNL     1      25.601  10.247  47.836  1.00  0.00    -0.245 N 
HETATM    8  N4  UNL     1      26.045   9.920  46.553  1.00  0.00    -0.184 NA
HETATM    9  C11 UNL     1      26.685  10.724  45.769  1.00  0.00     0.121 C 
HETATM   10  C12 UNL     1      24.980   9.344  48.686  1.00  0.00     0.068 A 
HETATM   11  C13 UNL     1      23.696   8.930  48.884  1.00  0.00     0.035 A 
HETATM   12  C14 UNL     1      23.405   7.991  49.827  1.00  0.00     0.039 A 
HETATM   13  C15 UNL     1      24.401   7.442  50.596  1.00  0.00     0.070 A 
HETATM   14  C20 UNL     1      25.698   7.899  50.356  1.00  0.00     0.050 A 
HETATM   15  C21 UNL     1      26.072   8.866  49.398  1.00  0.00     0.034 A 
ENDROOT
BRANCH   1  16
HETATM   16  N1  UNL     1      28.193   7.699  49.476  1.00  0.00    -0.317 N 
HETATM   17  C3  UNL     1      28.083   6.928  48.296  1.00  0.00     0.239 C 
HETATM   18  O1  UNL     1      27.483   7.217  47.242  1.00  0.00    -0.269 OA
HETATM   19  H4  UNL     1      28.758   7.210  50.207  1.00  0.00     0.165 HD
BRANCH  17  20
HETATM   20  C2  UNL     1      28.686   5.595  48.118  1.00  0.00     0.047 C 
HETATM   21  C1  UNL     1      27.652   4.924  48.631  1.00  0.00     0.037 C 
ENDBRANCH  17  20
ENDBRANCH   1  16
BRANCH   1  22
HETATM   22  N2  UNL     1      27.784   9.544  50.850  1.00  0.00     0.115 N 
HETATM   23  H5  UNL     1      28.385  10.378  50.784  1.00  0.00     0.316 HD
HETATM   24  H6  UNL     1      26.896   9.735  51.373  1.00  0.00     0.316 HD
ENDBRANCH   1  22
BRANCH   2  25
HETATM   25  O2  UNL     1      29.517   9.544  48.911  1.00  0.00    -0.385 OA
HETATM   26  C6  UNL     1      30.565  10.324  48.377  1.00  0.00     0.202 C 
ENDBRANCH   2  25
BRANCH  13  27
HETATM   27  O3  UNL     1      24.106   6.495  51.545  1.00  0.00    -0.337 OA
BRANCH  27  28
HETATM   28  C16 UNL     1      23.596   5.242  51.306  1.00  0.00     0.193 A 
HETATM   29  C17 UNL     1      23.286   4.520  52.580  1.00  0.00     0.030 A 
HETATM   30  C18 UNL     1      24.000   3.392  52.640  1.00  0.00     0.115 A 
HETATM   31  N5  UNL     1      24.794   3.284  51.478  1.00  0.00    -0.274 NA
HETATM   32  C19 UNL     1      24.592   4.310  50.701  1.00  0.00     0.125 A 
ENDBRANCH  27  28
ENDBRANCH  13  27
TORSDOF 6
ENDMDL
MODEL 9
REMARK VINA RESULT:      -7.2      6.776     10.741
REMARK  6 active torsions:
REMARK  status: ('A' for Active; 'I' for Inactive)
REMARK    1  A    between atoms: C2_2  and  C3_3 
REMARK       I    between atoms: C3_3  and  N1_5 
REMARK    2  A    between atoms: N1_5  and  C4_6 
REMARK    3  A    between atoms: C4_6  and  N2_7 
REMARK    4  A    between atoms: C5_8  and  O2_9 
REMARK    5  A    between atoms: C15_21  and  O3_22 
REMARK    6  A    between atoms: O3_22  and  C16_23 
ROOT
HETATM    1  C4  UNL     1      31.905   6.578  48.426  1.00  0.00     0.287 C 
HETATM    2  C5  UNL     1      33.302   6.965  48.110  1.00  0.00     0.105 C 
HETATM    3  C7  UNL     1      34.399   7.602  47.597  1.00  0.00     0.123 C 
HETATM    4  C8  UNL     1      34.713   8.744  46.689  1.00  0.00     0.059 C 
HETATM    5  C9  UNL     1      33.981   9.946  47.181  1.00  0.00     0.003 C 
HETATM    6  C10 UNL     1      32.679   9.640  47.353  1.00  0.00     0.115 C 
HETATM    7  N3  UNL     1      32.026   8.690  46.480  1.00  0.00    -0.245 N 
HETATM    8  N4  UNL     1      32.869   8.165  45.497  1.00  0.00    -0.184 NA
HETATM    9  C11 UNL     1      34.115   8.476  45.354  1.00  0.00     0.121 C 
HETATM   10  C12 UNL     1      30.712   8.287  46.659  1.00  0.00     0.068 A 
HETATM   11  C13 UNL     1      29.509   8.654  46.134  1.00  0.00     0.035 A 
HETATM   12  C14 UNL     1      28.359   8.039  46.529  1.00  0.00     0.039 A 
HETATM   13  C15 UNL     1      28.392   7.034  47.463  1.00  0.00     0.070 A 
HETATM   14  C20 UNL     1      29.646   6.695  47.971  1.00  0.00     0.050 A 
HETATM   15  C21 UNL     1      30.876   7.287  47.610  1.00  0.00     0.034 A 
ENDROOT
BRANCH   1  16
HETATM   16  N1  UNL     1      31.775   5.142  48.281  1.00  0.00    -0.317 N 
HETATM   17  C3  UNL     1      32.070   4.542  47.036  1.00  0.00     0.239 C 
HETATM   18  O1  UNL     1      32.448   5.098  45.985  1.00  0.00    -0.269 OA
HETATM   19  H4  UNL     1      31.482   4.434  48.992  1.00  0.00     0.165 HD
BRANCH  17  20
HETATM   20  C2  UNL     1      31.972   3.095  46.768  1.00  0.00     0.047 C 
HETATM   21  C1  UNL     1      33.171   2.797  47.273  1.00  0.00     0.037 C 
ENDBRANCH  17  20
ENDBRANCH   1  16
BRANCH   1  22
HETATM   22  N2  UNL     1      31.625   6.912  49.800  1.00  0.00     0.115 N 
HETATM   23  H5  UNL     1      32.343   7.556  50.159  1.00  0.00     0.316 HD
HETATM   24  H6  UNL     1      30.654   7.282  49.939  1.00  0.00     0.316 HD
ENDBRANCH   1  22
BRANCH   2  25
HETATM   25  O2  UNL     1      33.876   5.941  48.931  1.00  0.00    -0.385 OA
HETATM   26  C6  UNL     1      35.277   5.781  48.883  1.00  0.00     0.202 C 
ENDBRANCH   2  25
BRANCH  13  27
HETATM   27  O3  UNL     1      27.232   6.414  47.859  1.00  0.00    -0.337 OA
BRANCH  27  28
HETATM   28  C16 UNL     1      26.985   5.877  49.099  1.00  0.00     0.193 A 
HETATM   29  C17 UNL     1      27.053   4.382  49.077  1.00  0.00     0.030 A 
HETATM   30  C18 UNL     1      25.877   3.875  49.458  1.00  0.00     0.115 A 
HETATM   31  N5  UNL     1      24.988   4.933  49.746  1.00  0.00    -0.274 NA
HETATM   32  C19 UNL     1      25.579   6.079  49.555  1.00  0.00     0.125 A 
ENDBRANCH  27  28
ENDBRANCH  13  27
TORSDOF 6
ENDMDL
