MODEL 1
REMARK VINA RESULT:      -8.8      0.000      0.000
REMARK  4 active torsions:
REMARK  status: ('A' for Active; 'I' for Inactive)
REMARK    1  A    between atoms: C2_2  and  C3_3 
REMARK    2  A    between atoms: C3_3  and  C4_4 
REMARK    3  A    between atoms: C4_4  and  C5_5 
REMARK       I    between atoms: C5_5  and  N1_7 
REMARK    4  A    between atoms: C9_11  and  C10_12 
ROOT
HETATM    1  C5  UNL     1      26.869   0.464  53.766  1.00  0.00     0.243 C 
HETATM    2  O1  UNL     1      26.889   1.140  52.706  1.00  0.00    -0.271 OA
HETATM    3  N1  UNL     1      25.616  -0.078  54.185  1.00  0.00    -0.212 N 
HETATM    4  C6  UNL     1      24.461   0.177  53.379  1.00  0.00     0.135 A 
HETATM    5  C7  UNL     1      23.275  -0.286  53.697  1.00  0.00     0.016 A 
HETATM    6  C8  UNL     1      22.072  -0.061  52.920  1.00  0.00     0.047 A 
HETATM    7  C9  UNL     1      20.881  -0.528  53.241  1.00  0.00     0.061 A 
HETATM    8  N2  UNL     1      20.866  -1.287  54.435  1.00  0.00    -0.277 N 
HETATM    9  N3  UNL     1      21.998  -1.533  55.221  1.00  0.00    -0.172 NA
HETATM   10  C16 UNL     1      23.172  -1.086  54.923  1.00  0.00     0.107 A 
HETATM   11  C17 UNL     1      24.373  -1.327  55.723  1.00  0.00     0.173 A 
HETATM   12  N4  UNL     1      25.505  -0.841  55.351  1.00  0.00    -0.175 NA
HETATM   13  H15 UNL     1      19.999  -1.720  54.817  1.00  0.00     0.189 HD
ENDROOT
BRANCH   7  14
HETATM   14  C10 UNL     1      19.682  -0.297  52.457  1.00  0.00    -0.006 A 
HETATM   15  C11 UNL     1      19.663   0.411  51.278  1.00  0.00     0.017 A 
HETATM   16  C12 UNL     1      18.545   0.651  50.506  1.00  0.00     0.045 A 
HETATM   17  C13 UNL     1      17.335   0.149  50.936  1.00  0.00     0.138 A 
HETATM   18  F1  UNL     1      16.208   0.355  50.218  1.00  0.00    -0.204 F 
HETATM   19  C14 UNL     1      17.311  -0.567  52.115  1.00  0.00     0.073 A 
HETATM   20 CL1  UNL     1      15.762  -1.193  52.637  1.00  0.00    -0.081 Cl
HETATM   21  C15 UNL     1      18.457  -0.780  52.852  1.00  0.00     0.040 A 
ENDBRANCH   7  14
BRANCH   1  22
HETATM   22  C4  UNL     1      28.094   0.227  54.569  1.00  0.00     0.105 C 
BRANCH  22  23
HETATM   23  C3  UNL     1      29.324   0.202  53.686  1.00  0.00     0.009 C 
BRANCH  23  24
HETATM   24  C2  UNL     1      30.023  -1.131  53.871  1.00  0.00    -0.004 C 
HETATM   25  C1  UNL     1      29.262  -2.242  53.178  1.00  0.00     0.005 C 
ENDBRANCH  23  24
ENDBRANCH  22  23
ENDBRANCH   1  22
TORSDOF 4
ENDMDL
MODEL 2
REMARK VINA RESULT:      -8.4      1.900      2.279
REMARK  4 active torsions:
REMARK  status: ('A' for Active; 'I' for Inactive)
REMARK    1  A    between atoms: C2_2  and  C3_3 
REMARK    2  A    between atoms: C3_3  and  C4_4 
REMARK    3  A    between atoms: C4_4  and  C5_5 
REMARK       I    between atoms: C5_5  and  N1_7 
REMARK    4  A    between atoms: C9_11  and  C10_12 
ROOT
HETATM    1  C5  UNL     1      27.815   1.285  53.404  1.00  0.00     0.243 C 
HETATM    2  O1  UNL     1      27.880   2.125  52.471  1.00  0.00    -0.271 OA
HETATM    3  N1  UNL     1      26.557   0.650  53.640  1.00  0.00    -0.212 N 
HETATM    4  C6  UNL     1      25.449   1.003  52.806  1.00  0.00     0.135 A 
HETATM    5  C7  UNL     1      24.263   0.464  52.960  1.00  0.00     0.016 A 
HETATM    6  C8  UNL     1      23.107   0.782  52.145  1.00  0.00     0.047 A 
HETATM    7  C9  UNL     1      21.915   0.239  52.301  1.00  0.00     0.061 A 
HETATM    8  N2  UNL     1      21.849  -0.705  53.353  1.00  0.00    -0.277 N 
HETATM    9  N3  UNL     1      22.934  -1.048  54.168  1.00  0.00    -0.172 NA
HETATM   10  C16 UNL     1      24.109  -0.527  54.030  1.00  0.00     0.107 A 
HETATM   11  C17 UNL     1      25.262  -0.865  54.864  1.00  0.00     0.173 A 
HETATM   12  N4  UNL     1      26.398  -0.296  54.657  1.00  0.00    -0.175 NA
HETATM   13  H15 UNL     1      20.976  -1.217  53.598  1.00  0.00     0.189 HD
ENDROOT
BRANCH   7  14
HETATM   14  C10 UNL     1      20.763   0.564  51.481  1.00  0.00    -0.006 A 
HETATM   15  C11 UNL     1      19.478   0.169  51.775  1.00  0.00     0.017 A 
HETATM   16  C12 UNL     1      18.360   0.458  51.021  1.00  0.00     0.045 A 
HETATM   17  C13 UNL     1      18.522   1.205  49.873  1.00  0.00     0.138 A 
HETATM   18  F1  UNL     1      17.459   1.517  49.097  1.00  0.00    -0.204 F 
HETATM   19  C14 UNL     1      19.795   1.621  49.543  1.00  0.00     0.073 A 
HETATM   20 CL1  UNL     1      19.971   2.567  48.081  1.00  0.00    -0.081 Cl
HETATM   21  C15 UNL     1      20.883   1.306  50.330  1.00  0.00     0.040 A 
ENDBRANCH   7  14
BRANCH   1  22
HETATM   22  C4  UNL     1      28.991   0.952  54.244  1.00  0.00     0.105 C 
BRANCH  22  23
HETATM   23  C3  UNL     1      30.015   0.163  53.454  1.00  0.00     0.009 C 
BRANCH  23  24
HETATM   24  C2  UNL     1      29.986  -1.277  53.928  1.00  0.00    -0.004 C 
HETATM   25  C1  UNL     1      29.046  -2.107  53.079  1.00  0.00     0.005 C 
ENDBRANCH  23  24
ENDBRANCH  22  23
ENDBRANCH   1  22
TORSDOF 4
ENDMDL
MODEL 3
REMARK VINA RESULT:      -8.3      2.187      2.804
REMARK  4 active torsions:
REMARK  status: ('A' for Active; 'I' for Inactive)
REMARK    1  A    between atoms: C2_2  and  C3_3 
REMARK    2  A    between atoms: C3_3  and  C4_4 
REMARK    3  A    between atoms: C4_4  and  C5_5 
REMARK       I    between atoms: C5_5  and  N1_7 
REMARK    4  A    between atoms: C9_11  and  C10_12 
ROOT
HETATM    1  C5  UNL     1      27.303   0.355  54.467  1.00  0.00     0.243 C 
HETATM    2  O1  UNL     1      26.780  -0.484  55.244  1.00  0.00    -0.271 OA
HETATM    3  N1  UNL     1      26.475   0.928  53.453  1.00  0.00    -0.212 N 
HETATM    4  C6  UNL     1      25.107   0.517  53.380  1.00  0.00     0.135 A 
HETATM    5  C7  UNL     1      24.284   0.997  52.477  1.00  0.00     0.016 A 
HETATM    6  C8  UNL     1      22.890   0.618  52.355  1.00  0.00     0.047 A 
HETATM    7  C9  UNL     1      22.064   1.102  51.447  1.00  0.00     0.061 A 
HETATM    8  N2  UNL     1      22.660   2.046  50.577  1.00  0.00    -0.277 N 
HETATM    9  N3  UNL     1      23.999   2.445  50.652  1.00  0.00    -0.172 NA
HETATM   10  C16 UNL     1      24.823   1.983  51.533  1.00  0.00     0.107 A 
HETATM   11  C17 UNL     1      26.226   2.381  51.638  1.00  0.00     0.173 A 
HETATM   12  N4  UNL     1      26.977   1.868  52.549  1.00  0.00    -0.175 NA
HETATM   13  H15 UNL     1      22.135   2.514  49.809  1.00  0.00     0.189 HD
ENDROOT
BRANCH   7  14
HETATM   14  C10 UNL     1      20.670   0.717  51.333  1.00  0.00    -0.006 A 
HETATM   15  C11 UNL     1      19.867   1.058  50.270  1.00  0.00     0.017 A 
HETATM   16  C12 UNL     1      18.539   0.711  50.126  1.00  0.00     0.045 A 
HETATM   17  C13 UNL     1      17.949  -0.040  51.121  1.00  0.00     0.138 A 
HETATM   18  F1  UNL     1      16.652  -0.408  51.030  1.00  0.00    -0.204 F 
HETATM   19  C14 UNL     1      18.722  -0.403  52.205  1.00  0.00     0.073 A 
HETATM   20 CL1  UNL     1      17.947  -1.356  53.452  1.00  0.00    -0.081 Cl
HETATM   21  C15 UNL     1      20.046  -0.031  52.303  1.00  0.00     0.040 A 
ENDBRANCH   7  14
BRANCH   1  22
HETATM   22  C4  UNL     1      28.728   0.749  54.583  1.00  0.00     0.105 C 
BRANCH  22  23
HETATM   23  C3  UNL     1      29.556   0.121  53.481  1.00  0.00     0.009 C 
BRANCH  23  24
HETATM   24  C2  UNL     1      29.958  -1.275  53.915  1.00  0.00    -0.004 C 
HETATM   25  C1  UNL     1      29.176  -2.325  53.153  1.00  0.00     0.005 C 
ENDBRANCH  23  24
ENDBRANCH  22  23
ENDBRANCH   1  22
TORSDOF 4
ENDMDL
MODEL 4
REMARK VINA RESULT:      -8.3      1.930      2.593
REMARK  4 active torsions:
REMARK  status: ('A' for Active; 'I' for Inactive)
REMARK    1  A    between atoms: C2_2  and  C3_3 
REMARK    2  A    between atoms: C3_3  and  C4_4 
REMARK    3  A    between atoms: C4_4  and  C5_5 
REMARK       I    between atoms: C5_5  and  N1_7 
REMARK    4  A    between atoms: C9_11  and  C10_12 
ROOT
HETATM    1  C5  UNL     1      26.363   0.015  53.696  1.00  0.00     0.243 C 
HETATM    2  O1  UNL     1      26.292  -1.207  53.985  1.00  0.00    -0.271 OA
HETATM    3  N1  UNL     1      25.151   0.688  53.353  1.00  0.00    -0.212 N 
HETATM    4  C6  UNL     1      23.932  -0.061  53.359  1.00  0.00     0.135 A 
HETATM    5  C7  UNL     1      22.778   0.486  53.056  1.00  0.00     0.016 A 
HETATM    6  C8  UNL     1      21.513  -0.223  53.045  1.00  0.00     0.047 A 
HETATM    7  C9  UNL     1      20.354   0.329  52.740  1.00  0.00     0.061 A 
HETATM    8  N2  UNL     1      20.442   1.704  52.416  1.00  0.00    -0.277 N 
HETATM    9  N3  UNL     1      21.637   2.433  52.411  1.00  0.00    -0.172 NA
HETATM   10  C16 UNL     1      22.781   1.911  52.707  1.00  0.00     0.107 A 
HETATM   11  C17 UNL     1      24.045   2.646  52.711  1.00  0.00     0.173 A 
HETATM   12  N4  UNL     1      25.141   2.045  53.019  1.00  0.00    -0.175 NA
HETATM   13  H15 UNL     1      19.612   2.275  52.154  1.00  0.00     0.189 HD
ENDROOT
BRANCH   7  14
HETATM   14  C10 UNL     1      19.093  -0.388  52.732  1.00  0.00    -0.006 A 
HETATM   15  C11 UNL     1      18.847  -1.513  53.485  1.00  0.00     0.017 A 
HETATM   16  C12 UNL     1      17.663  -2.221  53.503  1.00  0.00     0.045 A 
HETATM   17  C13 UNL     1      16.627  -1.780  52.707  1.00  0.00     0.138 A 
HETATM   18  F1  UNL     1      15.445  -2.437  52.687  1.00  0.00    -0.204 F 
HETATM   19  C14 UNL     1      16.833  -0.654  51.937  1.00  0.00     0.073 A 
HETATM   20 CL1  UNL     1      15.501  -0.118  50.936  1.00  0.00    -0.081 Cl
HETATM   21  C15 UNL     1      18.037   0.019  51.952  1.00  0.00     0.040 A 
ENDBRANCH   7  14
BRANCH   1  22
HETATM   22  C4  UNL     1      27.652   0.749  53.704  1.00  0.00     0.105 C 
BRANCH  22  23
HETATM   23  C3  UNL     1      28.668   0.053  54.585  1.00  0.00     0.009 C 
BRANCH  23  24
HETATM   24  C2  UNL     1      29.800  -0.452  53.711  1.00  0.00    -0.004 C 
HETATM   25  C1  UNL     1      29.581  -1.900  53.325  1.00  0.00     0.005 C 
ENDBRANCH  23  24
ENDBRANCH  22  23
ENDBRANCH   1  22
TORSDOF 4
ENDMDL
MODEL 5
REMARK VINA RESULT:      -7.8      6.968      9.125
REMARK  4 active torsions:
REMARK  status: ('A' for Active; 'I' for Inactive)
REMARK    1  A    between atoms: C2_2  and  C3_3 
REMARK    2  A    between atoms: C3_3  and  C4_4 
REMARK    3  A    between atoms: C4_4  and  C5_5 
REMARK       I    between atoms: C5_5  and  N1_7 
REMARK    4  A    between atoms: C9_11  and  C10_12 
ROOT
HETATM    1  C5  UNL     1      21.405   0.983  51.583  1.00  0.00     0.243 C 
HETATM    2  O1  UNL     1      20.595   1.648  50.888  1.00  0.00    -0.271 OA
HETATM    3  N1  UNL     1      22.782   1.364  51.545  1.00  0.00    -0.212 N 
HETATM    4  C6  UNL     1      23.158   2.474  50.724  1.00  0.00     0.135 A 
HETATM    5  C7  UNL     1      24.401   2.883  50.636  1.00  0.00     0.016 A 
HETATM    6  C8  UNL     1      24.841   4.000  49.822  1.00  0.00     0.047 A 
HETATM    7  C9  UNL     1      26.091   4.411  49.736  1.00  0.00     0.061 A 
HETATM    8  N2  UNL     1      26.997   3.658  50.520  1.00  0.00    -0.277 N 
HETATM    9  N3  UNL     1      26.625   2.572  51.321  1.00  0.00    -0.172 NA
HETATM   10  C16 UNL     1      25.406   2.156  51.419  1.00  0.00     0.107 A 
HETATM   11  C17 UNL     1      24.986   1.026  52.248  1.00  0.00     0.173 A 
HETATM   12  N4  UNL     1      23.748   0.678  52.286  1.00  0.00    -0.175 NA
HETATM   13  H15 UNL     1      28.017   3.862  50.554  1.00  0.00     0.189 HD
ENDROOT
BRANCH   7  14
HETATM   14  C10 UNL     1      26.522   5.529  48.918  1.00  0.00    -0.006 A 
HETATM   15  C11 UNL     1      25.682   6.530  48.486  1.00  0.00     0.017 A 
HETATM   16  C12 UNL     1      26.054   7.607  47.709  1.00  0.00     0.045 A 
HETATM   17  C13 UNL     1      27.373   7.708  47.321  1.00  0.00     0.138 A 
HETATM   18  F1  UNL     1      27.791   8.744  46.560  1.00  0.00    -0.204 F 
HETATM   19  C14 UNL     1      28.248   6.724  47.734  1.00  0.00     0.073 A 
HETATM   20 CL1  UNL     1      29.917   6.878  47.227  1.00  0.00    -0.081 Cl
HETATM   21  C15 UNL     1      27.828   5.665  48.511  1.00  0.00     0.040 A 
ENDBRANCH   7  14
BRANCH   1  22
HETATM   22  C4  UNL     1      20.967  -0.161  52.418  1.00  0.00     0.105 C 
BRANCH  22  23
HETATM   23  C3  UNL     1      20.445   0.315  53.758  1.00  0.00     0.009 C 
BRANCH  23  24
HETATM   24  C2  UNL     1      21.346  -0.230  54.849  1.00  0.00    -0.004 C 
HETATM   25  C1  UNL     1      21.867  -1.605  54.484  1.00  0.00     0.005 C 
ENDBRANCH  23  24
ENDBRANCH  22  23
ENDBRANCH   1  22
TORSDOF 4
ENDMDL
MODEL 6
REMARK VINA RESULT:      -7.7      7.508      9.705
REMARK  4 active torsions:
REMARK  status: ('A' for Active; 'I' for Inactive)
REMARK    1  A    between atoms: C2_2  and  C3_3 
REMARK    2  A    between atoms: C3_3  and  C4_4 
REMARK    3  A    between atoms: C4_4  and  C5_5 
REMARK       I    between atoms: C5_5  and  N1_7 
REMARK    4  A    between atoms: C9_11  and  C10_12 
ROOT
HETATM    1  C5  UNL     1      24.848   0.527  52.539  1.00  0.00     0.243 C 
HETATM    2  O1  UNL     1      26.040   0.143  52.659  1.00  0.00    -0.271 OA
HETATM    3  N1  UNL     1      24.600   1.687  51.743  1.00  0.00    -0.212 N 
HETATM    4  C6  UNL     1      25.715   2.343  51.131  1.00  0.00     0.135 A 
HETATM    5  C7  UNL     1      25.569   3.413  50.386  1.00  0.00     0.016 A 
HETATM    6  C8  UNL     1      26.660   4.117  49.741  1.00  0.00     0.047 A 
HETATM    7  C9  UNL     1      26.511   5.193  48.992  1.00  0.00     0.061 A 
HETATM    8  N2  UNL     1      25.168   5.618  48.862  1.00  0.00    -0.277 N 
HETATM    9  N3  UNL     1      24.080   4.975  49.463  1.00  0.00    -0.172 NA
HETATM   10  C16 UNL     1      24.206   3.921  50.199  1.00  0.00     0.107 A 
HETATM   11  C17 UNL     1      23.089   3.226  50.840  1.00  0.00     0.173 A 
HETATM   12  N4  UNL     1      23.306   2.181  51.558  1.00  0.00    -0.175 NA
HETATM   13  H15 UNL     1      24.893   6.453  48.302  1.00  0.00     0.189 HD
ENDROOT
BRANCH   7  14
HETATM   14  C10 UNL     1      27.609   5.892  48.351  1.00  0.00    -0.006 A 
HETATM   15  C11 UNL     1      27.468   7.079  47.670  1.00  0.00     0.017 A 
HETATM   16  C12 UNL     1      28.486   7.771  47.048  1.00  0.00     0.045 A 
HETATM   17  C13 UNL     1      29.761   7.246  47.102  1.00  0.00     0.138 A 
HETATM   18  F1  UNL     1      30.795   7.884  46.510  1.00  0.00    -0.204 F 
HETATM   19  C14 UNL     1      29.945   6.056  47.776  1.00  0.00     0.073 A 
HETATM   20 CL1  UNL     1      31.572   5.413  47.828  1.00  0.00    -0.081 Cl
HETATM   21  C15 UNL     1      28.893   5.401  48.381  1.00  0.00     0.040 A 
ENDBRANCH   7  14
BRANCH   1  22
HETATM   22  C4  UNL     1      23.725  -0.186  53.195  1.00  0.00     0.105 C 
BRANCH  22  23
HETATM   23  C3  UNL     1      24.177  -0.843  54.482  1.00  0.00     0.009 C 
BRANCH  23  24
HETATM   24  C2  UNL     1      22.949  -1.268  55.264  1.00  0.00    -0.004 C 
HETATM   25  C1  UNL     1      21.718  -0.529  54.782  1.00  0.00     0.005 C 
ENDBRANCH  23  24
ENDBRANCH  22  23
ENDBRANCH   1  22
TORSDOF 4
ENDMDL
MODEL 7
REMARK VINA RESULT:      -7.6      5.858      6.911
REMARK  4 active torsions:
REMARK  status: ('A' for Active; 'I' for Inactive)
REMARK    1  A    between atoms: C2_2  and  C3_3 
REMARK    2  A    between atoms: C3_3  and  C4_4 
REMARK    3  A    between atoms: C4_4  and  C5_5 
REMARK       I    between atoms: C5_5  and  N1_7 
REMARK    4  A    between atoms: C9_11  and  C10_12 
ROOT
HETATM    1  C5  UNL     1      27.272   5.511  48.704  1.00  0.00     0.243 C 
HETATM    2  O1  UNL     1      27.949   4.461  48.554  1.00  0.00    -0.271 OA
HETATM    3  N1  UNL     1      26.088   5.431  49.498  1.00  0.00    -0.212 N 
HETATM    4  C6  UNL     1      25.740   4.169  50.076  1.00  0.00     0.135 A 
HETATM    5  C7  UNL     1      24.669   4.015  50.818  1.00  0.00     0.016 A 
HETATM    6  C8  UNL     1      24.268   2.763  51.428  1.00  0.00     0.047 A 
HETATM    7  C9  UNL     1      23.190   2.610  52.174  1.00  0.00     0.061 A 
HETATM    8  N2  UNL     1      22.435   3.795  52.337  1.00  0.00    -0.277 N 
HETATM    9  N3  UNL     1      22.778   5.028  51.770  1.00  0.00    -0.172 NA
HETATM   10  C16 UNL     1      23.828   5.197  51.038  1.00  0.00     0.107 A 
HETATM   11  C17 UNL     1      24.213   6.472  50.432  1.00  0.00     0.173 A 
HETATM   12  N4  UNL     1      25.279   6.550  49.715  1.00  0.00    -0.175 NA
HETATM   13  H15 UNL     1      21.558   3.832  52.898  1.00  0.00     0.189 HD
ENDROOT
BRANCH   7  14
HETATM   14  C10 UNL     1      22.797   1.352  52.781  1.00  0.00    -0.006 A 
HETATM   15  C11 UNL     1      23.682   0.469  53.354  1.00  0.00     0.017 A 
HETATM   16  C12 UNL     1      23.346  -0.734  53.939  1.00  0.00     0.045 A 
HETATM   17  C13 UNL     1      22.017  -1.101  53.961  1.00  0.00     0.138 A 
HETATM   18  F1  UNL     1      21.632  -2.269  54.523  1.00  0.00    -0.204 F 
HETATM   19  C14 UNL     1      21.097  -0.242  53.397  1.00  0.00     0.073 A 
HETATM   20 CL1  UNL     1      19.417  -0.732  53.439  1.00  0.00    -0.081 Cl
HETATM   21  C15 UNL     1      21.482   0.952  52.822  1.00  0.00     0.040 A 
ENDBRANCH   7  14
BRANCH   1  22
HETATM   22  C4  UNL     1      27.673   6.797  48.084  1.00  0.00     0.105 C 
BRANCH  22  23
HETATM   23  C3  UNL     1      29.105   6.741  47.594  1.00  0.00     0.009 C 
BRANCH  23  24
HETATM   24  C2  UNL     1      29.929   7.730  48.395  1.00  0.00    -0.004 C 
HETATM   25  C1  UNL     1      31.358   7.774  47.894  1.00  0.00     0.005 C 
ENDBRANCH  23  24
ENDBRANCH  22  23
ENDBRANCH   1  22
TORSDOF 4
ENDMDL
MODEL 8
REMARK VINA RESULT:      -7.6      6.674      7.800
REMARK  4 active torsions:
REMARK  status: ('A' for Active; 'I' for Inactive)
REMARK    1  A    between atoms: C2_2  and  C3_3 
REMARK    2  A    between atoms: C3_3  and  C4_4 
REMARK    3  A    between atoms: C4_4  and  C5_5 
REMARK       I    between atoms: C5_5  and  N1_7 
REMARK    4  A    between atoms: C9_11  and  C10_12 
ROOT
HETATM    1  C5  UNL     1      28.473   5.957  48.207  1.00  0.00     0.243 C 
HETATM    2  O1  UNL     1      29.305   5.103  48.606  1.00  0.00    -0.271 OA
HETATM    3  N1  UNL     1      27.097   5.746  48.528  1.00  0.00    -0.212 N 
HETATM    4  C6  UNL     1      26.745   4.583  49.284  1.00  0.00     0.135 A 
HETATM    5  C7  UNL     1      25.504   4.320  49.618  1.00  0.00     0.016 A 
HETATM    6  C8  UNL     1      25.090   3.159  50.381  1.00  0.00     0.047 A 
HETATM    7  C9  UNL     1      23.841   2.897  50.717  1.00  0.00     0.061 A 
HETATM    8  N2  UNL     1      22.911   3.862  50.263  1.00  0.00    -0.277 N 
HETATM    9  N3  UNL     1      23.259   4.999  49.525  1.00  0.00    -0.172 NA
HETATM   10  C16 UNL     1      24.475   5.273  49.186  1.00  0.00     0.107 A 
HETATM   11  C17 UNL     1      24.870   6.452  48.416  1.00  0.00     0.173 A 
HETATM   12  N4  UNL     1      26.108   6.647  48.123  1.00  0.00    -0.175 NA
HETATM   13  H15 UNL     1      21.889   3.792  50.450  1.00  0.00     0.189 HD
ENDROOT
BRANCH   7  14
HETATM   14  C10 UNL     1      23.435   1.732  51.480  1.00  0.00    -0.006 A 
HETATM   15  C11 UNL     1      22.199   1.138  51.373  1.00  0.00     0.017 A 
HETATM   16  C12 UNL     1      21.778   0.032  52.081  1.00  0.00     0.045 A 
HETATM   17  C13 UNL     1      22.655  -0.542  52.977  1.00  0.00     0.138 A 
HETATM   18  F1  UNL     1      22.293  -1.628  53.697  1.00  0.00    -0.204 F 
HETATM   19  C14 UNL     1      23.906   0.023  53.115  1.00  0.00     0.073 A 
HETATM   20 CL1  UNL     1      24.998  -0.726  54.260  1.00  0.00    -0.081 Cl
HETATM   21  C15 UNL     1      24.280   1.131  52.384  1.00  0.00     0.040 A 
ENDBRANCH   7  14
BRANCH   1  22
HETATM   22  C4  UNL     1      28.886   7.148  47.425  1.00  0.00     0.105 C 
BRANCH  22  23
HETATM   23  C3  UNL     1      29.432   8.230  48.334  1.00  0.00     0.009 C 
BRANCH  23  24
HETATM   24  C2  UNL     1      30.942   8.258  48.197  1.00  0.00    -0.004 C 
HETATM   25  C1  UNL     1      31.610   7.807  49.480  1.00  0.00     0.005 C 
ENDBRANCH  23  24
ENDBRANCH  22  23
ENDBRANCH   1  22
TORSDOF 4
ENDMDL
MODEL 9
REMARK VINA RESULT:      -7.4      6.098      7.569
REMARK  4 active torsions:
REMARK  status: ('A' for Active; 'I' for Inactive)
REMARK    1  A    between atoms: C2_2  and  C3_3 
REMARK    2  A    between atoms: C3_3  and  C4_4 
REMARK    3  A    between atoms: C4_4  and  C5_5 
REMARK       I    between atoms: C5_5  and  N1_7 
REMARK    4  A    between atoms: C9_11  and  C10_12 
ROOT
HETATM    1  C5  UNL     1      24.619   6.835  48.177  1.00  0.00     0.243 C 
HETATM    2  O1  UNL     1      23.387   7.019  48.342  1.00  0.00    -0.271 OA
HETATM    3  N1  UNL     1      25.213   5.700  48.811  1.00  0.00    -0.212 N 
HETATM    4  C6  UNL     1      24.375   4.842  49.592  1.00  0.00     0.135 A 
HETATM    5  C7  UNL     1      24.845   3.781  50.204  1.00  0.00     0.016 A 
HETATM    6  C8  UNL     1      24.045   2.877  51.007  1.00  0.00     0.047 A 
HETATM    7  C9  UNL     1      24.519   1.811  51.622  1.00  0.00     0.061 A 
HETATM    8  N2  UNL     1      25.907   1.610  51.431  1.00  0.00    -0.277 N 
HETATM    9  N3  UNL     1      26.723   2.452  50.667  1.00  0.00    -0.172 NA
HETATM   10  C16 UNL     1      26.278   3.500  50.058  1.00  0.00     0.107 A 
HETATM   11  C17 UNL     1      27.104   4.398  49.252  1.00  0.00     0.173 A 
HETATM   12  N4  UNL     1      26.576   5.422  48.679  1.00  0.00    -0.175 NA
HETATM   13  H15 UNL     1      26.424   0.811  51.854  1.00  0.00     0.189 HD
ENDROOT
BRANCH   7  14
HETATM   14  C10 UNL     1      23.711   0.912  52.424  1.00  0.00    -0.006 A 
HETATM   15  C11 UNL     1      24.217   0.112  53.423  1.00  0.00     0.017 A 
HETATM   16  C12 UNL     1      23.482  -0.753  54.205  1.00  0.00     0.045 A 
HETATM   17  C13 UNL     1      22.123  -0.840  53.983  1.00  0.00     0.138 A 
HETATM   18  F1  UNL     1      21.356  -1.672  54.721  1.00  0.00    -0.204 F 
HETATM   19  C14 UNL     1      21.576  -0.054  52.990  1.00  0.00     0.073 A 
HETATM   20 CL1  UNL     1      19.850  -0.184  52.731  1.00  0.00    -0.081 Cl
HETATM   21  C15 UNL     1      22.355   0.797  52.233  1.00  0.00     0.040 A 
ENDBRANCH   7  14
BRANCH   1  22
HETATM   22  C4  UNL     1      25.447   7.753  47.358  1.00  0.00     0.105 C 
BRANCH  22  23
HETATM   23  C3  UNL     1      25.688   9.060  48.084  1.00  0.00     0.009 C 
BRANCH  23  24
HETATM   24  C2  UNL     1      27.093   9.044  48.654  1.00  0.00    -0.004 C 
HETATM   25  C1  UNL     1      27.064   9.058  50.169  1.00  0.00     0.005 C 
ENDBRANCH  23  24
ENDBRANCH  22  23
ENDBRANCH   1  22
TORSDOF 4
ENDMDL
