MODEL 1
REMARK VINA RESULT:      -6.7      0.000      0.000
REMARK  7 active torsions:
REMARK  status: ('A' for Active; 'I' for Inactive)
REMARK    1  A    between atoms: O1_2  and  C2_3 
REMARK    2  A    between atoms: C3_4  and  C4_5 
REMARK    3  A    between atoms: C7_10  and  N2_11 
REMARK    4  A    between atoms: N2_11  and  C8_12 
REMARK    5  A    between atoms: C8_12  and  C9_13 
REMARK    6  A    between atoms: C10_14  and  N3_15 
REMARK    7  A    between atoms: C11_17  and  O3_18 
ROOT
HETATM    1  C4  UNL     1      25.157   2.582  51.140  1.00  0.00     0.087 C 
HETATM    2  O2  UNL     1      24.844   3.064  49.917  1.00  0.00    -0.293 OA
HETATM    3  C5  UNL     1      23.738   3.821  49.698  1.00  0.00     0.173 C 
HETATM    4  N1  UNL     1      23.041   2.896  49.032  1.00  0.00    -0.237 NA
HETATM    5  C6  UNL     1      22.492   1.834  49.717  1.00  0.00     0.151 C 
HETATM    6  C7  UNL     1      22.181   1.323  50.992  1.00  0.00     0.079 C 
HETATM    7  C11 UNL     1      22.859   1.162  52.174  1.00  0.00     0.096 C 
HETATM    8  C13 UNL     1      23.517   2.026  53.023  1.00  0.00     0.050 C 
HETATM    9  C14 UNL     1      24.226   2.803  52.135  1.00  0.00     0.006 C 
HETATM   10  C15 UNL     1      23.689   4.158  52.489  1.00  0.00     0.311 C 
HETATM   11  N4  UNL     1      24.236   5.179  51.648  1.00  0.00     0.095 N 
HETATM   12  C16 UNL     1      23.856   5.182  50.268  1.00  0.00     0.356 C 
HETATM   13  H19 UNL     1      24.069   6.106  52.101  1.00  0.00     0.316 HD
ENDROOT
BRANCH   6  14
HETATM   14  N2  UNL     1      20.802   0.874  50.984  1.00  0.00    -0.383 N 
HETATM   15  H7  UNL     1      20.427   0.317  50.157  1.00  0.00     0.160 HD
BRANCH  14  16
HETATM   16  C8  UNL     1      19.785   1.078  51.994  1.00  0.00     0.150 C 
BRANCH  16  17
HETATM   17  C9  UNL     1      18.945  -0.089  52.263  1.00  0.00     0.029 C 
HETATM   18  C10 UNL     1      19.055  -0.844  53.360  1.00  0.00     0.071 C 
HETATM   19 BR1  UNL     1      17.865  -2.338  53.544  1.00  0.00    -0.032 Br
BRANCH  18  20
HETATM   20  N3  UNL     1      20.105  -0.269  54.122  1.00  0.00    -0.394 N 
HETATM   21  H11 UNL     1      21.070  -0.689  54.132  1.00  0.00     0.156 HD
HETATM   22  H12 UNL     1      19.751   0.572  54.617  1.00  0.00     0.156 HD
ENDBRANCH  18  20
ENDBRANCH  16  17
ENDBRANCH  14  16
ENDBRANCH   6  14
BRANCH   7  23
HETATM   23  O3  UNL     1      22.912  -0.109  52.637  1.00  0.00    -0.354 OA
HETATM   24  C12 UNL     1      23.684  -0.700  53.617  1.00  0.00     0.210 C 
ENDBRANCH   7  23
BRANCH   1  25
HETATM   25  C3  UNL     1      26.426   1.903  51.234  1.00  0.00     0.062 C 
HETATM   26  C2  UNL     1      27.181   2.358  52.202  1.00  0.00     0.137 C 
BRANCH  26  27
HETATM   27  O1  UNL     1      28.356   2.299  52.893  1.00  0.00    -0.368 OA
HETATM   28  C1  UNL     1      28.891   1.236  53.609  1.00  0.00     0.208 C 
ENDBRANCH  26  27
ENDBRANCH   1  25
TORSDOF 7
ENDMDL
MODEL 2
REMARK VINA RESULT:      -6.6      3.662      6.170
REMARK  7 active torsions:
REMARK  status: ('A' for Active; 'I' for Inactive)
REMARK    1  A    between atoms: O1_2  and  C2_3 
REMARK    2  A    between atoms: C3_4  and  C4_5 
REMARK    3  A    between atoms: C7_10  and  N2_11 
REMARK    4  A    between atoms: N2_11  and  C8_12 
REMARK    5  A    between atoms: C8_12  and  C9_13 
REMARK    6  A    between atoms: C10_14  and  N3_15 
REMARK    7  A    between atoms: C11_17  and  O3_18 
ROOT
HETATM    1  C4  UNL     1      21.508   2.753  51.425  1.00  0.00     0.087 C 
HETATM    2  O2  UNL     1      22.574   3.398  50.904  1.00  0.00    -0.293 OA
HETATM    3  C5  UNL     1      23.475   2.777  50.101  1.00  0.00     0.173 C 
HETATM    4  N1  UNL     1      24.478   2.742  50.983  1.00  0.00    -0.237 NA
HETATM    5  C6  UNL     1      24.425   1.857  52.038  1.00  0.00     0.151 C 
HETATM    6  C7  UNL     1      23.762   0.732  52.565  1.00  0.00     0.079 C 
HETATM    7  C11 UNL     1      22.453   0.377  52.779  1.00  0.00     0.096 C 
HETATM    8  C13 UNL     1      21.351   0.256  51.959  1.00  0.00     0.050 C 
HETATM    9  C14 UNL     1      21.448   1.393  51.191  1.00  0.00     0.006 C 
HETATM   10  C15 UNL     1      21.517   0.778  49.824  1.00  0.00     0.311 C 
HETATM   11  N4  UNL     1      21.685   1.771  48.806  1.00  0.00     0.095 N 
HETATM   12  C16 UNL     1      22.931   2.474  48.758  1.00  0.00     0.356 C 
HETATM   13  H19 UNL     1      21.441   1.344  47.884  1.00  0.00     0.316 HD
ENDROOT
BRANCH   6  14
HETATM   14  N2  UNL     1      24.757  -0.246  52.961  1.00  0.00    -0.383 N 
HETATM   15  H7  UNL     1      24.836  -1.169  52.434  1.00  0.00     0.160 HD
BRANCH  14  16
HETATM   16  C8  UNL     1      25.728  -0.159  54.030  1.00  0.00     0.150 C 
BRANCH  16  17
HETATM   17  C9  UNL     1      27.066  -0.640  53.686  1.00  0.00     0.029 C 
HETATM   18  C10 UNL     1      28.193  -0.055  54.101  1.00  0.00     0.071 C 
HETATM   19 BR1  UNL     1      29.861  -0.828  53.550  1.00  0.00    -0.032 Br
BRANCH  18  20
HETATM   20  N3  UNL     1      27.787   1.053  54.888  1.00  0.00    -0.394 N 
HETATM   21  H11 UNL     1      27.077   0.948  55.658  1.00  0.00     0.156 HD
HETATM   22  H12 UNL     1      28.291   1.904  54.574  1.00  0.00     0.156 HD
ENDBRANCH  18  20
ENDBRANCH  16  17
ENDBRANCH  14  16
ENDBRANCH   6  14
BRANCH   7  23
HETATM   23  O3  UNL     1      22.142   0.074  54.060  1.00  0.00    -0.354 OA
HETATM   24  C12 UNL     1      21.645  -1.076  54.639  1.00  0.00     0.210 C 
ENDBRANCH   7  23
BRANCH   1  25
HETATM   25  C3  UNL     1      20.576   3.577  52.154  1.00  0.00     0.062 C 
HETATM   26  C2  UNL     1      19.331   3.383  51.800  1.00  0.00     0.137 C 
BRANCH  26  27
HETATM   27  O1  UNL     1      18.011   3.693  51.952  1.00  0.00    -0.368 OA
HETATM   28  C1  UNL     1      16.896   2.949  51.586  1.00  0.00     0.208 C 
ENDBRANCH  26  27
ENDBRANCH   1  25
TORSDOF 7
ENDMDL
MODEL 3
REMARK VINA RESULT:      -6.5      3.881      6.719
REMARK  7 active torsions:
REMARK  status: ('A' for Active; 'I' for Inactive)
REMARK    1  A    between atoms: O1_2  and  C2_3 
REMARK    2  A    between atoms: C3_4  and  C4_5 
REMARK    3  A    between atoms: C7_10  and  N2_11 
REMARK    4  A    between atoms: N2_11  and  C8_12 
REMARK    5  A    between atoms: C8_12  and  C9_13 
REMARK    6  A    between atoms: C10_14  and  N3_15 
REMARK    7  A    between atoms: C11_17  and  O3_18 
ROOT
HETATM    1  C4  UNL     1      23.170   4.436  49.463  1.00  0.00     0.087 C 
HETATM    2  O2  UNL     1      22.551   3.529  50.249  1.00  0.00    -0.293 OA
HETATM    3  C5  UNL     1      22.721   3.503  51.596  1.00  0.00     0.173 C 
HETATM    4  N1  UNL     1      23.459   2.390  51.641  1.00  0.00    -0.237 NA
HETATM    5  C6  UNL     1      24.771   2.427  51.220  1.00  0.00     0.151 C 
HETATM    6  C7  UNL     1      25.842   3.267  50.861  1.00  0.00     0.079 C 
HETATM    7  C11 UNL     1      26.006   4.341  50.022  1.00  0.00     0.096 C 
HETATM    8  C13 UNL     1      25.410   5.580  49.930  1.00  0.00     0.050 C 
HETATM    9  C14 UNL     1      24.081   5.263  50.091  1.00  0.00     0.006 C 
HETATM   10  C15 UNL     1      23.757   6.099  51.293  1.00  0.00     0.311 C 
HETATM   11  N4  UNL     1      22.404   5.906  51.722  1.00  0.00     0.095 N 
HETATM   12  C16 UNL     1      22.055   4.635  52.279  1.00  0.00     0.356 C 
HETATM   13  H19 UNL     1      22.142   6.696  52.354  1.00  0.00     0.316 HD
ENDROOT
BRANCH   6  14
HETATM   14  N2  UNL     1      27.024   2.840  51.585  1.00  0.00    -0.383 N 
HETATM   15  H7  UNL     1      27.987   2.948  51.143  1.00  0.00     0.160 HD
BRANCH  14  16
HETATM   16  C8  UNL     1      27.107   2.251  52.904  1.00  0.00     0.150 C 
BRANCH  16  17
HETATM   17  C9  UNL     1      27.880   1.011  52.976  1.00  0.00     0.029 C 
HETATM   18  C10 UNL     1      29.015   0.884  53.668  1.00  0.00     0.071 C 
HETATM   19 BR1  UNL     1      29.893  -0.822  53.648  1.00  0.00    -0.032 Br
BRANCH  18  20
HETATM   20  N3  UNL     1      29.252   2.152  54.259  1.00  0.00    -0.394 N 
HETATM   21  H11 UNL     1      30.226   2.538  54.358  1.00  0.00     0.156 HD
HETATM   22  H12 UNL     1      28.348   2.574  54.544  1.00  0.00     0.156 HD
ENDBRANCH  18  20
ENDBRANCH  16  17
ENDBRANCH  14  16
ENDBRANCH   6  14
BRANCH   7  23
HETATM   23  O3  UNL     1      26.952   4.184  49.067  1.00  0.00    -0.354 OA
HETATM   24  C12 UNL     1      27.868   5.063  48.525  1.00  0.00     0.210 C 
ENDBRANCH   7  23
BRANCH   1  25
HETATM   25  C3  UNL     1      22.791   4.415  48.071  1.00  0.00     0.062 C 
HETATM   26  C2  UNL     1      21.732   3.681  47.839  1.00  0.00     0.137 C 
BRANCH  26  27
HETATM   27  O1  UNL     1      20.829   3.183  46.946  1.00  0.00    -0.368 OA
HETATM   28  C1  UNL     1      19.442   3.249  46.984  1.00  0.00     0.208 C 
ENDBRANCH  26  27
ENDBRANCH   1  25
TORSDOF 7
ENDMDL
MODEL 4
REMARK VINA RESULT:      -6.4      3.401      5.976
REMARK  7 active torsions:
REMARK  status: ('A' for Active; 'I' for Inactive)
REMARK    1  A    between atoms: O1_2  and  C2_3 
REMARK    2  A    between atoms: C3_4  and  C4_5 
REMARK    3  A    between atoms: C7_10  and  N2_11 
REMARK    4  A    between atoms: N2_11  and  C8_12 
REMARK    5  A    between atoms: C8_12  and  C9_13 
REMARK    6  A    between atoms: C10_14  and  N3_15 
REMARK    7  A    between atoms: C11_17  and  O3_18 
ROOT
HETATM    1  C4  UNL     1      21.462   3.011  51.792  1.00  0.00     0.087 C 
HETATM    2  O2  UNL     1      21.627   4.214  52.384  1.00  0.00    -0.293 OA
HETATM    3  C5  UNL     1      22.557   5.108  51.961  1.00  0.00     0.173 C 
HETATM    4  N1  UNL     1      23.391   4.972  52.996  1.00  0.00    -0.237 NA
HETATM    5  C6  UNL     1      24.162   3.835  53.104  1.00  0.00     0.151 C 
HETATM    6  C7  UNL     1      24.616   2.684  52.433  1.00  0.00     0.079 C 
HETATM    7  C11 UNL     1      24.030   1.682  51.700  1.00  0.00     0.096 C 
HETATM    8  C13 UNL     1      23.254   1.661  50.561  1.00  0.00     0.050 C 
HETATM    9  C14 UNL     1      22.374   2.690  50.805  1.00  0.00     0.006 C 
HETATM   10  C15 UNL     1      22.655   3.560  49.615  1.00  0.00     0.311 C 
HETATM   11  N4  UNL     1      21.888   4.769  49.652  1.00  0.00     0.095 N 
HETATM   12  C16 UNL     1      22.204   5.730  50.664  1.00  0.00     0.356 C 
HETATM   13  H19 UNL     1      21.892   5.192  48.696  1.00  0.00     0.316 HD
ENDROOT
BRANCH   6  14
HETATM   14  N2  UNL     1      26.055   2.593  52.597  1.00  0.00    -0.383 N 
HETATM   15  H7  UNL     1      26.699   2.825  51.781  1.00  0.00     0.160 HD
BRANCH  14  16
HETATM   16  C8  UNL     1      26.803   2.212  53.775  1.00  0.00     0.150 C 
BRANCH  16  17
HETATM   17  C9  UNL     1      27.597   0.992  53.630  1.00  0.00     0.029 C 
HETATM   18  C10 UNL     1      28.914   0.935  53.848  1.00  0.00     0.071 C 
HETATM   19 BR1  UNL     1      29.791  -0.755  53.609  1.00  0.00    -0.032 Br
BRANCH  18  20
HETATM   20  N3  UNL     1      29.302   2.248  54.221  1.00  0.00    -0.394 N 
HETATM   21  H11 UNL     1      30.180   2.688  53.844  1.00  0.00     0.156 HD
HETATM   22  H12 UNL     1      28.602   2.640  54.880  1.00  0.00     0.156 HD
ENDBRANCH  18  20
ENDBRANCH  16  17
ENDBRANCH  14  16
ENDBRANCH   6  14
BRANCH   7  23
HETATM   23  O3  UNL     1      24.241   0.430  52.168  1.00  0.00    -0.354 OA
HETATM   24  C12 UNL     1      23.949  -0.161  53.381  1.00  0.00     0.210 C 
ENDBRANCH   7  23
BRANCH   1  25
HETATM   25  C3  UNL     1      20.353   2.227  52.275  1.00  0.00     0.062 C 
HETATM   26  C2  UNL     1      20.696   1.368  53.202  1.00  0.00     0.137 C 
BRANCH  26  27
HETATM   27  O1  UNL     1      20.334   0.382  54.072  1.00  0.00    -0.368 OA
HETATM   28  C1  UNL     1      20.371  -0.995  53.890  1.00  0.00     0.208 C 
ENDBRANCH  26  27
ENDBRANCH   1  25
TORSDOF 7
ENDMDL
MODEL 5
REMARK VINA RESULT:      -6.3      3.473      5.948
REMARK  7 active torsions:
REMARK  status: ('A' for Active; 'I' for Inactive)
REMARK    1  A    between atoms: O1_2  and  C2_3 
REMARK    2  A    between atoms: C3_4  and  C4_5 
REMARK    3  A    between atoms: C7_10  and  N2_11 
REMARK    4  A    between atoms: N2_11  and  C8_12 
REMARK    5  A    between atoms: C8_12  and  C9_13 
REMARK    6  A    between atoms: C10_14  and  N3_15 
REMARK    7  A    between atoms: C11_17  and  O3_18 
ROOT
HETATM    1  C4  UNL     1      22.755   1.464  51.792  1.00  0.00     0.087 C 
HETATM    2  O2  UNL     1      21.751   1.675  52.673  1.00  0.00    -0.293 OA
HETATM    3  C5  UNL     1      20.508   2.051  52.277  1.00  0.00     0.173 C 
HETATM    4  N1  UNL     1      20.575   3.310  52.718  1.00  0.00    -0.237 NA
HETATM    5  C6  UNL     1      21.346   4.229  52.039  1.00  0.00     0.151 C 
HETATM    6  C7  UNL     1      22.059   4.480  50.852  1.00  0.00     0.079 C 
HETATM    7  C11 UNL     1      23.001   3.806  50.113  1.00  0.00     0.096 C 
HETATM    8  C13 UNL     1      23.030   2.571  49.502  1.00  0.00     0.050 C 
HETATM    9  C14 UNL     1      22.479   1.767  50.474  1.00  0.00     0.006 C 
HETATM   10  C15 UNL     1      21.310   1.208  49.717  1.00  0.00     0.311 C 
HETATM   11  N4  UNL     1      20.507   0.355  50.540  1.00  0.00     0.095 N 
HETATM   12  C16 UNL     1      19.767   0.959  51.606  1.00  0.00     0.356 C 
HETATM   13  H19 UNL     1      19.897  -0.224  49.919  1.00  0.00     0.316 HD
ENDROOT
BRANCH   6  14
HETATM   14  N2  UNL     1      21.659   5.777  50.340  1.00  0.00    -0.383 N 
HETATM   15  H7  UNL     1      21.085   5.842  49.445  1.00  0.00     0.160 HD
BRANCH  14  16
HETATM   16  C8  UNL     1      21.936   7.085  50.892  1.00  0.00     0.150 C 
BRANCH  16  17
HETATM   17  C9  UNL     1      23.017   7.816  50.230  1.00  0.00     0.029 C 
HETATM   18  C10 UNL     1      24.272   7.856  50.687  1.00  0.00     0.071 C 
HETATM   19 BR1  UNL     1      25.559   8.866  49.684  1.00  0.00    -0.032 Br
BRANCH  18  20
HETATM   20  N3  UNL     1      24.278   7.076  51.872  1.00  0.00    -0.394 N 
HETATM   21  H11 UNL     1      25.005   6.333  52.036  1.00  0.00     0.156 HD
HETATM   22  H12 UNL     1      23.490   7.368  52.481  1.00  0.00     0.156 HD
ENDBRANCH  18  20
ENDBRANCH  16  17
ENDBRANCH  14  16
ENDBRANCH   6  14
BRANCH   7  23
HETATM   23  O3  UNL     1      24.164   4.471  49.922  1.00  0.00    -0.354 OA
HETATM   24  C12 UNL     1      25.475   4.123  50.179  1.00  0.00     0.210 C 
ENDBRANCH   7  23
BRANCH   1  25
HETATM   25  C3  UNL     1      23.978   0.949  52.356  1.00  0.00     0.062 C 
HETATM   26  C2  UNL     1      24.647   1.845  53.037  1.00  0.00     0.137 C 
BRANCH  26  27
HETATM   27  O1  UNL     1      25.740   2.166  53.787  1.00  0.00    -0.368 OA
HETATM   28  C1  UNL     1      26.855   1.388  54.077  1.00  0.00     0.208 C 
ENDBRANCH  26  27
ENDBRANCH   1  25
TORSDOF 7
ENDMDL
MODEL 6
REMARK VINA RESULT:      -6.0      3.516      6.040
REMARK  7 active torsions:
REMARK  status: ('A' for Active; 'I' for Inactive)
REMARK    1  A    between atoms: O1_2  and  C2_3 
REMARK    2  A    between atoms: C3_4  and  C4_5 
REMARK    3  A    between atoms: C7_10  and  N2_11 
REMARK    4  A    between atoms: N2_11  and  C8_12 
REMARK    5  A    between atoms: C8_12  and  C9_13 
REMARK    6  A    between atoms: C10_14  and  N3_15 
REMARK    7  A    between atoms: C11_17  and  O3_18 
ROOT
HETATM    1  C4  UNL     1      21.359   1.019  51.307  1.00  0.00     0.087 C 
HETATM    2  O2  UNL     1      20.111   1.533  51.247  1.00  0.00    -0.293 OA
HETATM    3  C5  UNL     1      19.786   2.550  50.410  1.00  0.00     0.173 C 
HETATM    4  N1  UNL     1      19.658   3.494  51.348  1.00  0.00    -0.237 NA
HETATM    5  C6  UNL     1      20.785   4.010  51.951  1.00  0.00     0.151 C 
HETATM    6  C7  UNL     1      22.189   4.091  51.890  1.00  0.00     0.079 C 
HETATM    7  C11 UNL     1      23.217   3.192  51.748  1.00  0.00     0.096 C 
HETATM    8  C13 UNL     1      23.540   2.254  50.791  1.00  0.00     0.050 C 
HETATM    9  C14 UNL     1      22.318   1.667  50.553  1.00  0.00     0.006 C 
HETATM   10  C15 UNL     1      22.185   1.930  49.082  1.00  0.00     0.311 C 
HETATM   11  N4  UNL     1      20.934   1.456  48.572  1.00  0.00     0.095 N 
HETATM   12  C16 UNL     1      19.744   2.132  48.991  1.00  0.00     0.356 C 
HETATM   13  H19 UNL     1      21.003   1.395  47.531  1.00  0.00     0.316 HD
ENDROOT
BRANCH   6  14
HETATM   14  N2  UNL     1      22.576   5.483  52.015  1.00  0.00    -0.383 N 
HETATM   15  H7  UNL     1      22.611   5.942  52.976  1.00  0.00     0.160 HD
BRANCH  14  16
HETATM   16  C8  UNL     1      22.948   6.411  50.968  1.00  0.00     0.150 C 
BRANCH  16  17
HETATM   17  C9  UNL     1      24.003   5.936  50.074  1.00  0.00     0.029 C 
HETATM   18  C10 UNL     1      25.261   6.386  50.107  1.00  0.00     0.071 C 
HETATM   19 BR1  UNL     1      26.512   5.647  48.855  1.00  0.00    -0.032 Br
BRANCH  18  20
HETATM   20  N3  UNL     1      25.298   7.355  51.143  1.00  0.00    -0.394 N 
HETATM   21  H11 UNL     1      26.142   7.463  51.763  1.00  0.00     0.156 HD
HETATM   22  H12 UNL     1      24.403   7.881  51.157  1.00  0.00     0.156 HD
ENDBRANCH  18  20
ENDBRANCH  16  17
ENDBRANCH  14  16
ENDBRANCH   6  14
BRANCH   7  23
HETATM   23  O3  UNL     1      24.131   3.203  52.746  1.00  0.00    -0.354 OA
HETATM   24  C12 UNL     1      25.037   2.254  53.175  1.00  0.00     0.210 C 
ENDBRANCH   7  23
BRANCH   1  25
HETATM   25  C3  UNL     1      21.516  -0.139  52.152  1.00  0.00     0.062 C 
HETATM   26  C2  UNL     1      21.746   0.167  53.404  1.00  0.00     0.137 C 
BRANCH  26  27
HETATM   27  O1  UNL     1      21.983  -0.245  54.683  1.00  0.00    -0.368 OA
HETATM   28  C1  UNL     1      22.363  -1.503  55.134  1.00  0.00     0.208 C 
ENDBRANCH  26  27
ENDBRANCH   1  25
TORSDOF 7
ENDMDL
MODEL 7
REMARK VINA RESULT:      -6.0      1.797      1.989
REMARK  7 active torsions:
REMARK  status: ('A' for Active; 'I' for Inactive)
REMARK    1  A    between atoms: O1_2  and  C2_3 
REMARK    2  A    between atoms: C3_4  and  C4_5 
REMARK    3  A    between atoms: C7_10  and  N2_11 
REMARK    4  A    between atoms: N2_11  and  C8_12 
REMARK    5  A    between atoms: C8_12  and  C9_13 
REMARK    6  A    between atoms: C10_14  and  N3_15 
REMARK    7  A    between atoms: C11_17  and  O3_18 
ROOT
HETATM    1  C4  UNL     1      24.962   3.146  51.698  1.00  0.00     0.087 C 
HETATM    2  O2  UNL     1      25.290   3.892  50.620  1.00  0.00    -0.293 OA
HETATM    3  C5  UNL     1      24.446   4.816  50.095  1.00  0.00     0.173 C 
HETATM    4  N1  UNL     1      24.137   4.138  48.987  1.00  0.00    -0.237 NA
HETATM    5  C6  UNL     1      23.299   3.047  49.069  1.00  0.00     0.151 C 
HETATM    6  C7  UNL     1      22.400   2.345  49.894  1.00  0.00     0.079 C 
HETATM    7  C11 UNL     1      22.418   1.870  51.182  1.00  0.00     0.096 C 
HETATM    8  C13 UNL     1      22.604   2.460  52.414  1.00  0.00     0.050 C 
HETATM    9  C14 UNL     1      23.671   3.292  52.166  1.00  0.00     0.006 C 
HETATM   10  C15 UNL     1      23.062   4.613  52.534  1.00  0.00     0.311 C 
HETATM   11  N4  UNL     1      23.972   5.695  52.308  1.00  0.00     0.095 N 
HETATM   12  C16 UNL     1      24.306   6.015  50.953  1.00  0.00     0.356 C 
HETATM   13  H19 UNL     1      23.628   6.531  52.834  1.00  0.00     0.316 HD
ENDROOT
BRANCH   6  14
HETATM   14  N2  UNL     1      21.185   2.093  49.141  1.00  0.00    -0.383 N 
HETATM   15  H7  UNL     1      21.238   1.616  48.190  1.00  0.00     0.160 HD
BRANCH  14  16
HETATM   16  C8  UNL     1      19.821   2.409  49.504  1.00  0.00     0.150 C 
BRANCH  16  17
HETATM   17  C9  UNL     1      19.038   1.275  49.998  1.00  0.00     0.029 C 
HETATM   18  C10 UNL     1      18.533   1.206  51.232  1.00  0.00     0.071 C 
HETATM   19 BR1  UNL     1      17.530  -0.361  51.704  1.00  0.00    -0.032 Br
BRANCH  18  20
HETATM   20  N3  UNL     1      18.919   2.409  51.877  1.00  0.00    -0.394 N 
HETATM   21  H11 UNL     1      19.407   2.399  52.810  1.00  0.00     0.156 HD
HETATM   22  H12 UNL     1      18.644   3.219  51.290  1.00  0.00     0.156 HD
ENDBRANCH  18  20
ENDBRANCH  16  17
ENDBRANCH  14  16
ENDBRANCH   6  14
BRANCH   7  23
HETATM   23  O3  UNL     1      22.210   0.539  51.306  1.00  0.00    -0.354 OA
HETATM   24  C12 UNL     1      21.781  -0.231  52.368  1.00  0.00     0.210 C 
ENDBRANCH   7  23
BRANCH   1  25
HETATM   25  C3  UNL     1      26.010   2.299  52.211  1.00  0.00     0.062 C 
HETATM   26  C2  UNL     1      25.954   2.141  53.510  1.00  0.00     0.137 C 
BRANCH  26  27
HETATM   27  O1  UNL     1      26.474   1.588  54.643  1.00  0.00    -0.368 OA
HETATM   28  C1  UNL     1      26.693   0.247  54.933  1.00  0.00     0.208 C 
ENDBRANCH  26  27
ENDBRANCH   1  25
TORSDOF 7
ENDMDL
MODEL 8
REMARK VINA RESULT:      -5.9      9.709     11.759
REMARK  7 active torsions:
REMARK  status: ('A' for Active; 'I' for Inactive)
REMARK    1  A    between atoms: O1_2  and  C2_3 
REMARK    2  A    between atoms: C3_4  and  C4_5 
REMARK    3  A    between atoms: C7_10  and  N2_11 
REMARK    4  A    between atoms: N2_11  and  C8_12 
REMARK    5  A    between atoms: C8_12  and  C9_13 
REMARK    6  A    between atoms: C10_14  and  N3_15 
REMARK    7  A    between atoms: C11_17  and  O3_18 
ROOT
HETATM    1  C4  UNL     1      33.091   6.011  46.334  1.00  0.00     0.087 C 
HETATM    2  O2  UNL     1      34.094   6.709  46.911  1.00  0.00    -0.293 OA
HETATM    3  C5  UNL     1      34.327   6.671  48.247  1.00  0.00     0.173 C 
HETATM    4  N1  UNL     1      33.897   7.907  48.519  1.00  0.00    -0.237 NA
HETATM    5  C6  UNL     1      32.545   8.174  48.504  1.00  0.00     0.151 C 
HETATM    6  C7  UNL     1      31.258   7.604  48.472  1.00  0.00     0.079 C 
HETATM    7  C11 UNL     1      30.628   6.651  47.709  1.00  0.00     0.096 C 
HETATM    8  C13 UNL     1      30.885   5.326  47.433  1.00  0.00     0.050 C 
HETATM    9  C14 UNL     1      32.240   5.348  47.196  1.00  0.00     0.006 C 
HETATM   10  C15 UNL     1      32.703   4.376  48.242  1.00  0.00     0.311 C 
HETATM   11  N4  UNL     1      34.129   4.252  48.252  1.00  0.00     0.095 N 
HETATM   12  C16 UNL     1      34.895   5.379  48.692  1.00  0.00     0.356 C 
HETATM   13  H19 UNL     1      34.381   3.381  48.772  1.00  0.00     0.316 HD
ENDROOT
BRANCH   6  14
HETATM   14  N2  UNL     1      30.458   8.213  49.516  1.00  0.00    -0.383 N 
HETATM   15  H7  UNL     1      30.181   7.646  50.375  1.00  0.00     0.160 HD
BRANCH  14  16
HETATM   16  C8  UNL     1      29.941   9.563  49.582  1.00  0.00     0.150 C 
BRANCH  16  17
HETATM   17  C9  UNL     1      28.640   9.755  48.941  1.00  0.00     0.029 C 
HETATM   18  C10 UNL     1      27.476   9.685  49.593  1.00  0.00     0.071 C 
HETATM   19 BR1  UNL     1      25.867   9.965  48.587  1.00  0.00    -0.032 Br
BRANCH  18  20
HETATM   20  N3  UNL     1      27.805   9.401  50.943  1.00  0.00    -0.394 N 
HETATM   21  H11 UNL     1      28.800   9.440  51.286  1.00  0.00     0.156 HD
HETATM   22  H12 UNL     1      26.940   9.170  51.468  1.00  0.00     0.156 HD
ENDBRANCH  18  20
ENDBRANCH  16  17
ENDBRANCH  14  16
ENDBRANCH   6  14
BRANCH   7  23
HETATM   23  O3  UNL     1      29.507   7.072  47.078  1.00  0.00    -0.354 OA
HETATM   24  C12 UNL     1      29.321   7.843  45.948  1.00  0.00     0.210 C 
ENDBRANCH   7  23
BRANCH   1  25
HETATM   25  C3  UNL     1      33.050   6.055  44.893  1.00  0.00     0.062 C 
HETATM   26  C2  UNL     1      33.714   5.077  44.330  1.00  0.00     0.137 C 
BRANCH  26  27
HETATM   27  O1  UNL     1      34.132   4.453  43.192  1.00  0.00    -0.368 OA
HETATM   28  C1  UNL     1      33.829   4.759  41.871  1.00  0.00     0.208 C 
ENDBRANCH  26  27
ENDBRANCH   1  25
TORSDOF 7
ENDMDL
MODEL 9
REMARK VINA RESULT:      -5.9      4.095      6.694
REMARK  7 active torsions:
REMARK  status: ('A' for Active; 'I' for Inactive)
REMARK    1  A    between atoms: O1_2  and  C2_3 
REMARK    2  A    between atoms: C3_4  and  C4_5 
REMARK    3  A    between atoms: C7_10  and  N2_11 
REMARK    4  A    between atoms: N2_11  and  C8_12 
REMARK    5  A    between atoms: C8_12  and  C9_13 
REMARK    6  A    between atoms: C10_14  and  N3_15 
REMARK    7  A    between atoms: C11_17  and  O3_18 
ROOT
HETATM    1  C4  UNL     1      23.086   3.266  51.871  1.00  0.00     0.087 C 
HETATM    2  O2  UNL     1      22.296   4.245  52.363  1.00  0.00    -0.293 OA
HETATM    3  C5  UNL     1      21.319   4.828  51.622  1.00  0.00     0.173 C 
HETATM    4  N1  UNL     1      21.929   6.005  51.453  1.00  0.00    -0.237 NA
HETATM    5  C6  UNL     1      22.996   6.099  50.586  1.00  0.00     0.151 C 
HETATM    6  C7  UNL     1      23.711   5.446  49.564  1.00  0.00     0.079 C 
HETATM    7  C11 UNL     1      24.253   4.196  49.393  1.00  0.00     0.096 C 
HETATM    8  C13 UNL     1      23.735   2.919  49.421  1.00  0.00     0.050 C 
HETATM    9  C14 UNL     1      22.925   2.971  50.532  1.00  0.00     0.006 C 
HETATM   10  C15 UNL     1      21.607   2.617  49.909  1.00  0.00     0.311 C 
HETATM   11  N4  UNL     1      20.543   2.655  50.867  1.00  0.00     0.095 N 
HETATM   12  C16 UNL     1      20.164   3.931  51.393  1.00  0.00     0.356 C 
HETATM   13  H19 UNL     1      19.726   2.135  50.474  1.00  0.00     0.316 HD
ENDROOT
BRANCH   6  14
HETATM   14  N2  UNL     1      23.885   6.371  48.460  1.00  0.00    -0.383 N 
HETATM   15  H7  UNL     1      23.325   6.241  47.564  1.00  0.00     0.160 HD
BRANCH  14  16
HETATM   16  C8  UNL     1      24.758   7.522  48.381  1.00  0.00     0.150 C 
BRANCH  16  17
HETATM   17  C9  UNL     1      26.104   7.239  47.881  1.00  0.00     0.029 C 
HETATM   18  C10 UNL     1      27.190   7.203  48.657  1.00  0.00     0.071 C 
HETATM   19 BR1  UNL     1      28.875   6.815  47.825  1.00  0.00    -0.032 Br
BRANCH  18  20
HETATM   20  N3  UNL     1      26.737   7.485  49.972  1.00  0.00    -0.394 N 
HETATM   21  H11 UNL     1      27.384   7.879  50.702  1.00  0.00     0.156 HD
HETATM   22  H12 UNL     1      25.730   7.244  50.049  1.00  0.00     0.156 HD
ENDBRANCH  18  20
ENDBRANCH  16  17
ENDBRANCH  14  16
ENDBRANCH   6  14
BRANCH   7  23
HETATM   23  O3  UNL     1      25.582   4.177  49.139  1.00  0.00    -0.354 OA
HETATM   24  C12 UNL     1      26.642   3.615  49.823  1.00  0.00     0.210 C 
ENDBRANCH   7  23
BRANCH   1  25
HETATM   25  C3  UNL     1      23.992   2.663  52.818  1.00  0.00     0.062 C 
HETATM   26  C2  UNL     1      23.778   1.382  52.989  1.00  0.00     0.137 C 
BRANCH  26  27
HETATM   27  O1  UNL     1      24.117   0.213  53.605  1.00  0.00    -0.368 OA
HETATM   28  C1  UNL     1      25.382  -0.284  53.891  1.00  0.00     0.208 C 
ENDBRANCH  26  27
ENDBRANCH   1  25
TORSDOF 7
ENDMDL
