MODEL 1
REMARK VINA RESULT:      -7.0      0.000      0.000
REMARK  7 active torsions:
REMARK  status: ('A' for Active; 'I' for Inactive)
REMARK    1  A    between atoms: C2_2  and  C3_3 
REMARK    2  A    between atoms: C3_3  and  N1_4 
REMARK    3  A    between atoms: C4_5  and  C5_6 
REMARK    4  A    between atoms: N2_7  and  C6_8 
REMARK    5  A    between atoms: C6_8  and  C11_15 
REMARK    6  A    between atoms: C7_9  and  N3_10 
REMARK       I    between atoms: N3_10  and  C8_11 
REMARK    7  A    between atoms: C8_11  and  C9_13 
ROOT
HETATM    1  C6  UNL     1      24.803  -0.375  53.230  1.00  0.00     0.082 C 
HETATM    2  C7  UNL     1      25.653  -0.784  54.154  1.00  0.00     0.123 C 
ENDROOT
BRANCH   1   3
HETATM    3  N2  UNL     1      25.304   0.007  51.962  1.00  0.00    -0.259 NA
HETATM    4  C5  UNL     1      25.477   1.283  51.779  1.00  0.00     0.119 C 
BRANCH   4   5
HETATM    5  C4  UNL     1      25.194   2.310  52.774  1.00  0.00     0.042 C 
HETATM    6  C3  UNL     1      24.340   3.299  52.565  1.00  0.00     0.003 C 
BRANCH   6   7
HETATM    7  C2  UNL     1      23.628   3.409  51.297  1.00  0.00    -0.003 C 
HETATM    8  C1  UNL     1      22.320   3.616  51.320  1.00  0.00     0.033 C 
ENDBRANCH   6   7
BRANCH   6   9
HETATM    9  N1  UNL     1      24.139   4.245  53.607  1.00  0.00    -0.303 NA
HETATM   10  H4  UNL     1      23.248   4.214  54.175  1.00  0.00     0.124 HD
HETATM   11  H5  UNL     1      23.249   4.202  54.163  1.00  0.00     0.124 HD
ENDBRANCH   6   9
ENDBRANCH   4   5
ENDBRANCH   1   3
BRANCH   1  12
HETATM   12  C11 UNL     1      23.371  -0.290  53.434  1.00  0.00    -0.005 A 
HETATM   13  C12 UNL     1      22.767  -0.535  54.661  1.00  0.00     0.014 A 
HETATM   14  C13 UNL     1      21.405  -0.456  54.862  1.00  0.00     0.002 A 
HETATM   15  C14 UNL     1      20.569  -0.121  53.824  1.00  0.00     0.019 A 
HETATM   16  C15 UNL     1      21.109   0.135  52.582  1.00  0.00     0.011 A 
HETATM   17 BR1  UNL     1      19.924   0.592  51.182  1.00  0.00    -0.051 Br
HETATM   18  C16 UNL     1      22.477   0.040  52.439  1.00  0.00     0.032 A 
ENDBRANCH   1  12
BRANCH   2  19
HETATM   19  N3  UNL     1      27.037  -0.821  53.825  1.00  0.00    -0.335 N 
HETATM   20  C8  UNL     1      27.943   0.165  54.353  1.00  0.00     0.221 C 
HETATM   21  O1  UNL     1      27.434   1.042  55.113  1.00  0.00    -0.273 OA
HETATM   22  H9  UNL     1      27.440  -1.546  53.202  1.00  0.00     0.168 HD
BRANCH  20  23
HETATM   23  C9  UNL     1      29.399   0.192  54.055  1.00  0.00     0.098 C 
HETATM   24  C10 UNL     1      29.767  -1.184  53.558  1.00  0.00     0.014 C 
ENDBRANCH  20  23
ENDBRANCH   2  19
TORSDOF 7
ENDMDL
MODEL 2
REMARK VINA RESULT:      -6.7      1.874      3.488
REMARK  7 active torsions:
REMARK  status: ('A' for Active; 'I' for Inactive)
REMARK    1  A    between atoms: C2_2  and  C3_3 
REMARK    2  A    between atoms: C3_3  and  N1_4 
REMARK    3  A    between atoms: C4_5  and  C5_6 
REMARK    4  A    between atoms: N2_7  and  C6_8 
REMARK    5  A    between atoms: C6_8  and  C11_15 
REMARK    6  A    between atoms: C7_9  and  N3_10 
REMARK       I    between atoms: N3_10  and  C8_11 
REMARK    7  A    between atoms: C8_11  and  C9_13 
ROOT
HETATM    1  C6  UNL     1      25.114   1.763  52.731  1.00  0.00     0.082 C 
HETATM    2  C7  UNL     1      25.876   2.342  53.642  1.00  0.00     0.123 C 
ENDROOT
BRANCH   1   3
HETATM    3  N2  UNL     1      25.353   0.406  52.404  1.00  0.00    -0.259 NA
HETATM    4  C5  UNL     1      24.598  -0.465  53.007  1.00  0.00     0.119 C 
BRANCH   4   5
HETATM    5  C4  UNL     1      23.554  -0.135  53.968  1.00  0.00     0.042 C 
HETATM    6  C3  UNL     1      22.266  -0.151  53.665  1.00  0.00     0.003 C 
BRANCH   6   7
HETATM    7  C2  UNL     1      21.823  -0.509  52.323  1.00  0.00    -0.003 C 
HETATM    8  C1  UNL     1      20.864   0.207  51.757  1.00  0.00     0.033 C 
ENDBRANCH   6   7
BRANCH   6   9
HETATM    9  N1  UNL     1      21.332   0.187  54.682  1.00  0.00    -0.303 NA
HETATM   10  H4  UNL     1      20.412  -0.333  54.740  1.00  0.00     0.124 HD
HETATM   11  H5  UNL     1      20.422  -0.338  54.728  1.00  0.00     0.124 HD
ENDBRANCH   6   9
ENDBRANCH   4   5
ENDBRANCH   1   3
BRANCH   1  12
HETATM   12  C11 UNL     1      24.035   2.437  52.037  1.00  0.00    -0.005 A 
HETATM   13  C12 UNL     1      23.170   3.324  52.665  1.00  0.00     0.014 A 
HETATM   14  C13 UNL     1      22.143   3.968  52.010  1.00  0.00     0.002 A 
HETATM   15  C14 UNL     1      21.929   3.750  50.670  1.00  0.00     0.019 A 
HETATM   16  C15 UNL     1      22.755   2.880  49.991  1.00  0.00     0.011 A 
HETATM   17 BR1  UNL     1      22.426   2.609  48.150  1.00  0.00    -0.051 Br
HETATM   18  C16 UNL     1      23.766   2.264  50.697  1.00  0.00     0.032 A 
ENDBRANCH   1  12
BRANCH   2  19
HETATM   19  N3  UNL     1      26.903   1.568  54.250  1.00  0.00    -0.335 N 
HETATM   20  C8  UNL     1      28.267   1.682  53.807  1.00  0.00     0.221 C 
HETATM   21  O1  UNL     1      28.482   2.500  52.864  1.00  0.00    -0.273 OA
HETATM   22  H9  UNL     1      26.711   0.902  55.022  1.00  0.00     0.168 HD
BRANCH  20  23
HETATM   23  C9  UNL     1      29.393   0.907  54.392  1.00  0.00     0.098 C 
HETATM   24  C10 UNL     1      29.460  -0.398  53.638  1.00  0.00     0.014 C 
ENDBRANCH  20  23
ENDBRANCH   2  19
TORSDOF 7
ENDMDL
MODEL 3
REMARK VINA RESULT:      -6.6      3.070      4.646
REMARK  7 active torsions:
REMARK  status: ('A' for Active; 'I' for Inactive)
REMARK    1  A    between atoms: C2_2  and  C3_3 
REMARK    2  A    between atoms: C3_3  and  N1_4 
REMARK    3  A    between atoms: C4_5  and  C5_6 
REMARK    4  A    between atoms: N2_7  and  C6_8 
REMARK    5  A    between atoms: C6_8  and  C11_15 
REMARK    6  A    between atoms: C7_9  and  N3_10 
REMARK       I    between atoms: N3_10  and  C8_11 
REMARK    7  A    between atoms: C8_11  and  C9_13 
ROOT
HETATM    1  C6  UNL     1      25.396   2.259  51.015  1.00  0.00     0.082 C 
HETATM    2  C7  UNL     1      26.670   1.991  51.238  1.00  0.00     0.123 C 
ENDROOT
BRANCH   1   3
HETATM    3  N2  UNL     1      24.410   1.486  51.675  1.00  0.00    -0.259 NA
HETATM    4  C5  UNL     1      23.907   2.008  52.755  1.00  0.00     0.119 C 
BRANCH   4   5
HETATM    5  C4  UNL     1      24.288   3.303  53.306  1.00  0.00     0.042 C 
HETATM    6  C3  UNL     1      23.553   4.393  53.157  1.00  0.00     0.003 C 
BRANCH   6   7
HETATM    7  C2  UNL     1      22.298   4.346  52.416  1.00  0.00    -0.003 C 
HETATM    8  C1  UNL     1      21.958   5.390  51.675  1.00  0.00     0.033 C 
ENDBRANCH   6   7
BRANCH   6   9
HETATM    9  N1  UNL     1      24.020   5.604  53.738  1.00  0.00    -0.303 NA
HETATM   10  H4  UNL     1      23.843   5.793  54.763  1.00  0.00     0.124 HD
HETATM   11  H5  UNL     1      23.837   5.778  54.758  1.00  0.00     0.124 HD
ENDBRANCH   6   9
ENDBRANCH   4   5
ENDBRANCH   1   3
BRANCH   1  12
HETATM   12  C11 UNL     1      24.937   3.307  50.125  1.00  0.00    -0.005 A 
HETATM   13  C12 UNL     1      23.803   3.182  49.332  1.00  0.00     0.014 A 
HETATM   14  C13 UNL     1      23.361   4.174  48.484  1.00  0.00     0.002 A 
HETATM   15  C14 UNL     1      24.046   5.362  48.389  1.00  0.00     0.019 A 
HETATM   16  C15 UNL     1      25.179   5.546  49.152  1.00  0.00     0.011 A 
HETATM   17 BR1  UNL     1      26.091   7.194  48.992  1.00  0.00    -0.051 Br
HETATM   18  C16 UNL     1      25.574   4.519  49.982  1.00  0.00     0.032 A 
ENDBRANCH   1  12
BRANCH   2  19
HETATM   19  N3  UNL     1      26.987   0.934  52.136  1.00  0.00    -0.335 N 
HETATM   20  C8  UNL     1      28.043   1.084  53.103  1.00  0.00     0.221 C 
HETATM   21  O1  UNL     1      28.651   2.195  53.096  1.00  0.00    -0.273 OA
HETATM   22  H9  UNL     1      26.479   0.030  52.129  1.00  0.00     0.168 HD
BRANCH  20  23
HETATM   23  C9  UNL     1      28.431   0.026  54.072  1.00  0.00     0.098 C 
HETATM   24  C10 UNL     1      29.706  -0.592  53.553  1.00  0.00     0.014 C 
ENDBRANCH  20  23
ENDBRANCH   2  19
TORSDOF 7
ENDMDL
MODEL 4
REMARK VINA RESULT:      -6.6      2.270      4.703
REMARK  7 active torsions:
REMARK  status: ('A' for Active; 'I' for Inactive)
REMARK    1  A    between atoms: C2_2  and  C3_3 
REMARK    2  A    between atoms: C3_3  and  N1_4 
REMARK    3  A    between atoms: C4_5  and  C5_6 
REMARK    4  A    between atoms: N2_7  and  C6_8 
REMARK    5  A    between atoms: C6_8  and  C11_15 
REMARK    6  A    between atoms: C7_9  and  N3_10 
REMARK       I    between atoms: N3_10  and  C8_11 
REMARK    7  A    between atoms: C8_11  and  C9_13 
ROOT
HETATM    1  C6  UNL     1      24.590   1.470  52.396  1.00  0.00     0.082 C 
HETATM    2  C7  UNL     1      24.546   2.784  52.519  1.00  0.00     0.123 C 
ENDROOT
BRANCH   1   3
HETATM    3  N2  UNL     1      25.502   0.901  51.473  1.00  0.00    -0.259 NA
HETATM    4  C5  UNL     1      26.718   0.736  51.904  1.00  0.00     0.119 C 
BRANCH   4   5
HETATM    5  C4  UNL     1      27.181   1.092  53.240  1.00  0.00     0.042 C 
HETATM    6  C3  UNL     1      28.048   0.359  53.920  1.00  0.00     0.003 C 
BRANCH   6   7
HETATM    7  C2  UNL     1      28.593  -0.867  53.348  1.00  0.00    -0.003 C 
HETATM    8  C1  UNL     1      29.871  -1.147  53.548  1.00  0.00     0.033 C 
ENDBRANCH   6   7
BRANCH   6   9
HETATM    9  N1  UNL     1      28.432   0.801  55.215  1.00  0.00    -0.303 NA
HETATM   10  H4  UNL     1      28.598   1.832  55.387  1.00  0.00     0.124 HD
HETATM   11  H5  UNL     1      28.594   1.828  55.372  1.00  0.00     0.124 HD
ENDBRANCH   6   9
ENDBRANCH   4   5
ENDBRANCH   1   3
BRANCH   1  12
HETATM   12  C11 UNL     1      23.755   0.561  53.155  1.00  0.00    -0.005 A 
HETATM   13  C12 UNL     1      24.256  -0.284  54.137  1.00  0.00     0.014 A 
HETATM   14  C13 UNL     1      23.467  -1.151  54.862  1.00  0.00     0.002 A 
HETATM   15  C14 UNL     1      22.113  -1.213  54.634  1.00  0.00     0.019 A 
HETATM   16  C15 UNL     1      21.556  -0.398  53.672  1.00  0.00     0.011 A 
HETATM   17 BR1  UNL     1      19.691  -0.514  53.390  1.00  0.00    -0.051 Br
HETATM   18  C16 UNL     1      22.394   0.449  52.977  1.00  0.00     0.032 A 
ENDBRANCH   1  12
BRANCH   2  19
HETATM   19  N3  UNL     1      25.422   3.564  51.713  1.00  0.00    -0.335 N 
HETATM   20  C8  UNL     1      24.932   4.241  50.541  1.00  0.00     0.221 C 
HETATM   21  O1  UNL     1      23.700   4.096  50.286  1.00  0.00    -0.273 OA
HETATM   22  H9  UNL     1      26.429   3.674  51.935  1.00  0.00     0.168 HD
BRANCH  20  23
HETATM   23  C9  UNL     1      25.785   5.072  49.651  1.00  0.00     0.098 C 
HETATM   24  C10 UNL     1      26.921   4.193  49.191  1.00  0.00     0.014 C 
ENDBRANCH  20  23
ENDBRANCH   2  19
TORSDOF 7
ENDMDL
MODEL 5
REMARK VINA RESULT:      -6.5      3.242      6.406
REMARK  7 active torsions:
REMARK  status: ('A' for Active; 'I' for Inactive)
REMARK    1  A    between atoms: C2_2  and  C3_3 
REMARK    2  A    between atoms: C3_3  and  N1_4 
REMARK    3  A    between atoms: C4_5  and  C5_6 
REMARK    4  A    between atoms: N2_7  and  C6_8 
REMARK    5  A    between atoms: C6_8  and  C11_15 
REMARK    6  A    between atoms: C7_9  and  N3_10 
REMARK       I    between atoms: N3_10  and  C8_11 
REMARK    7  A    between atoms: C8_11  and  C9_13 
ROOT
HETATM    1  C6  UNL     1      25.167   2.558  51.501  1.00  0.00     0.082 C 
HETATM    2  C7  UNL     1      24.330   2.724  52.510  1.00  0.00     0.123 C 
ENDROOT
BRANCH   1   3
HETATM    3  N2  UNL     1      25.672   1.261  51.240  1.00  0.00    -0.259 NA
HETATM    4  C5  UNL     1      26.804   0.967  51.810  1.00  0.00     0.119 C 
BRANCH   4   5
HETATM    5  C4  UNL     1      27.557   1.867  52.674  1.00  0.00     0.042 C 
HETATM    6  C3  UNL     1      28.466   1.444  53.538  1.00  0.00     0.003 C 
BRANCH   6   7
HETATM    7  C2  UNL     1      28.762   0.021  53.666  1.00  0.00    -0.003 C 
HETATM    8  C1  UNL     1      30.013  -0.384  53.510  1.00  0.00     0.033 C 
ENDBRANCH   6   7
BRANCH   6   9
HETATM    9  N1  UNL     1      29.142   2.411  54.331  1.00  0.00    -0.303 NA
HETATM   10  H4  UNL     1      29.861   2.094  55.039  1.00  0.00     0.124 HD
HETATM   11  H5  UNL     1      29.854   2.082  55.030  1.00  0.00     0.124 HD
ENDBRANCH   6   9
ENDBRANCH   4   5
ENDBRANCH   1   3
BRANCH   1  12
HETATM   12  C11 UNL     1      25.606   3.632  50.633  1.00  0.00    -0.005 A 
HETATM   13  C12 UNL     1      26.637   3.486  49.713  1.00  0.00     0.014 A 
HETATM   14  C13 UNL     1      27.060   4.503  48.885  1.00  0.00     0.002 A 
HETATM   15  C14 UNL     1      26.458   5.737  48.939  1.00  0.00     0.019 A 
HETATM   16  C15 UNL     1      25.428   5.944  49.832  1.00  0.00     0.011 A 
HETATM   17 BR1  UNL     1      24.629   7.656  49.874  1.00  0.00    -0.051 Br
HETATM   18  C16 UNL     1      25.048   4.890  50.635  1.00  0.00     0.032 A 
ENDBRANCH   1  12
BRANCH   2  19
HETATM   19  N3  UNL     1      23.978   1.585  53.286  1.00  0.00    -0.335 N 
HETATM   20  C8  UNL     1      22.716   0.921  53.085  1.00  0.00     0.221 C 
HETATM   21  O1  UNL     1      21.964   1.411  52.191  1.00  0.00    -0.273 OA
HETATM   22  H9  UNL     1      24.605   1.195  54.014  1.00  0.00     0.168 HD
BRANCH  20  23
HETATM   23  C9  UNL     1      22.279  -0.272  53.856  1.00  0.00     0.098 C 
HETATM   24  C10 UNL     1      21.034   0.128  54.607  1.00  0.00     0.014 C 
ENDBRANCH  20  23
ENDBRANCH   2  19
TORSDOF 7
ENDMDL
MODEL 6
REMARK VINA RESULT:      -6.5      1.656      1.983
REMARK  7 active torsions:
REMARK  status: ('A' for Active; 'I' for Inactive)
REMARK    1  A    between atoms: C2_2  and  C3_3 
REMARK    2  A    between atoms: C3_3  and  N1_4 
REMARK    3  A    between atoms: C4_5  and  C5_6 
REMARK    4  A    between atoms: N2_7  and  C6_8 
REMARK    5  A    between atoms: C6_8  and  C11_15 
REMARK    6  A    between atoms: C7_9  and  N3_10 
REMARK       I    between atoms: N3_10  and  C8_11 
REMARK    7  A    between atoms: C8_11  and  C9_13 
ROOT
HETATM    1  C6  UNL     1      24.556   0.556  53.183  1.00  0.00     0.082 C 
HETATM    2  C7  UNL     1      25.479  -0.171  52.579  1.00  0.00     0.123 C 
ENDROOT
BRANCH   1   3
HETATM    3  N2  UNL     1      24.920   1.817  53.714  1.00  0.00    -0.259 NA
HETATM    4  C5  UNL     1      24.671   2.846  52.958  1.00  0.00     0.119 C 
BRANCH   4   5
HETATM    5  C4  UNL     1      24.058   2.776  51.637  1.00  0.00     0.042 C 
HETATM    6  C3  UNL     1      24.730   2.992  50.519  1.00  0.00     0.003 C 
BRANCH   6   7
HETATM    7  C2  UNL     1      26.151   3.318  50.559  1.00  0.00    -0.003 C 
HETATM    8  C1  UNL     1      26.699   3.904  49.505  1.00  0.00     0.033 C 
ENDBRANCH   6   7
BRANCH   6   9
HETATM    9  N1  UNL     1      24.032   2.897  49.284  1.00  0.00    -0.303 NA
HETATM   10  H4  UNL     1      24.559   3.014  48.375  1.00  0.00     0.124 HD
HETATM   11  H5  UNL     1      24.569   3.015  48.389  1.00  0.00     0.124 HD
ENDBRANCH   6   9
ENDBRANCH   4   5
ENDBRANCH   1   3
BRANCH   1  12
HETATM   12  C11 UNL     1      23.176   0.139  53.338  1.00  0.00    -0.005 A 
HETATM   13  C12 UNL     1      22.727  -0.593  54.429  1.00  0.00     0.014 A 
HETATM   14  C13 UNL     1      21.416  -0.992  54.582  1.00  0.00     0.002 A 
HETATM   15  C14 UNL     1      20.477  -0.670  53.632  1.00  0.00     0.019 A 
HETATM   16  C15 UNL     1      20.862   0.057  52.526  1.00  0.00     0.011 A 
HETATM   17 BR1  UNL     1      19.540   0.480  51.245  1.00  0.00    -0.051 Br
HETATM   18  C16 UNL     1      22.186   0.429  52.426  1.00  0.00     0.032 A 
ENDBRANCH   1  12
BRANCH   2  19
HETATM   19  N3  UNL     1      26.799   0.354  52.494  1.00  0.00    -0.335 N 
HETATM   20  C8  UNL     1      27.804  -0.029  53.450  1.00  0.00     0.221 C 
HETATM   21  O1  UNL     1      27.439  -0.846  54.347  1.00  0.00    -0.273 OA
HETATM   22  H9  UNL     1      27.083   1.023  51.754  1.00  0.00     0.168 HD
BRANCH  20  23
HETATM   23  C9  UNL     1      29.201   0.477  53.427  1.00  0.00     0.098 C 
HETATM   24  C10 UNL     1      30.102  -0.727  53.555  1.00  0.00     0.014 C 
ENDBRANCH  20  23
ENDBRANCH   2  19
TORSDOF 7
ENDMDL
MODEL 7
REMARK VINA RESULT:      -6.4      3.313      5.518
REMARK  7 active torsions:
REMARK  status: ('A' for Active; 'I' for Inactive)
REMARK    1  A    between atoms: C2_2  and  C3_3 
REMARK    2  A    between atoms: C3_3  and  N1_4 
REMARK    3  A    between atoms: C4_5  and  C5_6 
REMARK    4  A    between atoms: N2_7  and  C6_8 
REMARK    5  A    between atoms: C6_8  and  C11_15 
REMARK    6  A    between atoms: C7_9  and  N3_10 
REMARK       I    between atoms: N3_10  and  C8_11 
REMARK    7  A    between atoms: C8_11  and  C9_13 
ROOT
HETATM    1  C6  UNL     1      25.360   2.999  51.335  1.00  0.00     0.082 C 
HETATM    2  C7  UNL     1      26.280   3.445  50.498  1.00  0.00     0.123 C 
ENDROOT
BRANCH   1   3
HETATM    3  N2  UNL     1      24.287   3.853  51.689  1.00  0.00    -0.259 NA
HETATM    4  C5  UNL     1      23.272   3.855  50.876  1.00  0.00     0.119 C 
BRANCH   4   5
HETATM    5  C4  UNL     1      23.178   3.055  49.661  1.00  0.00     0.042 C 
HETATM    6  C3  UNL     1      22.263   2.116  49.487  1.00  0.00     0.003 C 
BRANCH   6   7
HETATM    7  C2  UNL     1      21.282   1.833  50.529  1.00  0.00    -0.003 C 
HETATM    8  C1  UNL     1      21.116   0.579  50.922  1.00  0.00     0.033 C 
ENDBRANCH   6   7
BRANCH   6   9
HETATM    9  N1  UNL     1      22.263   1.396  48.261  1.00  0.00    -0.303 NA
HETATM   10  H4  UNL     1      22.547   1.886  47.368  1.00  0.00     0.124 HD
HETATM   11  H5  UNL     1      22.547   1.896  47.382  1.00  0.00     0.124 HD
ENDBRANCH   6   9
ENDBRANCH   4   5
ENDBRANCH   1   3
BRANCH   1  12
HETATM   12  C11 UNL     1      25.381   1.674  51.923  1.00  0.00    -0.005 A 
HETATM   13  C12 UNL     1      26.467   0.816  51.812  1.00  0.00     0.014 A 
HETATM   14  C13 UNL     1      26.493  -0.445  52.368  1.00  0.00     0.002 A 
HETATM   15  C14 UNL     1      25.411  -0.914  53.075  1.00  0.00     0.019 A 
HETATM   16  C15 UNL     1      24.303  -0.108  53.220  1.00  0.00     0.011 A 
HETATM   17 BR1  UNL     1      22.838  -0.791  54.198  1.00  0.00    -0.051 Br
HETATM   18  C16 UNL     1      24.333   1.144  52.642  1.00  0.00     0.032 A 
ENDBRANCH   1  12
BRANCH   2  19
HETATM   19  N3  UNL     1      26.142   4.768  49.992  1.00  0.00    -0.335 N 
HETATM   20  C8  UNL     1      27.027   5.258  48.968  1.00  0.00     0.221 C 
HETATM   21  O1  UNL     1      27.911   4.447  48.560  1.00  0.00    -0.273 OA
HETATM   22  H9  UNL     1      25.412   5.420  50.336  1.00  0.00     0.168 HD
BRANCH  20  23
HETATM   23  C9  UNL     1      26.946   6.625  48.391  1.00  0.00     0.098 C 
HETATM   24  C10 UNL     1      25.481   6.934  48.208  1.00  0.00     0.014 C 
ENDBRANCH  20  23
ENDBRANCH   2  19
TORSDOF 7
ENDMDL
MODEL 8
REMARK VINA RESULT:      -6.3      2.996      5.290
REMARK  7 active torsions:
REMARK  status: ('A' for Active; 'I' for Inactive)
REMARK    1  A    between atoms: C2_2  and  C3_3 
REMARK    2  A    between atoms: C3_3  and  N1_4 
REMARK    3  A    between atoms: C4_5  and  C5_6 
REMARK    4  A    between atoms: N2_7  and  C6_8 
REMARK    5  A    between atoms: C6_8  and  C11_15 
REMARK    6  A    between atoms: C7_9  and  N3_10 
REMARK       I    between atoms: N3_10  and  C8_11 
REMARK    7  A    between atoms: C8_11  and  C9_13 
ROOT
HETATM    1  C6  UNL     1      23.894   2.968  51.488  1.00  0.00     0.082 C 
HETATM    2  C7  UNL     1      23.662   4.170  51.985  1.00  0.00     0.123 C 
ENDROOT
BRANCH   1   3
HETATM    3  N2  UNL     1      25.009   2.786  50.634  1.00  0.00    -0.259 NA
HETATM    4  C5  UNL     1      26.129   2.476  51.220  1.00  0.00     0.119 C 
BRANCH   4   5
HETATM    5  C4  UNL     1      26.295   2.309  52.658  1.00  0.00     0.042 C 
HETATM    6  C3  UNL     1      26.654   1.163  53.213  1.00  0.00     0.003 C 
BRANCH   6   7
HETATM    7  C2  UNL     1      26.905  -0.014  52.389  1.00  0.00    -0.003 C 
HETATM    8  C1  UNL     1      26.289  -1.146  52.693  1.00  0.00     0.033 C 
ENDBRANCH   6   7
BRANCH   6   9
HETATM    9  N1  UNL     1      26.788   1.114  54.627  1.00  0.00    -0.303 NA
HETATM   10  H4  UNL     1      27.556   1.667  55.099  1.00  0.00     0.124 HD
HETATM   11  H5  UNL     1      27.556   1.669  55.082  1.00  0.00     0.124 HD
ENDBRANCH   6   9
ENDBRANCH   4   5
ENDBRANCH   1   3
BRANCH   1  12
HETATM   12  C11 UNL     1      23.070   1.809  51.765  1.00  0.00    -0.005 A 
HETATM   13  C12 UNL     1      22.146   1.304  50.858  1.00  0.00     0.014 A 
HETATM   14  C13 UNL     1      21.360   0.202  51.115  1.00  0.00     0.002 A 
HETATM   15  C14 UNL     1      21.463  -0.459  52.315  1.00  0.00     0.019 A 
HETATM   16  C15 UNL     1      22.363  -0.007  53.256  1.00  0.00     0.011 A 
HETATM   17 BR1  UNL     1      22.473  -0.945  54.893  1.00  0.00    -0.051 Br
HETATM   18  C16 UNL     1      23.123   1.100  52.945  1.00  0.00     0.032 A 
ENDBRANCH   1  12
BRANCH   2  19
HETATM   19  N3  UNL     1      24.549   5.225  51.633  1.00  0.00    -0.335 N 
HETATM   20  C8  UNL     1      24.050   6.435  51.035  1.00  0.00     0.221 C 
HETATM   21  O1  UNL     1      22.798   6.491  50.850  1.00  0.00    -0.273 OA
HETATM   22  H9  UNL     1      25.573   5.165  51.792  1.00  0.00     0.168 HD
BRANCH  20  23
HETATM   23  C9  UNL     1      24.914   7.579  50.641  1.00  0.00     0.098 C 
HETATM   24  C10 UNL     1      26.002   7.019  49.760  1.00  0.00     0.014 C 
ENDBRANCH  20  23
ENDBRANCH   2  19
TORSDOF 7
ENDMDL
MODEL 9
REMARK VINA RESULT:      -6.2      3.221      5.866
REMARK  7 active torsions:
REMARK  status: ('A' for Active; 'I' for Inactive)
REMARK    1  A    between atoms: C2_2  and  C3_3 
REMARK    2  A    between atoms: C3_3  and  N1_4 
REMARK    3  A    between atoms: C4_5  and  C5_6 
REMARK    4  A    between atoms: N2_7  and  C6_8 
REMARK    5  A    between atoms: C6_8  and  C11_15 
REMARK    6  A    between atoms: C7_9  and  N3_10 
REMARK       I    between atoms: N3_10  and  C8_11 
REMARK    7  A    between atoms: C8_11  and  C9_13 
ROOT
HETATM    1  C6  UNL     1      23.025   1.038  52.402  1.00  0.00     0.082 C 
HETATM    2  C7  UNL     1      21.993   1.092  53.225  1.00  0.00     0.123 C 
ENDROOT
BRANCH   1   3
HETATM    3  N2  UNL     1      22.783   0.933  51.010  1.00  0.00    -0.259 NA
HETATM    4  C5  UNL     1      22.860   2.043  50.335  1.00  0.00     0.119 C 
BRANCH   4   5
HETATM    5  C4  UNL     1      23.173   3.345  50.910  1.00  0.00     0.042 C 
HETATM    6  C3  UNL     1      24.258   4.031  50.589  1.00  0.00     0.003 C 
BRANCH   6   7
HETATM    7  C2  UNL     1      25.213   3.501  49.622  1.00  0.00    -0.003 C 
HETATM    8  C1  UNL     1      26.415   3.145  50.046  1.00  0.00     0.033 C 
ENDBRANCH   6   7
BRANCH   6   9
HETATM    9  N1  UNL     1      24.464   5.293  51.211  1.00  0.00    -0.303 NA
HETATM   10  H4  UNL     1      23.756   6.066  51.068  1.00  0.00     0.124 HD
HETATM   11  H5  UNL     1      23.753   6.052  51.060  1.00  0.00     0.124 HD
ENDBRANCH   6   9
ENDBRANCH   4   5
ENDBRANCH   1   3
BRANCH   1  12
HETATM   12  C11 UNL     1      24.407   1.081  52.837  1.00  0.00    -0.005 A 
HETATM   13  C12 UNL     1      24.978   2.201  53.427  1.00  0.00     0.014 A 
HETATM   14  C13 UNL     1      26.291   2.249  53.843  1.00  0.00     0.002 A 
HETATM   15  C14 UNL     1      27.109   1.155  53.685  1.00  0.00     0.019 A 
HETATM   16  C15 UNL     1      26.599   0.013  53.107  1.00  0.00     0.011 A 
HETATM   17 BR1  UNL     1      27.756  -1.468  52.909  1.00  0.00    -0.051 Br
HETATM   18  C16 UNL     1      25.279   0.023  52.709  1.00  0.00     0.032 A 
ENDBRANCH   1  12
BRANCH   2  19
HETATM   19  N3  UNL     1      20.685   1.041  52.668  1.00  0.00    -0.335 N 
HETATM   20  C8  UNL     1      19.836  -0.100  52.892  1.00  0.00     0.221 C 
HETATM   21  O1  UNL     1      20.325  -1.028  53.603  1.00  0.00    -0.273 OA
HETATM   22  H9  UNL     1      20.299   1.809  52.088  1.00  0.00     0.168 HD
BRANCH  20  23
HETATM   23  C9  UNL     1      18.461  -0.225  52.344  1.00  0.00     0.098 C 
HETATM   24  C10 UNL     1      17.786  -1.334  53.113  1.00  0.00     0.014 C 
ENDBRANCH  20  23
ENDBRANCH   2  19
TORSDOF 7
ENDMDL
