MODEL 1
REMARK VINA RESULT:      -7.9      0.000      0.000
REMARK  5 active torsions:
REMARK  status: ('A' for Active; 'I' for Inactive)
REMARK    1  A    between atoms: C2_2  and  N1_4 
REMARK    2  A    between atoms: N1_4  and  N2_5 
REMARK    3  A    between atoms: C3_6  and  C4_7 
REMARK    4  A    between atoms: C3_6  and  C12_16 
REMARK    5  A    between atoms: C5_8  and  C6_9 
ROOT
HETATM    1  N2  UNL     1      23.628   2.602  52.612  1.00  0.00    -0.174 NA
HETATM    2  C3  UNL     1      24.002   1.464  53.056  1.00  0.00     0.083 C 
ENDROOT
BRANCH   2   3
HETATM    3  C4  UNL     1      25.280   0.890  53.371  1.00  0.00     0.035 C 
HETATM    4  C5  UNL     1      26.215   0.493  52.545  1.00  0.00     0.015 C 
BRANCH   4   5
HETATM    5  C6  UNL     1      27.493  -0.083  52.926  1.00  0.00    -0.014 A 
HETATM    6  C7  UNL     1      27.790  -1.429  52.905  1.00  0.00     0.013 A 
HETATM    7  C8  UNL     1      28.991  -1.983  53.262  1.00  0.00     0.001 A 
HETATM    8  C9  UNL     1      30.004  -1.148  53.680  1.00  0.00     0.002 A 
HETATM    9  C10 UNL     1      29.762   0.204  53.719  1.00  0.00     0.024 A 
HETATM   10  C11 UNL     1      28.539   0.707  53.350  1.00  0.00     0.044 A 
HETATM   11 CL1  UNL     1      28.329   2.442  53.435  1.00  0.00    -0.083 Cl
ENDBRANCH   4   5
ENDBRANCH   2   3
BRANCH   2  12
HETATM   12  C12 UNL     1      22.802   0.626  53.261  1.00  0.00    -0.024 A 
HETATM   13  C13 UNL     1      21.543   0.829  52.921  1.00  0.00     0.009 A 
HETATM   14  C14 UNL     1      20.638  -0.233  53.296  1.00  0.00    -0.003 A 
HETATM   15  C15 UNL     1      21.409  -1.120  53.898  1.00  0.00    -0.022 A 
HETATM   16  C16 UNL     1      22.820  -0.711  53.954  1.00  0.00     0.068 A 
ENDBRANCH   2  12
BRANCH   1  17
HETATM   17  N1  UNL     1      24.550   3.591  52.328  1.00  0.00    -0.271 N 
HETATM   18  H4  UNL     1      25.233   4.347  52.630  1.00  0.00     0.190 HD
BRANCH  17  19
HETATM   19  C2  UNL     1      24.494   3.460  50.892  1.00  0.00     0.090 C 
HETATM   20  C1  UNL     1      25.769   3.294  50.146  1.00  0.00     0.083 C 
HETATM   21  S1  UNL     1      23.132   3.479  49.993  1.00  0.00    -0.064 SA
ENDBRANCH  17  19
ENDBRANCH   1  17
TORSDOF 5
ENDMDL
MODEL 2
REMARK VINA RESULT:      -7.6      1.475      1.982
REMARK  5 active torsions:
REMARK  status: ('A' for Active; 'I' for Inactive)
REMARK    1  A    between atoms: C2_2  and  N1_4 
REMARK    2  A    between atoms: N1_4  and  N2_5 
REMARK    3  A    between atoms: C3_6  and  C4_7 
REMARK    4  A    between atoms: C3_6  and  C12_16 
REMARK    5  A    between atoms: C5_8  and  C6_9 
ROOT
HETATM    1  N2  UNL     1      22.984   2.083  52.312  1.00  0.00    -0.174 NA
HETATM    2  C3  UNL     1      23.577   1.157  52.962  1.00  0.00     0.083 C 
ENDROOT
BRANCH   2   3
HETATM    3  C4  UNL     1      24.950   0.900  53.298  1.00  0.00     0.035 C 
HETATM    4  C5  UNL     1      25.877   0.351  52.554  1.00  0.00     0.015 C 
BRANCH   4   5
HETATM    5  C6  UNL     1      27.254   0.117  52.952  1.00  0.00    -0.014 A 
HETATM    6  C7  UNL     1      28.115   1.087  53.419  1.00  0.00     0.013 A 
HETATM    7  C8  UNL     1      29.416   0.878  53.799  1.00  0.00     0.001 A 
HETATM    8  C9  UNL     1      29.929  -0.398  53.716  1.00  0.00     0.002 A 
HETATM    9  C10 UNL     1      29.113  -1.402  53.256  1.00  0.00     0.024 A 
HETATM   10  C11 UNL     1      27.816  -1.139  52.889  1.00  0.00     0.044 A 
HETATM   11 CL1  UNL     1      26.857  -2.485  52.316  1.00  0.00    -0.083 Cl
ENDBRANCH   4   5
ENDBRANCH   2   3
BRANCH   2  12
HETATM   12  C12 UNL     1      22.561   0.192  53.431  1.00  0.00    -0.024 A 
HETATM   13  C13 UNL     1      22.688  -0.916  54.137  1.00  0.00     0.009 A 
HETATM   14  C14 UNL     1      21.447  -1.605  54.407  1.00  0.00    -0.003 A 
HETATM   15  C15 UNL     1      20.527  -0.859  53.823  1.00  0.00    -0.022 A 
HETATM   16  C16 UNL     1      21.086   0.327  53.158  1.00  0.00     0.068 A 
ENDBRANCH   2  12
BRANCH   1  17
HETATM   17  N1  UNL     1      23.696   3.127  51.754  1.00  0.00    -0.271 N 
HETATM   18  H4  UNL     1      24.420   3.903  51.814  1.00  0.00     0.190 HD
BRANCH  17  19
HETATM   19  C2  UNL     1      23.097   3.053  50.443  1.00  0.00     0.090 C 
HETATM   20  C1  UNL     1      23.969   3.239  49.254  1.00  0.00     0.083 C 
HETATM   21  S1  UNL     1      21.517   2.779  50.140  1.00  0.00    -0.064 SA
ENDBRANCH  17  19
ENDBRANCH   1  17
TORSDOF 5
ENDMDL
MODEL 3
REMARK VINA RESULT:      -7.4      2.111      5.590
REMARK  5 active torsions:
REMARK  status: ('A' for Active; 'I' for Inactive)
REMARK    1  A    between atoms: C2_2  and  N1_4 
REMARK    2  A    between atoms: N1_4  and  N2_5 
REMARK    3  A    between atoms: C3_6  and  C4_7 
REMARK    4  A    between atoms: C3_6  and  C12_16 
REMARK    5  A    between atoms: C5_8  and  C6_9 
ROOT
HETATM    1  N2  UNL     1      26.671   2.530  50.656  1.00  0.00    -0.174 NA
HETATM    2  C3  UNL     1      26.277   1.802  51.630  1.00  0.00     0.083 C 
ENDROOT
BRANCH   2   3
HETATM    3  C4  UNL     1      25.030   1.169  51.957  1.00  0.00     0.035 C 
HETATM    4  C5  UNL     1      24.592   0.803  53.135  1.00  0.00     0.015 C 
BRANCH   4   5
HETATM    5  C6  UNL     1      23.316   0.163  53.403  1.00  0.00    -0.014 A 
HETATM    6  C7  UNL     1      22.149   0.411  52.711  1.00  0.00     0.013 A 
HETATM    7  C8  UNL     1      20.940  -0.186  52.954  1.00  0.00     0.001 A 
HETATM    8  C9  UNL     1      20.855  -1.115  53.968  1.00  0.00     0.002 A 
HETATM    9  C10 UNL     1      21.988  -1.399  54.691  1.00  0.00     0.024 A 
HETATM   10  C11 UNL     1      23.177  -0.771  54.405  1.00  0.00     0.044 A 
HETATM   11 CL1  UNL     1      24.563  -1.201  55.382  1.00  0.00    -0.083 Cl
ENDBRANCH   4   5
ENDBRANCH   2   3
BRANCH   2  12
HETATM   12  C12 UNL     1      27.405   1.626  52.567  1.00  0.00    -0.024 A 
HETATM   13  C13 UNL     1      28.084   2.512  53.272  1.00  0.00     0.009 A 
HETATM   14  C14 UNL     1      29.136   1.954  54.090  1.00  0.00    -0.003 A 
HETATM   15  C15 UNL     1      29.077   0.656  53.854  1.00  0.00    -0.022 A 
HETATM   16  C16 UNL     1      28.020   0.292  52.900  1.00  0.00     0.068 A 
ENDBRANCH   2  12
BRANCH   1  17
HETATM   17  N1  UNL     1      25.814   2.859  49.623  1.00  0.00    -0.271 N 
HETATM   18  H4  UNL     1      25.063   2.607  48.915  1.00  0.00     0.190 HD
BRANCH  17  19
HETATM   19  C2  UNL     1      26.196   4.247  49.529  1.00  0.00     0.090 C 
HETATM   20  C1  UNL     1      27.482   4.585  48.864  1.00  0.00     0.083 C 
HETATM   21  S1  UNL     1      25.328   5.508  50.097  1.00  0.00    -0.064 SA
ENDBRANCH  17  19
ENDBRANCH   1  17
TORSDOF 5
ENDMDL
MODEL 4
REMARK VINA RESULT:      -7.3      2.802      6.450
REMARK  5 active torsions:
REMARK  status: ('A' for Active; 'I' for Inactive)
REMARK    1  A    between atoms: C2_2  and  N1_4 
REMARK    2  A    between atoms: N1_4  and  N2_5 
REMARK    3  A    between atoms: C3_6  and  C4_7 
REMARK    4  A    between atoms: C3_6  and  C12_16 
REMARK    5  A    between atoms: C5_8  and  C6_9 
ROOT
HETATM    1  N2  UNL     1      26.382   2.066  53.257  1.00  0.00    -0.174 NA
HETATM    2  C3  UNL     1      25.286   2.148  52.605  1.00  0.00     0.083 C 
ENDROOT
BRANCH   2   3
HETATM    3  C4  UNL     1      23.950   1.679  52.842  1.00  0.00     0.035 C 
HETATM    4  C5  UNL     1      23.422   0.530  52.502  1.00  0.00     0.015 C 
BRANCH   4   5
HETATM    5  C6  UNL     1      22.057   0.112  52.772  1.00  0.00    -0.014 A 
HETATM    6  C7  UNL     1      20.965   0.442  51.999  1.00  0.00     0.013 A 
HETATM    7  C8  UNL     1      19.673   0.054  52.242  1.00  0.00     0.001 A 
HETATM    8  C9  UNL     1      19.418  -0.732  53.345  1.00  0.00     0.002 A 
HETATM    9  C10 UNL     1      20.472  -1.090  54.150  1.00  0.00     0.024 A 
HETATM   10  C11 UNL     1      21.748  -0.674  53.860  1.00  0.00     0.044 A 
HETATM   11 CL1  UNL     1      23.022  -1.182  54.946  1.00  0.00    -0.083 Cl
ENDBRANCH   4   5
ENDBRANCH   2   3
BRANCH   2  12
HETATM   12  C12 UNL     1      25.542   2.899  51.358  1.00  0.00    -0.024 A 
HETATM   13  C13 UNL     1      26.595   2.913  50.562  1.00  0.00     0.009 A 
HETATM   14  C14 UNL     1      26.474   3.787  49.418  1.00  0.00    -0.003 A 
HETATM   15  C15 UNL     1      25.276   4.326  49.545  1.00  0.00    -0.022 A 
HETATM   16  C16 UNL     1      24.558   3.856  50.738  1.00  0.00     0.068 A 
ENDBRANCH   2  12
BRANCH   1  17
HETATM   17  N1  UNL     1      26.437   1.411  54.472  1.00  0.00    -0.271 N 
HETATM   18  H4  UNL     1      26.147   1.298  55.489  1.00  0.00     0.190 HD
BRANCH  17  19
HETATM   19  C2  UNL     1      27.371   0.389  54.065  1.00  0.00     0.090 C 
HETATM   20  C1  UNL     1      26.839  -0.848  53.435  1.00  0.00     0.083 C 
HETATM   21  S1  UNL     1      28.993   0.467  54.237  1.00  0.00    -0.064 SA
ENDBRANCH  17  19
ENDBRANCH   1  17
TORSDOF 5
ENDMDL
MODEL 5
REMARK VINA RESULT:      -7.2      2.616      4.213
REMARK  5 active torsions:
REMARK  status: ('A' for Active; 'I' for Inactive)
REMARK    1  A    between atoms: C2_2  and  N1_4 
REMARK    2  A    between atoms: N1_4  and  N2_5 
REMARK    3  A    between atoms: C3_6  and  C4_7 
REMARK    4  A    between atoms: C3_6  and  C12_16 
REMARK    5  A    between atoms: C5_8  and  C6_9 
ROOT
HETATM    1  N2  UNL     1      21.708   1.003  52.575  1.00  0.00    -0.174 NA
HETATM    2  C3  UNL     1      22.820   1.308  52.024  1.00  0.00     0.083 C 
ENDROOT
BRANCH   2   3
HETATM    3  C4  UNL     1      24.169   1.424  52.502  1.00  0.00     0.035 C 
HETATM    4  C5  UNL     1      25.208   0.694  52.182  1.00  0.00     0.015 C 
BRANCH   4   5
HETATM    5  C6  UNL     1      26.553   0.861  52.703  1.00  0.00    -0.014 A 
HETATM    6  C7  UNL     1      27.127   2.070  53.032  1.00  0.00     0.013 A 
HETATM    7  C8  UNL     1      28.394   2.241  53.525  1.00  0.00     0.001 A 
HETATM    8  C9  UNL     1      29.182   1.127  53.716  1.00  0.00     0.002 A 
HETATM    9  C10 UNL     1      28.660  -0.105  53.403  1.00  0.00     0.024 A 
HETATM   10  C11 UNL     1      27.382  -0.219  52.912  1.00  0.00     0.044 A 
HETATM   11 CL1  UNL     1      26.807  -1.831  52.544  1.00  0.00    -0.083 Cl
ENDBRANCH   4   5
ENDBRANCH   2   3
BRANCH   2  12
HETATM   12  C12 UNL     1      22.570   1.582  50.594  1.00  0.00    -0.024 A 
HETATM   13  C13 UNL     1      21.737   1.016  49.741  1.00  0.00     0.009 A 
HETATM   14  C14 UNL     1      21.776   1.563  48.405  1.00  0.00    -0.003 A 
HETATM   15  C15 UNL     1      22.691   2.513  48.468  1.00  0.00    -0.022 A 
HETATM   16  C16 UNL     1      23.289   2.645  49.805  1.00  0.00     0.068 A 
ENDBRANCH   2  12
BRANCH   1  17
HETATM   17  N1  UNL     1      21.644   0.697  53.921  1.00  0.00    -0.271 N 
HETATM   18  H4  UNL     1      21.887   0.891  54.938  1.00  0.00     0.190 HD
BRANCH  17  19
HETATM   19  C2  UNL     1      20.820  -0.480  53.782  1.00  0.00     0.090 C 
HETATM   20  C1  UNL     1      21.348  -1.778  54.279  1.00  0.00     0.083 C 
HETATM   21  S1  UNL     1      19.331  -0.518  53.114  1.00  0.00    -0.064 SA
ENDBRANCH  17  19
ENDBRANCH   1  17
TORSDOF 5
ENDMDL
MODEL 6
REMARK VINA RESULT:      -7.1      2.484      5.227
REMARK  5 active torsions:
REMARK  status: ('A' for Active; 'I' for Inactive)
REMARK    1  A    between atoms: C2_2  and  N1_4 
REMARK    2  A    between atoms: N1_4  and  N2_5 
REMARK    3  A    between atoms: C3_6  and  C4_7 
REMARK    4  A    between atoms: C3_6  and  C12_16 
REMARK    5  A    between atoms: C5_8  and  C6_9 
ROOT
HETATM    1  N2  UNL     1      24.403   3.377  49.570  1.00  0.00    -0.174 NA
HETATM    2  C3  UNL     1      25.626   3.400  49.939  1.00  0.00     0.083 C 
ENDROOT
BRANCH   2   3
HETATM    3  C4  UNL     1      26.415   2.582  50.817  1.00  0.00     0.035 C 
HETATM    4  C5  UNL     1      26.479   2.625  52.124  1.00  0.00     0.015 C 
BRANCH   4   5
HETATM    5  C6  UNL     1      27.301   1.767  52.960  1.00  0.00    -0.014 A 
HETATM    6  C7  UNL     1      28.505   2.133  53.523  1.00  0.00     0.013 A 
HETATM    7  C8  UNL     1      29.288   1.333  54.313  1.00  0.00     0.001 A 
HETATM    8  C9  UNL     1      28.860   0.052  54.583  1.00  0.00     0.002 A 
HETATM    9  C10 UNL     1      27.666  -0.365  54.047  1.00  0.00     0.024 A 
HETATM   10  C11 UNL     1      26.919   0.478  53.261  1.00  0.00     0.044 A 
HETATM   11 CL1  UNL     1      25.413  -0.146  52.625  1.00  0.00    -0.083 Cl
ENDBRANCH   4   5
ENDBRANCH   2   3
BRANCH   2  12
HETATM   12  C12 UNL     1      26.293   4.539  49.274  1.00  0.00    -0.024 A 
HETATM   13  C13 UNL     1      27.527   4.671  48.826  1.00  0.00     0.009 A 
HETATM   14  C14 UNL     1      27.816   5.952  48.224  1.00  0.00    -0.003 A 
HETATM   15  C15 UNL     1      26.683   6.622  48.323  1.00  0.00    -0.022 A 
HETATM   16  C16 UNL     1      25.614   5.849  48.972  1.00  0.00     0.068 A 
ENDBRANCH   2  12
BRANCH   1  17
HETATM   17  N1  UNL     1      23.537   2.409  50.041  1.00  0.00    -0.271 N 
HETATM   18  H4  UNL     1      23.176   1.409  50.066  1.00  0.00     0.190 HD
BRANCH  17  19
HETATM   19  C2  UNL     1      22.799   3.270  50.933  1.00  0.00     0.090 C 
HETATM   20  C1  UNL     1      22.799   2.952  52.385  1.00  0.00     0.083 C 
HETATM   21  S1  UNL     1      21.945   4.587  50.485  1.00  0.00    -0.064 SA
ENDBRANCH  17  19
ENDBRANCH   1  17
TORSDOF 5
ENDMDL
MODEL 7
REMARK VINA RESULT:      -7.1      2.982      6.366
REMARK  5 active torsions:
REMARK  status: ('A' for Active; 'I' for Inactive)
REMARK    1  A    between atoms: C2_2  and  N1_4 
REMARK    2  A    between atoms: N1_4  and  N2_5 
REMARK    3  A    between atoms: C3_6  and  C4_7 
REMARK    4  A    between atoms: C3_6  and  C12_16 
REMARK    5  A    between atoms: C5_8  and  C6_9 
ROOT
HETATM    1  N2  UNL     1      26.820   1.495  52.108  1.00  0.00    -0.174 NA
HETATM    2  C3  UNL     1      25.612   1.713  51.754  1.00  0.00     0.083 C 
ENDROOT
BRANCH   2   3
HETATM    3  C4  UNL     1      24.363   1.056  52.022  1.00  0.00     0.035 C 
HETATM    4  C5  UNL     1      23.648   1.091  53.119  1.00  0.00     0.015 C 
BRANCH   4   5
HETATM    5  C6  UNL     1      22.388   0.402  53.331  1.00  0.00    -0.014 A 
HETATM    6  C7  UNL     1      22.253  -0.823  53.949  1.00  0.00     0.013 A 
HETATM    7  C8  UNL     1      21.069  -1.482  54.155  1.00  0.00     0.001 A 
HETATM    8  C9  UNL     1      19.903  -0.895  53.717  1.00  0.00     0.002 A 
HETATM    9  C10 UNL     1      19.980   0.326  53.092  1.00  0.00     0.024 A 
HETATM   10  C11 UNL     1      21.193   0.944  52.911  1.00  0.00     0.044 A 
HETATM   11 CL1  UNL     1      21.187   2.497  52.105  1.00  0.00    -0.083 Cl
ENDBRANCH   4   5
ENDBRANCH   2   3
BRANCH   2  12
HETATM   12  C12 UNL     1      25.588   2.911  50.890  1.00  0.00    -0.024 A 
HETATM   13  C13 UNL     1      24.673   3.852  50.748  1.00  0.00     0.009 A 
HETATM   14  C14 UNL     1      25.010   4.882  49.793  1.00  0.00    -0.003 A 
HETATM   15  C15 UNL     1      26.197   4.528  49.337  1.00  0.00    -0.022 A 
HETATM   16  C16 UNL     1      26.699   3.287  49.945  1.00  0.00     0.068 A 
ENDBRANCH   2  12
BRANCH   1  17
HETATM   17  N1  UNL     1      27.139   0.429  52.926  1.00  0.00    -0.271 N 
HETATM   18  H4  UNL     1      26.920  -0.519  53.357  1.00  0.00     0.190 HD
BRANCH  17  19
HETATM   19  C2  UNL     1      28.414   0.938  53.370  1.00  0.00     0.090 C 
HETATM   20  C1  UNL     1      28.555   2.401  53.590  1.00  0.00     0.083 C 
HETATM   21  S1  UNL     1      29.744   0.036  53.657  1.00  0.00    -0.064 SA
ENDBRANCH  17  19
ENDBRANCH   1  17
TORSDOF 5
ENDMDL
MODEL 8
REMARK VINA RESULT:      -7.0      3.306      5.783
REMARK  5 active torsions:
REMARK  status: ('A' for Active; 'I' for Inactive)
REMARK    1  A    between atoms: C2_2  and  N1_4 
REMARK    2  A    between atoms: N1_4  and  N2_5 
REMARK    3  A    between atoms: C3_6  and  C4_7 
REMARK    4  A    between atoms: C3_6  and  C12_16 
REMARK    5  A    between atoms: C5_8  and  C6_9 
ROOT
HETATM    1  N2  UNL     1      26.428   0.723  52.432  1.00  0.00    -0.174 NA
HETATM    2  C3  UNL     1      25.680   1.611  51.899  1.00  0.00     0.083 C 
ENDROOT
BRANCH   2   3
HETATM    3  C4  UNL     1      25.937   2.847  51.215  1.00  0.00     0.035 C 
HETATM    4  C5  UNL     1      26.162   3.036  49.938  1.00  0.00     0.015 C 
BRANCH   4   5
HETATM    5  C6  UNL     1      26.416   4.317  49.303  1.00  0.00    -0.014 A 
HETATM    6  C7  UNL     1      27.649   4.747  48.861  1.00  0.00     0.013 A 
HETATM    7  C8  UNL     1      27.901   5.952  48.260  1.00  0.00     0.001 A 
HETATM    8  C9  UNL     1      26.854   6.827  48.071  1.00  0.00     0.002 A 
HETATM    9  C10 UNL     1      25.603   6.449  48.495  1.00  0.00     0.024 A 
HETATM   10  C11 UNL     1      25.404   5.227  49.091  1.00  0.00     0.044 A 
HETATM   11 CL1  UNL     1      23.775   4.838  49.596  1.00  0.00    -0.083 Cl
ENDBRANCH   4   5
ENDBRANCH   2   3
BRANCH   2  12
HETATM   12  C12 UNL     1      24.272   1.197  52.067  1.00  0.00    -0.024 A 
HETATM   13  C13 UNL     1      23.183   1.567  51.420  1.00  0.00     0.009 A 
HETATM   14  C14 UNL     1      21.967   0.933  51.874  1.00  0.00    -0.003 A 
HETATM   15  C15 UNL     1      22.359   0.139  52.853  1.00  0.00    -0.022 A 
HETATM   16  C16 UNL     1      23.808   0.198  53.095  1.00  0.00     0.068 A 
ENDBRANCH   2  12
BRANCH   1  17
HETATM   17  N1  UNL     1      27.804   0.854  52.421  1.00  0.00    -0.271 N 
HETATM   18  H4  UNL     1      28.704   1.240  52.008  1.00  0.00     0.190 HD
BRANCH  17  19
HETATM   19  C2  UNL     1      28.056   0.026  53.576  1.00  0.00     0.090 C 
HETATM   20  C1  UNL     1      27.131   0.126  54.735  1.00  0.00     0.083 C 
HETATM   21  S1  UNL     1      29.290  -1.032  53.730  1.00  0.00    -0.064 SA
ENDBRANCH  17  19
ENDBRANCH   1  17
TORSDOF 5
ENDMDL
MODEL 9
REMARK VINA RESULT:      -6.9      2.361      5.862
REMARK  5 active torsions:
REMARK  status: ('A' for Active; 'I' for Inactive)
REMARK    1  A    between atoms: C2_2  and  N1_4 
REMARK    2  A    between atoms: N1_4  and  N2_5 
REMARK    3  A    between atoms: C3_6  and  C4_7 
REMARK    4  A    between atoms: C3_6  and  C12_16 
REMARK    5  A    between atoms: C5_8  and  C6_9 
ROOT
HETATM    1  N2  UNL     1      24.798   0.484  52.805  1.00  0.00    -0.174 NA
HETATM    2  C3  UNL     1      25.911   0.897  52.333  1.00  0.00     0.083 C 
ENDROOT
BRANCH   2   3
HETATM    3  C4  UNL     1      26.307   2.065  51.598  1.00  0.00     0.035 C 
HETATM    4  C5  UNL     1      25.604   2.757  50.736  1.00  0.00     0.015 C 
BRANCH   4   5
HETATM    5  C6  UNL     1      26.063   3.935  50.022  1.00  0.00    -0.014 A 
HETATM    6  C7  UNL     1      27.163   3.975  49.191  1.00  0.00     0.013 A 
HETATM    7  C8  UNL     1      27.605   5.080  48.511  1.00  0.00     0.001 A 
HETATM    8  C9  UNL     1      26.911   6.262  48.652  1.00  0.00     0.002 A 
HETATM    9  C10 UNL     1      25.807   6.278  49.469  1.00  0.00     0.024 A 
HETATM   10  C11 UNL     1      25.406   5.141  50.128  1.00  0.00     0.044 A 
HETATM   11 CL1  UNL     1      23.988   5.264  51.145  1.00  0.00    -0.083 Cl
ENDBRANCH   4   5
ENDBRANCH   2   3
BRANCH   2  12
HETATM   12  C12 UNL     1      26.953  -0.098  52.659  1.00  0.00    -0.024 A 
HETATM   13  C13 UNL     1      28.160   0.056  53.172  1.00  0.00     0.009 A 
HETATM   14  C14 UNL     1      28.900  -1.171  53.351  1.00  0.00    -0.003 A 
HETATM   15  C15 UNL     1      28.083  -2.112  52.916  1.00  0.00    -0.022 A 
HETATM   16  C16 UNL     1      26.797  -1.580  52.441  1.00  0.00     0.068 A 
ENDBRANCH   2  12
BRANCH   1  17
HETATM   17  N1  UNL     1      23.641   1.223  52.646  1.00  0.00    -0.271 N 
HETATM   18  H4  UNL     1      23.115   2.068  52.274  1.00  0.00     0.190 HD
BRANCH  17  19
HETATM   19  C2  UNL     1      22.773   0.327  53.372  1.00  0.00     0.090 C 
HETATM   20  C1  UNL     1      23.380  -0.833  54.076  1.00  0.00     0.083 C 
HETATM   21  S1  UNL     1      21.152   0.474  53.495  1.00  0.00    -0.064 SA
ENDBRANCH  17  19
ENDBRANCH   1  17
TORSDOF 5
ENDMDL
