MODEL 1
REMARK VINA RESULT:      -7.8      0.000      0.000
REMARK  5 active torsions:
REMARK  status: ('A' for Active; 'I' for Inactive)
REMARK    1  A    between atoms: C2_2  and  C3_3 
REMARK       I    between atoms: C3_3  and  N1_5 
REMARK    2  A    between atoms: N1_5  and  C4_6 
REMARK    3  A    between atoms: C6_8  and  C7_9 
REMARK    4  A    between atoms: C11_15  and  N4_16 
REMARK    5  A    between atoms: N4_16  and  C12_17 
ROOT
HETATM    1  C7  UNL     1      23.751   0.125  53.076  1.00  0.00     0.022 C 
HETATM    2  C8  UNL     1      23.607   1.374  52.669  1.00  0.00     0.008 A 
HETATM    3  C9  UNL     1      24.424   2.467  53.255  1.00  0.00     0.192 A 
HETATM    4  N2  UNL     1      24.069   3.724  52.662  1.00  0.00    -0.278 NA
HETATM    5  C10 UNL     1      23.190   3.917  51.753  1.00  0.00     0.229 A 
HETATM    6  N3  UNL     1      22.421   2.861  51.196  1.00  0.00    -0.224 NA
HETATM    7  C11 UNL     1      22.626   1.665  51.634  1.00  0.00     0.137 A 
ENDROOT
BRANCH   1   8
HETATM    8  C6  UNL     1      24.726  -0.195  54.112  1.00  0.00    -0.033 A 
HETATM    9  C4  UNL     1      26.035  -0.128  54.855  1.00  0.00     0.141 A 
HETATM   10  C5  UNL     1      24.950  -0.958  55.245  1.00  0.00     0.012 A 
BRANCH   9  11
HETATM   11  N1  UNL     1      27.201  -0.593  54.128  1.00  0.00    -0.346 N 
HETATM   12  C3  UNL     1      28.414   0.060  54.388  1.00  0.00     0.238 C 
HETATM   13  O1  UNL     1      28.623   0.996  55.169  1.00  0.00    -0.269 OA
HETATM   14  H4  UNL     1      27.133  -1.377  53.447  1.00  0.00     0.163 HD
BRANCH  12  15
HETATM   15  C2  UNL     1      29.581  -0.410  53.656  1.00  0.00     0.047 C 
HETATM   16  C1  UNL     1      29.822  -1.673  53.348  1.00  0.00     0.037 C 
ENDBRANCH  12  15
ENDBRANCH   9  11
ENDBRANCH   1   8
BRANCH   7  17
HETATM   17  N4  UNL     1      21.841   0.661  51.036  1.00  0.00    -0.340 N 
HETATM   18  H11 UNL     1      22.302   0.087  50.272  1.00  0.00     0.167 HD
BRANCH  17  19
HETATM   19  C12 UNL     1      20.498   0.335  51.352  1.00  0.00     0.035 A 
HETATM   20  C13 UNL     1      20.178  -0.217  52.601  1.00  0.00     0.029 A 
HETATM   21  C14 UNL     1      18.925  -0.557  52.997  1.00  0.00     0.004 A 
HETATM   22  C15 UNL     1      17.871  -0.368  52.162  1.00  0.00     0.019 A 
HETATM   23  C16 UNL     1      18.115   0.170  50.922  1.00  0.00     0.013 A 
HETATM   24 BR1  UNL     1      16.674   0.452  49.717  1.00  0.00    -0.051 Br
HETATM   25  C17 UNL     1      19.395   0.500  50.556  1.00  0.00     0.048 A 
ENDBRANCH  17  19
ENDBRANCH   7  17
TORSDOF 5
ENDMDL
MODEL 2
REMARK VINA RESULT:      -7.8      3.278      5.903
REMARK  5 active torsions:
REMARK  status: ('A' for Active; 'I' for Inactive)
REMARK    1  A    between atoms: C2_2  and  C3_3 
REMARK       I    between atoms: C3_3  and  N1_5 
REMARK    2  A    between atoms: N1_5  and  C4_6 
REMARK    3  A    between atoms: C6_8  and  C7_9 
REMARK    4  A    between atoms: C11_15  and  N4_16 
REMARK    5  A    between atoms: N4_16  and  C12_17 
ROOT
HETATM    1  C7  UNL     1      25.845   1.427  51.554  1.00  0.00     0.022 C 
HETATM    2  C8  UNL     1      26.549   1.116  52.630  1.00  0.00     0.008 A 
HETATM    3  C9  UNL     1      27.770   1.880  52.990  1.00  0.00     0.192 A 
HETATM    4  N2  UNL     1      28.360   1.341  54.181  1.00  0.00    -0.278 NA
HETATM    5  C10 UNL     1      27.923   0.353  54.868  1.00  0.00     0.229 A 
HETATM    6  N3  UNL     1      26.748  -0.363  54.516  1.00  0.00    -0.224 NA
HETATM    7  C11 UNL     1      26.106   0.005  53.459  1.00  0.00     0.137 A 
ENDROOT
BRANCH   1   8
HETATM    8  C6  UNL     1      26.266   2.535  50.705  1.00  0.00    -0.033 A 
HETATM    9  C4  UNL     1      26.642   3.952  50.356  1.00  0.00     0.141 A 
HETATM   10  C5  UNL     1      26.621   2.888  49.414  1.00  0.00     0.012 A 
BRANCH   9  11
HETATM   11  N1  UNL     1      25.589   4.940  50.496  1.00  0.00    -0.346 N 
HETATM   12  C3  UNL     1      25.684   6.087  49.697  1.00  0.00     0.238 C 
HETATM   13  O1  UNL     1      26.562   6.373  48.874  1.00  0.00    -0.269 OA
HETATM   14  H4  UNL     1      24.801   4.796  51.162  1.00  0.00     0.163 HD
BRANCH  12  15
HETATM   15  C2  UNL     1      24.626   7.076  49.842  1.00  0.00     0.047 C 
HETATM   16  C1  UNL     1      24.042   7.397  50.985  1.00  0.00     0.037 C 
ENDBRANCH  12  15
ENDBRANCH   9  11
ENDBRANCH   1   8
BRANCH   7  17
HETATM   17  N4  UNL     1      24.946  -0.736  53.169  1.00  0.00    -0.340 N 
HETATM   18  H11 UNL     1      25.078  -1.634  52.619  1.00  0.00     0.167 HD
BRANCH  17  19
HETATM   19  C12 UNL     1      23.617  -0.409  53.541  1.00  0.00     0.035 A 
HETATM   20  C13 UNL     1      22.998  -1.070  54.612  1.00  0.00     0.029 A 
HETATM   21  C14 UNL     1      21.735  -0.825  55.045  1.00  0.00     0.004 A 
HETATM   22  C15 UNL     1      20.976   0.119  54.432  1.00  0.00     0.019 A 
HETATM   23  C16 UNL     1      21.522   0.805  53.374  1.00  0.00     0.013 A 
HETATM   24 BR1  UNL     1      20.499   2.134  52.484  1.00  0.00    -0.051 Br
HETATM   25  C17 UNL     1      22.802   0.529  52.964  1.00  0.00     0.048 A 
ENDBRANCH  17  19
ENDBRANCH   7  17
TORSDOF 5
ENDMDL
MODEL 3
REMARK VINA RESULT:      -7.7      3.659      5.901
REMARK  5 active torsions:
REMARK  status: ('A' for Active; 'I' for Inactive)
REMARK    1  A    between atoms: C2_2  and  C3_3 
REMARK       I    between atoms: C3_3  and  N1_5 
REMARK    2  A    between atoms: N1_5  and  C4_6 
REMARK    3  A    between atoms: C6_8  and  C7_9 
REMARK    4  A    between atoms: C11_15  and  N4_16 
REMARK    5  A    between atoms: N4_16  and  C12_17 
ROOT
HETATM    1  C7  UNL     1      24.893   2.143  52.676  1.00  0.00     0.022 C 
HETATM    2  C8  UNL     1      23.893   2.204  51.814  1.00  0.00     0.008 A 
HETATM    3  C9  UNL     1      22.977   1.051  51.625  1.00  0.00     0.192 A 
HETATM    4  N2  UNL     1      21.990   1.357  50.629  1.00  0.00    -0.278 NA
HETATM    5  C10 UNL     1      21.877   2.455  49.982  1.00  0.00     0.229 A 
HETATM    6  N3  UNL     1      22.756   3.553  50.179  1.00  0.00    -0.224 NA
HETATM    7  C11 UNL     1      23.703   3.426  51.046  1.00  0.00     0.137 A 
ENDROOT
BRANCH   1   8
HETATM    8  C6  UNL     1      25.107   0.932  53.457  1.00  0.00    -0.033 A 
HETATM    9  C4  UNL     1      25.843  -0.030  54.355  1.00  0.00     0.141 A 
HETATM   10  C5  UNL     1      24.539  -0.270  53.844  1.00  0.00     0.012 A 
BRANCH   9  11
HETATM   11  N1  UNL     1      27.055  -0.608  53.806  1.00  0.00    -0.346 N 
HETATM   12  C3  UNL     1      28.272  -0.112  54.292  1.00  0.00     0.238 C 
HETATM   13  O1  UNL     1      28.452   0.770  55.141  1.00  0.00    -0.269 OA
HETATM   14  H4  UNL     1      27.016  -1.359  53.085  1.00  0.00     0.163 HD
BRANCH  12  15
HETATM   15  C2  UNL     1      29.485  -0.694  53.738  1.00  0.00     0.047 C 
HETATM   16  C1  UNL     1      29.612  -1.953  53.351  1.00  0.00     0.037 C 
ENDBRANCH  12  15
ENDBRANCH   9  11
ENDBRANCH   1   8
BRANCH   7  17
HETATM   17  N4  UNL     1      24.533   4.551  51.203  1.00  0.00    -0.340 N 
HETATM   18  H11 UNL     1      24.434   5.094  52.109  1.00  0.00     0.167 HD
BRANCH  17  19
HETATM   19  C12 UNL     1      25.491   5.033  50.275  1.00  0.00     0.035 A 
HETATM   20  C13 UNL     1      26.451   4.166  49.734  1.00  0.00     0.029 A 
HETATM   21  C14 UNL     1      27.404   4.530  48.838  1.00  0.00     0.004 A 
HETATM   22  C15 UNL     1      27.475   5.814  48.403  1.00  0.00     0.019 A 
HETATM   23  C16 UNL     1      26.563   6.717  48.894  1.00  0.00     0.013 A 
HETATM   24 BR1  UNL     1      26.622   8.525  48.317  1.00  0.00    -0.051 Br
HETATM   25  C17 UNL     1      25.615   6.312  49.799  1.00  0.00     0.048 A 
ENDBRANCH  17  19
ENDBRANCH   7  17
TORSDOF 5
ENDMDL
MODEL 4
REMARK VINA RESULT:      -7.7      4.416      6.640
REMARK  5 active torsions:
REMARK  status: ('A' for Active; 'I' for Inactive)
REMARK    1  A    between atoms: C2_2  and  C3_3 
REMARK       I    between atoms: C3_3  and  N1_5 
REMARK    2  A    between atoms: N1_5  and  C4_6 
REMARK    3  A    between atoms: C6_8  and  C7_9 
REMARK    4  A    between atoms: C11_15  and  N4_16 
REMARK    5  A    between atoms: N4_16  and  C12_17 
ROOT
HETATM    1  C7  UNL     1      25.423   2.316  51.367  1.00  0.00     0.022 C 
HETATM    2  C8  UNL     1      24.618   3.356  51.496  1.00  0.00     0.008 A 
HETATM    3  C9  UNL     1      23.734   3.495  52.681  1.00  0.00     0.192 A 
HETATM    4  N2  UNL     1      22.950   4.692  52.578  1.00  0.00    -0.278 NA
HETATM    5  C10 UNL     1      22.984   5.545  51.625  1.00  0.00     0.229 A 
HETATM    6  N3  UNL     1      23.840   5.404  50.501  1.00  0.00    -0.224 NA
HETATM    7  C11 UNL     1      24.608   4.368  50.450  1.00  0.00     0.137 A 
ENDROOT
BRANCH   1   8
HETATM    8  C6  UNL     1      25.453   1.286  52.398  1.00  0.00    -0.033 A 
HETATM    9  C4  UNL     1      26.006   0.497  53.557  1.00  0.00     0.141 A 
HETATM   10  C5  UNL     1      24.751   0.226  52.947  1.00  0.00     0.012 A 
BRANCH   9  11
HETATM   11  N1  UNL     1      27.221  -0.250  53.293  1.00  0.00    -0.346 N 
HETATM   12  C3  UNL     1      28.331   0.037  54.099  1.00  0.00     0.238 C 
HETATM   13  O1  UNL     1      28.412   0.858  55.020  1.00  0.00    -0.269 OA
HETATM   14  H4  UNL     1      27.260  -0.967  52.538  1.00  0.00     0.163 HD
BRANCH  12  15
HETATM   15  C2  UNL     1      29.548  -0.713  53.829  1.00  0.00     0.047 C 
HETATM   16  C1  UNL     1      29.587  -1.948  53.357  1.00  0.00     0.037 C 
ENDBRANCH  12  15
ENDBRANCH   9  11
ENDBRANCH   1   8
BRANCH   7  17
HETATM   17  N4  UNL     1      25.440   4.290  49.317  1.00  0.00    -0.340 N 
HETATM   18  H11 UNL     1      25.281   3.468  48.665  1.00  0.00     0.167 HD
BRANCH  17  19
HETATM   19  C12 UNL     1      26.467   5.199  48.956  1.00  0.00     0.035 A 
HETATM   20  C13 UNL     1      27.752   4.731  48.652  1.00  0.00     0.029 A 
HETATM   21  C14 UNL     1      28.797   5.521  48.292  1.00  0.00     0.004 A 
HETATM   22  C15 UNL     1      28.636   6.866  48.203  1.00  0.00     0.019 A 
HETATM   23  C16 UNL     1      27.398   7.391  48.488  1.00  0.00     0.013 A 
HETATM   24 BR1  UNL     1      27.123   9.267  48.380  1.00  0.00    -0.051 Br
HETATM   25  C17 UNL     1      26.367   6.561  48.850  1.00  0.00     0.048 A 
ENDBRANCH  17  19
ENDBRANCH   7  17
TORSDOF 5
ENDMDL
MODEL 5
REMARK VINA RESULT:      -7.7      2.856      4.762
REMARK  5 active torsions:
REMARK  status: ('A' for Active; 'I' for Inactive)
REMARK    1  A    between atoms: C2_2  and  C3_3 
REMARK       I    between atoms: C3_3  and  N1_5 
REMARK    2  A    between atoms: N1_5  and  C4_6 
REMARK    3  A    between atoms: C6_8  and  C7_9 
REMARK    4  A    between atoms: C11_15  and  N4_16 
REMARK    5  A    between atoms: N4_16  and  C12_17 
ROOT
HETATM    1  C7  UNL     1      24.230   0.705  52.636  1.00  0.00     0.022 C 
HETATM    2  C8  UNL     1      22.917   0.861  52.616  1.00  0.00     0.008 A 
HETATM    3  C9  UNL     1      22.077   0.395  53.748  1.00  0.00     0.192 A 
HETATM    4  N2  UNL     1      20.692   0.662  53.482  1.00  0.00    -0.278 NA
HETATM    5  C10 UNL     1      20.213   1.226  52.437  1.00  0.00     0.229 A 
HETATM    6  N3  UNL     1      21.030   1.674  51.366  1.00  0.00    -0.224 NA
HETATM    7  C11 UNL     1      22.305   1.499  51.460  1.00  0.00     0.137 A 
ENDROOT
BRANCH   1   8
HETATM    8  C6  UNL     1      24.870   0.069  53.780  1.00  0.00    -0.033 A 
HETATM    9  C4  UNL     1      25.931  -0.166  54.825  1.00  0.00     0.141 A 
HETATM   10  C5  UNL     1      24.741  -0.936  54.724  1.00  0.00     0.012 A 
BRANCH   9  11
HETATM   11  N1  UNL     1      27.225  -0.594  54.328  1.00  0.00    -0.346 N 
HETATM   12  C3  UNL     1      28.264   0.346  54.371  1.00  0.00     0.238 C 
HETATM   13  O1  UNL     1      28.220   1.512  54.783  1.00  0.00    -0.269 OA
HETATM   14  H4  UNL     1      27.370  -1.557  53.959  1.00  0.00     0.163 HD
BRANCH  12  15
HETATM   15  C2  UNL     1      29.560  -0.086  53.871  1.00  0.00     0.047 C 
HETATM   16  C1  UNL     1      29.856  -1.323  53.507  1.00  0.00     0.037 C 
ENDBRANCH  12  15
ENDBRANCH   9  11
ENDBRANCH   1   8
BRANCH   7  17
HETATM   17  N4  UNL     1      23.061   1.973  50.372  1.00  0.00    -0.340 N 
HETATM   18  H11 UNL     1      23.097   1.354  49.511  1.00  0.00     0.167 HD
BRANCH  17  19
HETATM   19  C12 UNL     1      23.775   3.197  50.307  1.00  0.00     0.035 A 
HETATM   20  C13 UNL     1      23.254   4.354  50.902  1.00  0.00     0.029 A 
HETATM   21  C14 UNL     1      23.864   5.567  50.896  1.00  0.00     0.004 A 
HETATM   22  C15 UNL     1      25.067   5.723  50.286  1.00  0.00     0.019 A 
HETATM   23  C16 UNL     1      25.634   4.627  49.682  1.00  0.00     0.013 A 
HETATM   24 BR1  UNL     1      27.315   4.794  48.814  1.00  0.00    -0.051 Br
HETATM   25  C17 UNL     1      24.987   3.417  49.707  1.00  0.00     0.048 A 
ENDBRANCH  17  19
ENDBRANCH   7  17
TORSDOF 5
ENDMDL
MODEL 6
REMARK VINA RESULT:      -7.6      3.833      5.934
REMARK  5 active torsions:
REMARK  status: ('A' for Active; 'I' for Inactive)
REMARK    1  A    between atoms: C2_2  and  C3_3 
REMARK       I    between atoms: C3_3  and  N1_5 
REMARK    2  A    between atoms: N1_5  and  C4_6 
REMARK    3  A    between atoms: C6_8  and  C7_9 
REMARK    4  A    between atoms: C11_15  and  N4_16 
REMARK    5  A    between atoms: N4_16  and  C12_17 
ROOT
HETATM    1  C7  UNL     1      25.666   1.633  51.567  1.00  0.00     0.022 C 
HETATM    2  C8  UNL     1      26.657   1.448  52.423  1.00  0.00     0.008 A 
HETATM    3  C9  UNL     1      27.703   2.484  52.615  1.00  0.00     0.192 A 
HETATM    4  N2  UNL     1      28.670   2.040  53.578  1.00  0.00    -0.278 NA
HETATM    5  C10 UNL     1      28.663   0.926  54.207  1.00  0.00     0.229 A 
HETATM    6  N3  UNL     1      27.651  -0.052  54.019  1.00  0.00    -0.224 NA
HETATM    7  C11 UNL     1      26.708   0.204  53.176  1.00  0.00     0.137 A 
ENDROOT
BRANCH   1   8
HETATM    8  C6  UNL     1      25.590   2.869  50.799  1.00  0.00    -0.033 A 
HETATM    9  C4  UNL     1      25.802   3.789  49.624  1.00  0.00     0.141 A 
HETATM   10  C5  UNL     1      25.144   4.180  50.822  1.00  0.00     0.012 A 
BRANCH   9  11
HETATM   11  N1  UNL     1      27.181   4.107  49.308  1.00  0.00    -0.346 N 
HETATM   12  C3  UNL     1      27.418   5.317  48.641  1.00  0.00     0.238 C 
HETATM   13  O1  UNL     1      26.590   6.163  48.280  1.00  0.00    -0.269 OA
HETATM   14  H4  UNL     1      27.956   3.462  49.568  1.00  0.00     0.163 HD
BRANCH  12  15
HETATM   15  C2  UNL     1      28.803   5.631  48.325  1.00  0.00     0.047 C 
HETATM   16  C1  UNL     1      29.241   6.818  47.939  1.00  0.00     0.037 C 
ENDBRANCH  12  15
ENDBRANCH   9  11
ENDBRANCH   1   8
BRANCH   7  17
HETATM   17  N4  UNL     1      25.730  -0.800  53.042  1.00  0.00    -0.340 N 
HETATM   18  H11 UNL     1      25.989  -1.641  52.448  1.00  0.00     0.167 HD
BRANCH  17  19
HETATM   19  C12 UNL     1      24.436  -0.805  53.622  1.00  0.00     0.035 A 
HETATM   20  C13 UNL     1      24.255  -1.234  54.944  1.00  0.00     0.029 A 
HETATM   21  C14 UNL     1      23.059  -1.270  55.587  1.00  0.00     0.004 A 
HETATM   22  C15 UNL     1      21.929  -0.872  54.949  1.00  0.00     0.019 A 
HETATM   23  C16 UNL     1      22.037  -0.439  53.649  1.00  0.00     0.013 A 
HETATM   24 BR1  UNL     1      20.485   0.127  52.712  1.00  0.00    -0.051 Br
HETATM   25  C17 UNL     1      23.262  -0.418  53.032  1.00  0.00     0.048 A 
ENDBRANCH  17  19
ENDBRANCH   7  17
TORSDOF 5
ENDMDL
MODEL 7
REMARK VINA RESULT:      -7.5      2.712      4.093
REMARK  5 active torsions:
REMARK  status: ('A' for Active; 'I' for Inactive)
REMARK    1  A    between atoms: C2_2  and  C3_3 
REMARK       I    between atoms: C3_3  and  N1_5 
REMARK    2  A    between atoms: N1_5  and  C4_6 
REMARK    3  A    between atoms: C6_8  and  C7_9 
REMARK    4  A    between atoms: C11_15  and  N4_16 
REMARK    5  A    between atoms: N4_16  and  C12_17 
ROOT
HETATM    1  C7  UNL     1      23.352   0.634  53.093  1.00  0.00     0.022 C 
HETATM    2  C8  UNL     1      22.175   0.075  53.318  1.00  0.00     0.008 A 
HETATM    3  C9  UNL     1      22.069  -1.210  54.053  1.00  0.00     0.192 A 
HETATM    4  N2  UNL     1      20.696  -1.614  54.152  1.00  0.00    -0.278 NA
HETATM    5  C10 UNL     1      19.681  -0.983  53.694  1.00  0.00     0.229 A 
HETATM    6  N3  UNL     1      19.797   0.250  52.999  1.00  0.00    -0.224 NA
HETATM    7  C11 UNL     1      20.978   0.742  52.828  1.00  0.00     0.137 A 
ENDROOT
BRANCH   1   8
HETATM    8  C6  UNL     1      24.567  -0.012  53.571  1.00  0.00    -0.033 A 
HETATM    9  C4  UNL     1      25.760  -0.240  54.465  1.00  0.00     0.141 A 
HETATM   10  C5  UNL     1      25.459  -1.044  53.332  1.00  0.00     0.012 A 
BRANCH   9  11
HETATM   11  N1  UNL     1      26.754   0.816  54.476  1.00  0.00    -0.346 N 
HETATM   12  C3  UNL     1      28.099   0.422  54.494  1.00  0.00     0.238 C 
HETATM   13  O1  UNL     1      28.556  -0.727  54.502  1.00  0.00    -0.269 OA
HETATM   14  H4  UNL     1      26.475   1.819  54.470  1.00  0.00     0.163 HD
BRANCH  12  15
HETATM   15  C2  UNL     1      29.093   1.485  54.507  1.00  0.00     0.047 C 
HETATM   16  C1  UNL     1      29.074   2.548  53.720  1.00  0.00     0.037 C 
ENDBRANCH  12  15
ENDBRANCH   9  11
ENDBRANCH   1   8
BRANCH   7  17
HETATM   17  N4  UNL     1      21.026   1.970  52.142  1.00  0.00    -0.340 N 
HETATM   18  H11 UNL     1      20.616   2.812  52.642  1.00  0.00     0.167 HD
BRANCH  17  19
HETATM   19  C12 UNL     1      21.570   2.200  50.853  1.00  0.00     0.035 A 
HETATM   20  C13 UNL     1      21.332   1.292  49.812  1.00  0.00     0.029 A 
HETATM   21  C14 UNL     1      21.805   1.427  48.546  1.00  0.00     0.004 A 
HETATM   22  C15 UNL     1      22.565   2.501  48.214  1.00  0.00     0.019 A 
HETATM   23  C16 UNL     1      22.837   3.431  49.188  1.00  0.00     0.013 A 
HETATM   24 BR1  UNL     1      23.897   4.950  48.773  1.00  0.00    -0.051 Br
HETATM   25  C17 UNL     1      22.343   3.260  50.457  1.00  0.00     0.048 A 
ENDBRANCH  17  19
ENDBRANCH   7  17
TORSDOF 5
ENDMDL
MODEL 8
REMARK VINA RESULT:      -7.4      1.550      1.762
REMARK  5 active torsions:
REMARK  status: ('A' for Active; 'I' for Inactive)
REMARK    1  A    between atoms: C2_2  and  C3_3 
REMARK       I    between atoms: C3_3  and  N1_5 
REMARK    2  A    between atoms: N1_5  and  C4_6 
REMARK    3  A    between atoms: C6_8  and  C7_9 
REMARK    4  A    between atoms: C11_15  and  N4_16 
REMARK    5  A    between atoms: N4_16  and  C12_17 
ROOT
HETATM    1  C7  UNL     1      24.301   1.549  52.021  1.00  0.00     0.022 C 
HETATM    2  C8  UNL     1      23.730   2.481  51.276  1.00  0.00     0.008 A 
HETATM    3  C9  UNL     1      24.280   3.859  51.226  1.00  0.00     0.192 A 
HETATM    4  N2  UNL     1      23.479   4.683  50.366  1.00  0.00    -0.278 NA
HETATM    5  C10 UNL     1      22.440   4.318  49.714  1.00  0.00     0.229 A 
HETATM    6  N3  UNL     1      21.930   2.993  49.765  1.00  0.00    -0.224 NA
HETATM    7  C11 UNL     1      22.547   2.134  50.504  1.00  0.00     0.137 A 
ENDROOT
BRANCH   1   8
HETATM    8  C6  UNL     1      25.487   1.870  52.805  1.00  0.00    -0.033 A 
HETATM    9  C4  UNL     1      26.947   2.130  53.070  1.00  0.00     0.141 A 
HETATM   10  C5  UNL     1      25.944   2.173  54.076  1.00  0.00     0.012 A 
BRANCH   9  11
HETATM   11  N1  UNL     1      27.841   1.008  52.855  1.00  0.00    -0.346 N 
HETATM   12  C3  UNL     1      28.922   0.878  53.738  1.00  0.00     0.238 C 
HETATM   13  O1  UNL     1      29.218   1.607  54.692  1.00  0.00    -0.269 OA
HETATM   14  H4  UNL     1      27.681   0.333  52.078  1.00  0.00     0.163 HD
BRANCH  12  15
HETATM   15  C2  UNL     1      29.816  -0.248  53.517  1.00  0.00     0.047 C 
HETATM   16  C1  UNL     1      29.439  -1.515  53.464  1.00  0.00     0.037 C 
ENDBRANCH  12  15
ENDBRANCH   9  11
ENDBRANCH   1   8
BRANCH   7  17
HETATM   17  N4  UNL     1      22.000   0.837  50.505  1.00  0.00    -0.340 N 
HETATM   18  H11 UNL     1      22.447   0.130  49.853  1.00  0.00     0.167 HD
BRANCH  17  19
HETATM   19  C12 UNL     1      20.913   0.377  51.292  1.00  0.00     0.035 A 
HETATM   20  C13 UNL     1      21.128  -0.071  52.603  1.00  0.00     0.029 A 
HETATM   21  C14 UNL     1      20.155  -0.525  53.434  1.00  0.00     0.004 A 
HETATM   22  C15 UNL     1      18.865  -0.567  53.014  1.00  0.00     0.019 A 
HETATM   23  C16 UNL     1      18.584  -0.142  51.737  1.00  0.00     0.013 A 
HETATM   24 BR1  UNL     1      16.795  -0.183  51.102  1.00  0.00    -0.051 Br
HETATM   25  C17 UNL     1      19.595   0.309  50.926  1.00  0.00     0.048 A 
ENDBRANCH  17  19
ENDBRANCH   7  17
TORSDOF 5
ENDMDL
MODEL 9
REMARK VINA RESULT:      -7.4      5.390      7.280
REMARK  5 active torsions:
REMARK  status: ('A' for Active; 'I' for Inactive)
REMARK    1  A    between atoms: C2_2  and  C3_3 
REMARK       I    between atoms: C3_3  and  N1_5 
REMARK    2  A    between atoms: N1_5  and  C4_6 
REMARK    3  A    between atoms: C6_8  and  C7_9 
REMARK    4  A    between atoms: C11_15  and  N4_16 
REMARK    5  A    between atoms: N4_16  and  C12_17 
ROOT
HETATM    1  C7  UNL     1      26.422   4.261  49.499  1.00  0.00     0.022 C 
HETATM    2  C8  UNL     1      25.419   4.611  50.286  1.00  0.00     0.008 A 
HETATM    3  C9  UNL     1      25.031   6.037  50.438  1.00  0.00     0.192 A 
HETATM    4  N2  UNL     1      23.932   6.157  51.353  1.00  0.00    -0.278 NA
HETATM    5  C10 UNL     1      23.340   5.200  51.962  1.00  0.00     0.229 A 
HETATM    6  N3  UNL     1      23.717   3.840  51.800  1.00  0.00    -0.224 NA
HETATM    7  C11 UNL     1      24.698   3.573  51.006  1.00  0.00     0.137 A 
ENDROOT
BRANCH   1   8
HETATM    8  C6  UNL     1      27.162   5.280  48.767  1.00  0.00    -0.033 A 
HETATM    9  C4  UNL     1      28.346   5.915  48.083  1.00  0.00     0.141 A 
HETATM   10  C5  UNL     1      27.072   6.534  48.186  1.00  0.00     0.012 A 
BRANCH   9  11
HETATM   11  N1  UNL     1      29.479   6.226  48.934  1.00  0.00    -0.346 N 
HETATM   12  C3  UNL     1      30.691   5.590  48.636  1.00  0.00     0.238 C 
HETATM   13  O1  UNL     1      30.926   4.784  47.728  1.00  0.00    -0.269 OA
HETATM   14  H4  UNL     1      29.388   6.893  49.728  1.00  0.00     0.163 HD
BRANCH  12  15
HETATM   15  C2  UNL     1      31.824   5.904  49.494  1.00  0.00     0.047 C 
HETATM   16  C1  UNL     1      33.068   6.069  49.075  1.00  0.00     0.037 C 
ENDBRANCH  12  15
ENDBRANCH   9  11
ENDBRANCH   1   8
BRANCH   7  17
HETATM   17  N4  UNL     1      25.016   2.208  50.880  1.00  0.00    -0.340 N 
HETATM   18  H11 UNL     1      24.889   1.775  49.919  1.00  0.00     0.167 HD
BRANCH  17  19
HETATM   19  C12 UNL     1      25.494   1.351  51.904  1.00  0.00     0.035 A 
HETATM   20  C13 UNL     1      24.596   0.606  52.681  1.00  0.00     0.029 A 
HETATM   21  C14 UNL     1      24.956  -0.242  53.678  1.00  0.00     0.004 A 
HETATM   22  C15 UNL     1      26.267  -0.418  53.983  1.00  0.00     0.019 A 
HETATM   23  C16 UNL     1      27.201   0.282  53.259  1.00  0.00     0.013 A 
HETATM   24 BR1  UNL     1      29.048   0.071  53.648  1.00  0.00    -0.051 Br
HETATM   25  C17 UNL     1      26.799   1.132  52.259  1.00  0.00     0.048 A 
ENDBRANCH  17  19
ENDBRANCH   7  17
TORSDOF 5
ENDMDL
