MODEL 1
REMARK VINA RESULT:      -9.0      0.000      0.000
REMARK  6 active torsions:
REMARK  status: ('A' for Active; 'I' for Inactive)
REMARK    1  A    between atoms: N1_2  and  C2_3 
REMARK    2  A    between atoms: C2_3  and  C3_4 
REMARK    3  A    between atoms: C4_5  and  C5_6 
REMARK    4  A    between atoms: C7_9  and  O1_10 
REMARK    5  A    between atoms: C14_18  and  N4_19 
REMARK    6  A    between atoms: N4_19  and  C15_20 
ROOT
HETATM    1  C5  UNL     1      22.472   1.115  51.356  1.00  0.00     0.279 C 
HETATM    2  N2  UNL     1      21.437   0.646  50.423  1.00  0.00     0.102 N 
HETATM    3  C6  UNL     1      20.126   0.740  50.984  1.00  0.00     0.335 C 
HETATM    4  C7  UNL     1      19.992  -0.102  52.202  1.00  0.00     0.081 C 
HETATM    5  C9  UNL     1      21.092  -0.281  52.915  1.00  0.00    -0.013 A 
HETATM    6  C10 UNL     1      20.859  -1.134  54.109  1.00  0.00     0.070 A 
HETATM    7  C11 UNL     1      22.083  -1.317  54.896  1.00  0.00     0.003 A 
HETATM    8  C12 UNL     1      23.261  -0.798  54.594  1.00  0.00     0.068 A 
HETATM    9  C13 UNL     1      24.364  -1.072  55.470  1.00  0.00     0.101 C 
HETATM   10  N3  UNL     1      25.265  -1.309  56.174  1.00  0.00    -0.191 NA
HETATM   11  C14 UNL     1      23.375   0.019  53.397  1.00  0.00     0.062 A 
HETATM   12  C21 UNL     1      22.387   0.297  52.565  1.00  0.00     0.016 A 
HETATM   13  H10 UNL     1      21.648  -0.383  50.275  1.00  0.00     0.317 HD
ENDROOT
BRANCH  11  14
HETATM   14  N4  UNL     1      24.635   0.582  53.065  1.00  0.00    -0.354 N 
HETATM   15  H19 UNL     1      24.804   1.549  52.717  1.00  0.00     0.166 HD
BRANCH  14  16
HETATM   16  C15 UNL     1      25.946   0.043  53.102  1.00  0.00     0.034 A 
HETATM   17  C16 UNL     1      26.202  -1.228  52.573  1.00  0.00     0.032 A 
HETATM   18  C17 UNL     1      27.507  -1.689  52.645  1.00  0.00     0.046 A 
HETATM   19  C18 UNL     1      28.485  -0.898  53.222  1.00  0.00     0.138 A 
HETATM   20  F1  UNL     1      29.763  -1.379  53.280  1.00  0.00    -0.204 F 
HETATM   21  C19 UNL     1      28.216   0.358  53.742  1.00  0.00     0.074 A 
HETATM   22 CL1  UNL     1      29.465   1.361  54.476  1.00  0.00    -0.081 Cl
HETATM   23  C20 UNL     1      26.926   0.845  53.685  1.00  0.00     0.056 A 
ENDBRANCH  14  16
ENDBRANCH  11  14
BRANCH   1  24
HETATM   24  C4  UNL     1      22.324   2.576  51.586  1.00  0.00     0.011 C 
HETATM   25  C3  UNL     1      23.074   3.612  51.964  1.00  0.00     0.001 C 
BRANCH  25  26
HETATM   26  C2  UNL     1      22.626   5.044  52.113  1.00  0.00     0.296 C 
BRANCH  26  27
HETATM   27  N1  UNL     1      23.785   5.869  52.394  1.00  0.00     0.082 N 
HETATM   28  C1  UNL     1      24.188   6.655  51.245  1.00  0.00     0.307 C 
HETATM   29  H4  UNL     1      24.608   5.310  52.666  1.00  0.00     0.315 HD
ENDBRANCH  26  27
ENDBRANCH  25  26
ENDBRANCH   1  24
BRANCH   4  30
HETATM   30  O1  UNL     1      18.752  -0.628  52.496  1.00  0.00    -0.358 OA
HETATM   31  C8  UNL     1      17.583  -0.432  51.736  1.00  0.00     0.209 C 
ENDBRANCH   4  30
TORSDOF 6
ENDMDL
MODEL 2
REMARK VINA RESULT:      -8.8      1.733      2.412
REMARK  6 active torsions:
REMARK  status: ('A' for Active; 'I' for Inactive)
REMARK    1  A    between atoms: N1_2  and  C2_3 
REMARK    2  A    between atoms: C2_3  and  C3_4 
REMARK    3  A    between atoms: C4_5  and  C5_6 
REMARK    4  A    between atoms: C7_9  and  O1_10 
REMARK    5  A    between atoms: C14_18  and  N4_19 
REMARK    6  A    between atoms: N4_19  and  C15_20 
ROOT
HETATM    1  C5  UNL     1      24.317   2.445  51.054  1.00  0.00     0.279 C 
HETATM    2  N2  UNL     1      24.229   2.481  49.587  1.00  0.00     0.102 N 
HETATM    3  C6  UNL     1      22.928   2.866  49.136  1.00  0.00     0.335 C 
HETATM    4  C7  UNL     1      21.888   1.904  49.587  1.00  0.00     0.081 C 
HETATM    5  C9  UNL     1      22.122   1.280  50.729  1.00  0.00    -0.013 A 
HETATM    6  C10 UNL     1      21.029   0.341  51.094  1.00  0.00     0.070 A 
HETATM    7  C11 UNL     1      21.296  -0.337  52.367  1.00  0.00     0.003 A 
HETATM    8  C12 UNL     1      22.373  -0.152  53.112  1.00  0.00     0.068 A 
HETATM    9  C13 UNL     1      22.484  -0.895  54.334  1.00  0.00     0.101 C 
HETATM   10  N3  UNL     1      22.581  -1.512  55.321  1.00  0.00    -0.191 NA
HETATM   11  C14 UNL     1      23.382   0.789  52.654  1.00  0.00     0.062 A 
HETATM   12  C21 UNL     1      23.319   1.493  51.538  1.00  0.00     0.016 A 
HETATM   13  H10 UNL     1      24.389   1.479  49.278  1.00  0.00     0.317 HD
ENDROOT
BRANCH  11  14
HETATM   14  N4  UNL     1      24.541   0.995  53.447  1.00  0.00    -0.354 N 
HETATM   15  H19 UNL     1      24.627   1.649  54.253  1.00  0.00     0.166 HD
BRANCH  14  16
HETATM   16  C15 UNL     1      25.836   0.418  53.389  1.00  0.00     0.034 A 
HETATM   17  C16 UNL     1      26.016  -0.858  52.841  1.00  0.00     0.032 A 
HETATM   18  C17 UNL     1      27.309  -1.356  52.818  1.00  0.00     0.046 A 
HETATM   19  C18 UNL     1      28.349  -0.595  53.324  1.00  0.00     0.138 A 
HETATM   20  F1  UNL     1      29.614  -1.112  53.288  1.00  0.00    -0.204 F 
HETATM   21  C19 UNL     1      28.154   0.667  53.863  1.00  0.00     0.074 A 
HETATM   22 CL1  UNL     1      29.481   1.632  54.505  1.00  0.00    -0.081 Cl
HETATM   23  C20 UNL     1      26.878   1.190  53.899  1.00  0.00     0.056 A 
ENDBRANCH  14  16
ENDBRANCH  11  14
BRANCH   1  24
HETATM   24  C4  UNL     1      24.179   3.820  51.604  1.00  0.00     0.011 C 
HETATM   25  C3  UNL     1      23.357   4.499  52.405  1.00  0.00     0.001 C 
BRANCH  25  26
HETATM   26  C2  UNL     1      23.477   5.950  52.798  1.00  0.00     0.296 C 
BRANCH  26  27
HETATM   27  N1  UNL     1      24.446   6.591  51.930  1.00  0.00     0.082 N 
HETATM   28  C1  UNL     1      23.814   7.422  50.926  1.00  0.00     0.307 C 
HETATM   29  H4  UNL     1      25.026   5.908  51.418  1.00  0.00     0.315 HD
ENDBRANCH  26  27
ENDBRANCH  25  26
ENDBRANCH   1  24
BRANCH   4  30
HETATM   30  O1  UNL     1      20.773   1.733  48.793  1.00  0.00    -0.358 OA
HETATM   31  C8  UNL     1      20.315   2.646  47.825  1.00  0.00     0.209 C 
ENDBRANCH   4  30
TORSDOF 6
ENDMDL
MODEL 3
REMARK VINA RESULT:      -8.6      2.081      2.485
REMARK  6 active torsions:
REMARK  status: ('A' for Active; 'I' for Inactive)
REMARK    1  A    between atoms: N1_2  and  C2_3 
REMARK    2  A    between atoms: C2_3  and  C3_4 
REMARK    3  A    between atoms: C4_5  and  C5_6 
REMARK    4  A    between atoms: C7_9  and  O1_10 
REMARK    5  A    between atoms: C14_18  and  N4_19 
REMARK    6  A    between atoms: N4_19  and  C15_20 
ROOT
HETATM    1  C5  UNL     1      22.614   1.336  50.569  1.00  0.00     0.279 C 
HETATM    2  N2  UNL     1      21.517   1.513  49.605  1.00  0.00     0.102 N 
HETATM    3  C6  UNL     1      20.571   2.491  50.042  1.00  0.00     0.335 C 
HETATM    4  C7  UNL     1      19.931   2.096  51.324  1.00  0.00     0.081 C 
HETATM    5  C9  UNL     1      20.661   1.356  52.141  1.00  0.00    -0.013 A 
HETATM    6  C10 UNL     1      19.937   1.012  53.392  1.00  0.00     0.070 A 
HETATM    7  C11 UNL     1      20.761   0.200  54.294  1.00  0.00     0.003 A 
HETATM    8  C12 UNL     1      21.999  -0.192  54.040  1.00  0.00     0.068 A 
HETATM    9  C13 UNL     1      22.671  -0.985  55.028  1.00  0.00     0.101 C 
HETATM   10  N3  UNL     1      23.213  -1.644  55.826  1.00  0.00    -0.191 NA
HETATM   11  C14 UNL     1      22.608   0.199  52.779  1.00  0.00     0.062 A 
HETATM   12  C21 UNL     1      22.026   0.928  51.843  1.00  0.00     0.016 A 
HETATM   13  H10 UNL     1      21.020   0.576  49.581  1.00  0.00     0.317 HD
ENDROOT
BRANCH  11  14
HETATM   14  N4  UNL     1      23.936  -0.216  52.498  1.00  0.00    -0.354 N 
HETATM   15  H19 UNL     1      24.216  -1.004  51.877  1.00  0.00     0.166 HD
BRANCH  14  16
HETATM   16  C15 UNL     1      25.190   0.278  52.941  1.00  0.00     0.034 A 
HETATM   17  C16 UNL     1      25.306   1.592  53.409  1.00  0.00     0.032 A 
HETATM   18  C17 UNL     1      26.561   2.005  53.825  1.00  0.00     0.046 A 
HETATM   19  C18 UNL     1      27.629   1.125  53.765  1.00  0.00     0.138 A 
HETATM   20  F1  UNL     1      28.856   1.559  54.182  1.00  0.00    -0.204 F 
HETATM   21  C19 UNL     1      27.499  -0.173  53.299  1.00  0.00     0.074 A 
HETATM   22 CL1  UNL     1      28.860  -1.289  53.223  1.00  0.00    -0.081 Cl
HETATM   23  C20 UNL     1      26.260  -0.613  52.877  1.00  0.00     0.056 A 
ENDBRANCH  14  16
ENDBRANCH  11  14
BRANCH   1  24
HETATM   24  C4  UNL     1      23.435   2.574  50.635  1.00  0.00     0.011 C 
HETATM   25  C3  UNL     1      24.597   3.031  50.164  1.00  0.00     0.001 C 
BRANCH  25  26
HETATM   26  C2  UNL     1      25.197   4.392  50.411  1.00  0.00     0.296 C 
BRANCH  26  27
HETATM   27  N1  UNL     1      26.628   4.318  50.191  1.00  0.00     0.082 N 
HETATM   28  C1  UNL     1      27.008   4.835  48.891  1.00  0.00     0.307 C 
HETATM   29  H4  UNL     1      26.983   3.350  50.232  1.00  0.00     0.315 HD
ENDBRANCH  26  27
ENDBRANCH  25  26
ENDBRANCH   1  24
BRANCH   4  30
HETATM   30  O1  UNL     1      18.641   2.522  51.564  1.00  0.00    -0.358 OA
HETATM   31  C8  UNL     1      18.136   3.800  51.264  1.00  0.00     0.209 C 
ENDBRANCH   4  30
TORSDOF 6
ENDMDL
MODEL 4
REMARK VINA RESULT:      -8.4      4.114      6.472
REMARK  6 active torsions:
REMARK  status: ('A' for Active; 'I' for Inactive)
REMARK    1  A    between atoms: N1_2  and  C2_3 
REMARK    2  A    between atoms: C2_3  and  C3_4 
REMARK    3  A    between atoms: C4_5  and  C5_6 
REMARK    4  A    between atoms: C7_9  and  O1_10 
REMARK    5  A    between atoms: C14_18  and  N4_19 
REMARK    6  A    between atoms: N4_19  and  C15_20 
ROOT
HETATM    1  C5  UNL     1      26.151   2.658  52.931  1.00  0.00     0.279 C 
HETATM    2  N2  UNL     1      27.365   2.591  53.758  1.00  0.00     0.102 N 
HETATM    3  C6  UNL     1      28.153   1.436  53.462  1.00  0.00     0.335 C 
HETATM    4  C7  UNL     1      27.404   0.181  53.731  1.00  0.00     0.081 C 
HETATM    5  C9  UNL     1      26.091   0.238  53.585  1.00  0.00    -0.013 A 
HETATM    6  C10 UNL     1      25.432  -1.061  53.876  1.00  0.00     0.070 A 
HETATM    7  C11 UNL     1      23.977  -0.987  53.701  1.00  0.00     0.003 A 
HETATM    8  C12 UNL     1      23.315   0.097  53.333  1.00  0.00     0.068 A 
HETATM    9  C13 UNL     1      21.889   0.005  53.206  1.00  0.00     0.101 C 
HETATM   10  N3  UNL     1      20.726  -0.065  53.119  1.00  0.00    -0.191 NA
HETATM   11  C14 UNL     1      24.063   1.317  53.078  1.00  0.00     0.062 A 
HETATM   12  C21 UNL     1      25.374   1.445  53.181  1.00  0.00     0.016 A 
HETATM   13  H10 UNL     1      27.014   2.490  54.754  1.00  0.00     0.317 HD
ENDROOT
BRANCH  11  14
HETATM   14  N4  UNL     1      23.360   2.486  52.682  1.00  0.00    -0.354 N 
HETATM   15  H19 UNL     1      23.006   3.234  53.314  1.00  0.00     0.166 HD
BRANCH  14  16
HETATM   16  C15 UNL     1      22.959   2.955  51.405  1.00  0.00     0.034 A 
HETATM   17  C16 UNL     1      22.972   2.094  50.301  1.00  0.00     0.032 A 
HETATM   18  C17 UNL     1      22.567   2.622  49.086  1.00  0.00     0.046 A 
HETATM   19  C18 UNL     1      22.172   3.947  49.009  1.00  0.00     0.138 A 
HETATM   20  F1  UNL     1      21.777   4.441  47.797  1.00  0.00    -0.204 F 
HETATM   21  C19 UNL     1      22.164   4.787  50.111  1.00  0.00     0.074 A 
HETATM   22 CL1  UNL     1      21.662   6.472  50.009  1.00  0.00    -0.081 Cl
HETATM   23  C20 UNL     1      22.563   4.289  51.335  1.00  0.00     0.056 A 
ENDBRANCH  14  16
ENDBRANCH  11  14
BRANCH   1  24
HETATM   24  C4  UNL     1      26.519   2.874  51.507  1.00  0.00     0.011 C 
HETATM   25  C3  UNL     1      26.232   3.721  50.517  1.00  0.00     0.001 C 
BRANCH  25  26
HETATM   26  C2  UNL     1      26.785   3.688  49.115  1.00  0.00     0.296 C 
BRANCH  26  27
HETATM   27  N1  UNL     1      27.630   4.850  48.918  1.00  0.00     0.082 N 
HETATM   28  C1  UNL     1      26.859   6.045  48.638  1.00  0.00     0.307 C 
HETATM   29  H4  UNL     1      28.281   4.733  48.127  1.00  0.00     0.315 HD
ENDBRANCH  26  27
ENDBRANCH  25  26
ENDBRANCH   1  24
BRANCH   4  30
HETATM   30  O1  UNL     1      28.121  -0.935  54.109  1.00  0.00    -0.358 OA
HETATM   31  C8  UNL     1      29.428  -1.244  53.691  1.00  0.00     0.209 C 
ENDBRANCH   4  30
TORSDOF 6
ENDMDL
MODEL 5
REMARK VINA RESULT:      -7.9      3.921      6.229
REMARK  6 active torsions:
REMARK  status: ('A' for Active; 'I' for Inactive)
REMARK    1  A    between atoms: N1_2  and  C2_3 
REMARK    2  A    between atoms: C2_3  and  C3_4 
REMARK    3  A    between atoms: C4_5  and  C5_6 
REMARK    4  A    between atoms: C7_9  and  O1_10 
REMARK    5  A    between atoms: C14_18  and  N4_19 
REMARK    6  A    between atoms: N4_19  and  C15_20 
ROOT
HETATM    1  C5  UNL     1      23.484   4.007  52.275  1.00  0.00     0.279 C 
HETATM    2  N2  UNL     1      23.993   5.338  51.915  1.00  0.00     0.102 N 
HETATM    3  C6  UNL     1      24.340   5.423  50.531  1.00  0.00     0.335 C 
HETATM    4  C7  UNL     1      25.419   4.463  50.179  1.00  0.00     0.081 C 
HETATM    5  C9  UNL     1      25.463   3.346  50.886  1.00  0.00    -0.013 A 
HETATM    6  C10 UNL     1      26.571   2.452  50.462  1.00  0.00     0.070 A 
HETATM    7  C11 UNL     1      26.604   1.213  51.247  1.00  0.00     0.003 A 
HETATM    8  C12 UNL     1      25.760   0.912  52.220  1.00  0.00     0.068 A 
HETATM    9  C13 UNL     1      25.927  -0.343  52.893  1.00  0.00     0.101 C 
HETATM   10  N3  UNL     1      26.073  -1.359  53.452  1.00  0.00    -0.191 NA
HETATM   11  C14 UNL     1      24.715   1.865  52.554  1.00  0.00     0.062 A 
HETATM   12  C21 UNL     1      24.525   3.031  51.961  1.00  0.00     0.016 A 
HETATM   13  H10 UNL     1      24.886   5.451  52.475  1.00  0.00     0.317 HD
ENDROOT
BRANCH  11  14
HETATM   14  N4  UNL     1      23.804   1.551  53.596  1.00  0.00    -0.354 N 
HETATM   15  H19 UNL     1      23.770   1.994  54.539  1.00  0.00     0.166 HD
BRANCH  14  16
HETATM   16  C15 UNL     1      22.744   0.612  53.668  1.00  0.00     0.034 A 
HETATM   17  C16 UNL     1      22.779  -0.422  54.612  1.00  0.00     0.032 A 
HETATM   18  C17 UNL     1      21.708  -1.301  54.623  1.00  0.00     0.046 A 
HETATM   19  C18 UNL     1      20.669  -1.131  53.725  1.00  0.00     0.138 A 
HETATM   20  F1  UNL     1      19.626  -2.014  53.758  1.00  0.00    -0.204 F 
HETATM   21  C19 UNL     1      20.648  -0.103  52.795  1.00  0.00     0.074 A 
HETATM   22 CL1  UNL     1      19.324   0.109  51.654  1.00  0.00    -0.081 Cl
HETATM   23  C20 UNL     1      21.701   0.789  52.760  1.00  0.00     0.056 A 
ENDBRANCH  14  16
ENDBRANCH  11  14
BRANCH   1  24
HETATM   24  C4  UNL     1      22.182   3.762  51.600  1.00  0.00     0.011 C 
HETATM   25  C3  UNL     1      20.935   4.235  51.628  1.00  0.00     0.001 C 
BRANCH  25  26
HETATM   26  C2  UNL     1      19.774   3.766  50.787  1.00  0.00     0.296 C 
BRANCH  26  27
HETATM   27  N1  UNL     1      18.633   3.540  51.653  1.00  0.00     0.082 N 
HETATM   28  C1  UNL     1      17.404   4.059  51.084  1.00  0.00     0.307 C 
HETATM   29  H4  UNL     1      18.741   3.994  52.572  1.00  0.00     0.315 HD
ENDBRANCH  26  27
ENDBRANCH  25  26
ENDBRANCH   1  24
BRANCH   4  30
HETATM   30  O1  UNL     1      26.282   4.800  49.158  1.00  0.00    -0.358 OA
HETATM   31  C8  UNL     1      26.644   6.111  48.797  1.00  0.00     0.209 C 
ENDBRANCH   4  30
TORSDOF 6
ENDMDL
MODEL 6
REMARK VINA RESULT:      -7.8      3.565      5.116
REMARK  6 active torsions:
REMARK  status: ('A' for Active; 'I' for Inactive)
REMARK    1  A    between atoms: N1_2  and  C2_3 
REMARK    2  A    between atoms: C2_3  and  C3_4 
REMARK    3  A    between atoms: C4_5  and  C5_6 
REMARK    4  A    between atoms: C7_9  and  O1_10 
REMARK    5  A    between atoms: C14_18  and  N4_19 
REMARK    6  A    between atoms: N4_19  and  C15_20 
ROOT
HETATM    1  C5  UNL     1      22.085   2.047  49.799  1.00  0.00     0.279 C 
HETATM    2  N2  UNL     1      21.120   0.948  49.648  1.00  0.00     0.102 N 
HETATM    3  C6  UNL     1      20.419   0.679  50.865  1.00  0.00     0.335 C 
HETATM    4  C7  UNL     1      21.347   0.264  51.949  1.00  0.00     0.081 C 
HETATM    5  C9  UNL     1      22.571   0.760  51.894  1.00  0.00    -0.013 A 
HETATM    6  C10 UNL     1      23.423   0.289  53.017  1.00  0.00     0.070 A 
HETATM    7  C11 UNL     1      24.776   0.854  52.951  1.00  0.00     0.003 A 
HETATM    8  C12 UNL     1      25.205   1.680  52.012  1.00  0.00     0.068 A 
HETATM    9  C13 UNL     1      26.559   2.145  52.090  1.00  0.00     0.101 C 
HETATM   10  N3  UNL     1      27.668   2.510  52.144  1.00  0.00    -0.191 NA
HETATM   11  C14 UNL     1      24.285   2.072  50.956  1.00  0.00     0.062 A 
HETATM   12  C21 UNL     1      23.031   1.670  50.848  1.00  0.00     0.016 A 
HETATM   13  H10 UNL     1      21.709   0.095  49.424  1.00  0.00     0.317 HD
ENDROOT
BRANCH  11  14
HETATM   14  N4  UNL     1      24.735   2.960  49.945  1.00  0.00    -0.354 N 
HETATM   15  H19 UNL     1      24.908   2.718  48.946  1.00  0.00     0.166 HD
BRANCH  14  16
HETATM   16  C15 UNL     1      25.062   4.340  49.980  1.00  0.00     0.034 A 
HETATM   17  C16 UNL     1      24.350   5.212  50.812  1.00  0.00     0.032 A 
HETATM   18  C17 UNL     1      24.724   6.546  50.794  1.00  0.00     0.046 A 
HETATM   19  C18 UNL     1      25.763   6.958  49.977  1.00  0.00     0.138 A 
HETATM   20  F1  UNL     1      26.111   8.280  49.979  1.00  0.00    -0.204 F 
HETATM   21  C19 UNL     1      26.459   6.082  49.158  1.00  0.00     0.074 A 
HETATM   22 CL1  UNL     1      27.779   6.611  48.119  1.00  0.00    -0.081 Cl
HETATM   23  C20 UNL     1      26.108   4.747  49.154  1.00  0.00     0.056 A 
ENDBRANCH  14  16
ENDBRANCH  11  14
BRANCH   1  24
HETATM   24  C4  UNL     1      21.365   3.324  50.046  1.00  0.00     0.011 C 
HETATM   25  C3  UNL     1      21.122   4.475  49.417  1.00  0.00     0.001 C 
BRANCH  25  26
HETATM   26  C2  UNL     1      20.322   5.639  49.943  1.00  0.00     0.296 C 
BRANCH  26  27
HETATM   27  N1  UNL     1      20.761   6.848  49.274  1.00  0.00     0.082 N 
HETATM   28  C1  UNL     1      21.252   7.843  50.207  1.00  0.00     0.307 C 
HETATM   29  H4  UNL     1      20.001   7.300  48.742  1.00  0.00     0.315 HD
ENDBRANCH  26  27
ENDBRANCH  25  26
ENDBRANCH   1  24
BRANCH   4  30
HETATM   30  O1  UNL     1      20.873  -0.596  52.917  1.00  0.00    -0.358 OA
HETATM   31  C8  UNL     1      19.581  -0.562  53.474  1.00  0.00     0.209 C 
ENDBRANCH   4  30
TORSDOF 6
ENDMDL
MODEL 7
REMARK VINA RESULT:      -7.7      4.834      7.228
REMARK  6 active torsions:
REMARK  status: ('A' for Active; 'I' for Inactive)
REMARK    1  A    between atoms: N1_2  and  C2_3 
REMARK    2  A    between atoms: C2_3  and  C3_4 
REMARK    3  A    between atoms: C4_5  and  C5_6 
REMARK    4  A    between atoms: C7_9  and  O1_10 
REMARK    5  A    between atoms: C14_18  and  N4_19 
REMARK    6  A    between atoms: N4_19  and  C15_20 
ROOT
HETATM    1  C5  UNL     1      23.538   4.647  50.347  1.00  0.00     0.279 C 
HETATM    2  N2  UNL     1      24.427   5.771  50.019  1.00  0.00     0.102 N 
HETATM    3  C6  UNL     1      25.402   5.415  49.036  1.00  0.00     0.335 C 
HETATM    4  C7  UNL     1      26.286   4.321  49.517  1.00  0.00     0.081 C 
HETATM    5  C9  UNL     1      25.749   3.466  50.371  1.00  0.00    -0.013 A 
HETATM    6  C10 UNL     1      26.707   2.411  50.793  1.00  0.00     0.070 A 
HETATM    7  C11 UNL     1      26.097   1.464  51.733  1.00  0.00     0.003 A 
HETATM    8  C12 UNL     1      24.849   1.527  52.166  1.00  0.00     0.068 A 
HETATM    9  C13 UNL     1      24.403   0.521  53.086  1.00  0.00     0.101 C 
HETATM   10  N3  UNL     1      24.046  -0.289  53.849  1.00  0.00    -0.191 NA
HETATM   11  C14 UNL     1      24.000   2.606  51.690  1.00  0.00     0.062 A 
HETATM   12  C21 UNL     1      24.369   3.551  50.843  1.00  0.00     0.016 A 
HETATM   13  H10 UNL     1      24.944   5.984  50.920  1.00  0.00     0.317 HD
ENDROOT
BRANCH  11  14
HETATM   14  N4  UNL     1      22.659   2.681  52.148  1.00  0.00    -0.354 N 
HETATM   15  H19 UNL     1      22.325   3.190  52.994  1.00  0.00     0.166 HD
BRANCH  14  16
HETATM   16  C15 UNL     1      21.457   2.131  51.635  1.00  0.00     0.034 A 
HETATM   17  C16 UNL     1      21.477   0.918  50.936  1.00  0.00     0.032 A 
HETATM   18  C17 UNL     1      20.264   0.443  50.464  1.00  0.00     0.046 A 
HETATM   19  C18 UNL     1      19.106   1.165  50.695  1.00  0.00     0.138 A 
HETATM   20  F1  UNL     1      17.923   0.671  50.217  1.00  0.00    -0.204 F 
HETATM   21  C19 UNL     1      19.101   2.364  51.388  1.00  0.00     0.074 A 
HETATM   22 CL1  UNL     1      17.624   3.279  51.679  1.00  0.00    -0.081 Cl
HETATM   23  C20 UNL     1      20.294   2.863  51.871  1.00  0.00     0.056 A 
ENDBRANCH  14  16
ENDBRANCH  11  14
BRANCH   1  24
HETATM   24  C4  UNL     1      22.699   4.302  49.169  1.00  0.00     0.011 C 
HETATM   25  C3  UNL     1      22.589   3.323  48.270  1.00  0.00     0.001 C 
BRANCH  25  26
HETATM   26  C2  UNL     1      21.596   3.245  47.138  1.00  0.00     0.296 C 
BRANCH  26  27
HETATM   27  N1  UNL     1      22.001   4.170  46.097  1.00  0.00     0.082 N 
HETATM   28  C1  UNL     1      21.293   3.937  44.854  1.00  0.00     0.307 C 
HETATM   29  H4  UNL     1      23.006   4.096  45.876  1.00  0.00     0.315 HD
ENDBRANCH  26  27
ENDBRANCH  25  26
ENDBRANCH   1  24
BRANCH   4  30
HETATM   30  O1  UNL     1      27.581   4.277  49.046  1.00  0.00    -0.358 OA
HETATM   31  C8  UNL     1      28.258   5.342  48.423  1.00  0.00     0.209 C 
ENDBRANCH   4  30
TORSDOF 6
ENDMDL
MODEL 8
REMARK VINA RESULT:      -7.7      4.549      6.866
REMARK  6 active torsions:
REMARK  status: ('A' for Active; 'I' for Inactive)
REMARK    1  A    between atoms: N1_2  and  C2_3 
REMARK    2  A    between atoms: C2_3  and  C3_4 
REMARK    3  A    between atoms: C4_5  and  C5_6 
REMARK    4  A    between atoms: C7_9  and  O1_10 
REMARK    5  A    between atoms: C14_18  and  N4_19 
REMARK    6  A    between atoms: N4_19  and  C15_20 
ROOT
HETATM    1  C5  UNL     1      24.106   3.384  52.219  1.00  0.00     0.279 C 
HETATM    2  N2  UNL     1      24.872   3.310  53.473  1.00  0.00     0.102 N 
HETATM    3  C6  UNL     1      25.681   2.134  53.539  1.00  0.00     0.335 C 
HETATM    4  C7  UNL     1      24.854   0.900  53.490  1.00  0.00     0.081 C 
HETATM    5  C9  UNL     1      23.719   0.980  52.816  1.00  0.00    -0.013 A 
HETATM    6  C10 UNL     1      22.964  -0.299  52.825  1.00  0.00     0.070 A 
HETATM    7  C11 UNL     1      21.712  -0.200  52.067  1.00  0.00     0.003 A 
HETATM    8  C12 UNL     1      21.288   0.889  51.447  1.00  0.00     0.068 A 
HETATM    9  C13 UNL     1      20.038   0.823  50.747  1.00  0.00     0.101 C 
HETATM   10  N3  UNL     1      19.012   0.773  50.191  1.00  0.00    -0.191 NA
HETATM   11  C14 UNL     1      22.107   2.088  51.509  1.00  0.00     0.062 A 
HETATM   12  C21 UNL     1      23.263   2.192  52.141  1.00  0.00     0.016 A 
HETATM   13  H10 UNL     1      24.140   3.237  54.237  1.00  0.00     0.317 HD
ENDROOT
BRANCH  11  14
HETATM   14  N4  UNL     1      21.660   3.262  50.847  1.00  0.00    -0.354 N 
HETATM   15  H19 UNL     1      21.196   4.081  51.293  1.00  0.00     0.166 HD
BRANCH  14  16
HETATM   16  C15 UNL     1      21.707   3.648  49.483  1.00  0.00     0.034 A 
HETATM   17  C16 UNL     1      22.363   2.844  48.544  1.00  0.00     0.032 A 
HETATM   18  C17 UNL     1      22.368   3.285  47.230  1.00  0.00     0.046 A 
HETATM   19  C18 UNL     1      21.739   4.474  46.902  1.00  0.00     0.138 A 
HETATM   20  F1  UNL     1      21.759   4.885  45.598  1.00  0.00    -0.204 F 
HETATM   21  C19 UNL     1      21.093   5.260  47.843  1.00  0.00     0.074 A 
HETATM   22 CL1  UNL     1      20.294   6.772  47.421  1.00  0.00    -0.081 Cl
HETATM   23  C20 UNL     1      21.072   4.846  49.160  1.00  0.00     0.056 A 
ENDBRANCH  14  16
ENDBRANCH  11  14
BRANCH   1  24
HETATM   24  C4  UNL     1      25.032   3.563  51.069  1.00  0.00     0.011 C 
HETATM   25  C3  UNL     1      25.426   4.534  50.244  1.00  0.00     0.001 C 
BRANCH  25  26
HETATM   26  C2  UNL     1      26.425   4.412  49.121  1.00  0.00     0.296 C 
BRANCH  26  27
HETATM   27  N1  UNL     1      27.448   5.425  49.294  1.00  0.00     0.082 N 
HETATM   28  C1  UNL     1      28.528   5.279  48.339  1.00  0.00     0.307 C 
HETATM   29  H4  UNL     1      27.882   5.389  50.230  1.00  0.00     0.315 HD
ENDBRANCH  26  27
ENDBRANCH  25  26
ENDBRANCH   1  24
BRANCH   4  30
HETATM   30  O1  UNL     1      25.322  -0.222  54.141  1.00  0.00    -0.358 OA
HETATM   31  C8  UNL     1      26.075  -0.220  55.330  1.00  0.00     0.209 C 
ENDBRANCH   4  30
TORSDOF 6
ENDMDL
MODEL 9
REMARK VINA RESULT:      -7.7      4.331      6.707
REMARK  6 active torsions:
REMARK  status: ('A' for Active; 'I' for Inactive)
REMARK    1  A    between atoms: N1_2  and  C2_3 
REMARK    2  A    between atoms: C2_3  and  C3_4 
REMARK    3  A    between atoms: C4_5  and  C5_6 
REMARK    4  A    between atoms: C7_9  and  O1_10 
REMARK    5  A    between atoms: C14_18  and  N4_19 
REMARK    6  A    between atoms: N4_19  and  C15_20 
ROOT
HETATM    1  C5  UNL     1      23.574   2.836  52.611  1.00  0.00     0.279 C 
HETATM    2  N2  UNL     1      24.846   3.149  53.280  1.00  0.00     0.102 N 
HETATM    3  C6  UNL     1      25.867   2.200  52.962  1.00  0.00     0.335 C 
HETATM    4  C7  UNL     1      25.496   0.831  53.404  1.00  0.00     0.081 C 
HETATM    5  C9  UNL     1      24.205   0.549  53.421  1.00  0.00    -0.013 A 
HETATM    6  C10 UNL     1      23.934  -0.839  53.876  1.00  0.00     0.070 A 
HETATM    7  C11 UNL     1      22.498  -1.142  53.881  1.00  0.00     0.003 A 
HETATM    8  C12 UNL     1      21.545  -0.294  53.531  1.00  0.00     0.068 A 
HETATM    9  C13 UNL     1      20.186  -0.746  53.591  1.00  0.00     0.101 C 
HETATM   10  N3  UNL     1      19.077  -1.108  53.656  1.00  0.00    -0.191 NA
HETATM   11  C14 UNL     1      21.926   1.043  53.106  1.00  0.00     0.062 A 
HETATM   12  C21 UNL     1      23.164   1.499  53.034  1.00  0.00     0.016 A 
HETATM   13  H10 UNL     1      24.639   3.059  54.317  1.00  0.00     0.317 HD
ENDROOT
BRANCH  11  14
HETATM   14  N4  UNL     1      20.910   1.960  52.727  1.00  0.00    -0.354 N 
HETATM   15  H19 UNL     1      20.427   2.636  53.354  1.00  0.00     0.166 HD
BRANCH  14  16
HETATM   16  C15 UNL     1      20.293   2.216  51.476  1.00  0.00     0.034 A 
HETATM   17  C16 UNL     1      20.174   1.195  50.525  1.00  0.00     0.032 A 
HETATM   18  C17 UNL     1      19.560   1.519  49.326  1.00  0.00     0.046 A 
HETATM   19  C18 UNL     1      19.096   2.807  49.118  1.00  0.00     0.138 A 
HETATM   20  F1  UNL     1      18.493   3.098  47.925  1.00  0.00    -0.204 F 
HETATM   21  C19 UNL     1      19.220   3.807  50.069  1.00  0.00     0.074 A 
HETATM   22 CL1  UNL     1      18.628   5.444  49.798  1.00  0.00    -0.081 Cl
HETATM   23  C20 UNL     1      19.828   3.514  51.273  1.00  0.00     0.056 A 
ENDBRANCH  14  16
ENDBRANCH  11  14
BRANCH   1  24
HETATM   24  C4  UNL     1      23.721   3.002  51.140  1.00  0.00     0.011 C 
HETATM   25  C3  UNL     1      23.310   3.831  50.180  1.00  0.00     0.001 C 
BRANCH  25  26
HETATM   26  C2  UNL     1      23.636   3.741  48.711  1.00  0.00     0.296 C 
BRANCH  26  27
HETATM   27  N1  UNL     1      22.721   2.807  48.085  1.00  0.00     0.082 N 
HETATM   28  C1  UNL     1      22.019   3.398  46.963  1.00  0.00     0.307 C 
HETATM   29  H4  UNL     1      21.995   2.472  48.738  1.00  0.00     0.315 HD
ENDBRANCH  26  27
ENDBRANCH  25  26
ENDBRANCH   1  24
BRANCH   4  30
HETATM   30  O1  UNL     1      26.510  -0.034  53.759  1.00  0.00    -0.358 OA
HETATM   31  C8  UNL     1      27.523   0.239  54.697  1.00  0.00     0.209 C 
ENDBRANCH   4  30
TORSDOF 6
ENDMDL
