MODEL 1
REMARK VINA RESULT:      -7.6      0.000      0.000
REMARK  3 active torsions:
REMARK  status: ('A' for Active; 'I' for Inactive)
REMARK    1  A    between atoms: C1_2  and  N2_3 
REMARK    2  A    between atoms: C8_13  and  N4_14 
REMARK    3  A    between atoms: N4_14  and  C9_15 
ROOT
HETATM    1  N2  UNL     1      22.795   2.084  51.519  1.00  0.00    -0.216 NA
HETATM    2  C2  UNL     1      23.172   1.217  52.368  1.00  0.00     0.194 C 
HETATM    3  O1  UNL     1      22.125   0.707  53.073  1.00  0.00    -0.327 OA
HETATM    4  C3  UNL     1      20.748   0.679  52.714  1.00  0.00     0.228 C 
HETATM    5  C4  UNL     1      20.154  -0.511  53.437  1.00  0.00     0.034 C 
HETATM    6 CL1  UNL     1      18.449  -0.687  53.109  1.00  0.00    -0.087 Cl
HETATM    7  C5  UNL     1      21.017  -1.194  54.180  1.00  0.00     0.014 C 
HETATM    8  C6  UNL     1      22.240  -1.640  54.843  1.00  0.00     0.147 C 
HETATM    9  N3  UNL     1      23.431  -0.881  54.585  1.00  0.00    -0.393 N 
HETATM   10  C7  UNL     1      24.537  -0.383  53.837  1.00  0.00     0.117 C 
HETATM   11  C8  UNL     1      24.369   0.525  52.893  1.00  0.00     0.101 C 
HETATM   12  H8  UNL     1      23.777  -0.287  55.411  1.00  0.00     0.159 HD
ENDROOT
BRANCH  11  13
HETATM   13  N4  UNL     1      25.459   1.007  52.124  1.00  0.00    -0.352 N 
HETATM   14  H10 UNL     1      25.566   1.430  51.181  1.00  0.00     0.166 HD
BRANCH  13  15
HETATM   15  C9  UNL     1      26.762   0.933  52.708  1.00  0.00     0.034 A 
HETATM   16  C10 UNL     1      27.181   2.164  53.175  1.00  0.00     0.029 A 
HETATM   17  C11 UNL     1      28.418   2.304  53.775  1.00  0.00     0.004 A 
HETATM   18  C12 UNL     1      29.218   1.164  53.888  1.00  0.00     0.019 A 
HETATM   19  C13 UNL     1      28.777  -0.054  53.415  1.00  0.00     0.013 A 
HETATM   20 BR1  UNL     1      29.811  -1.656  53.528  1.00  0.00    -0.051 Br
HETATM   21  C14 UNL     1      27.553  -0.190  52.822  1.00  0.00     0.048 A 
ENDBRANCH  13  15
ENDBRANCH  11  13
BRANCH   1  22
HETATM   22  C1  UNL     1      23.601   2.810  50.630  1.00  0.00     0.226 C 
HETATM   23  N1  UNL     1      23.818   3.707  51.528  1.00  0.00    -0.293 NA
HETATM   24  H1  UNL     1      24.434   4.534  51.291  1.00  0.00     0.187 HD
ENDBRANCH   1  22
TORSDOF 3
ENDMDL
MODEL 2
REMARK VINA RESULT:      -7.4      3.950      6.506
REMARK  3 active torsions:
REMARK  status: ('A' for Active; 'I' for Inactive)
REMARK    1  A    between atoms: C1_2  and  N2_3 
REMARK    2  A    between atoms: C8_13  and  N4_14 
REMARK    3  A    between atoms: N4_14  and  C9_15 
ROOT
HETATM    1  N2  UNL     1      24.120  -0.738  53.369  1.00  0.00    -0.216 NA
HETATM    2  C2  UNL     1      24.754   0.362  53.433  1.00  0.00     0.194 C 
HETATM    3  O1  UNL     1      26.066   0.173  53.740  1.00  0.00    -0.327 OA
HETATM    4  C3  UNL     1      26.855  -0.999  53.568  1.00  0.00     0.228 C 
HETATM    5  C4  UNL     1      28.284  -0.521  53.416  1.00  0.00     0.034 C 
HETATM    6 CL1  UNL     1      29.395  -1.849  53.201  1.00  0.00    -0.087 Cl
HETATM    7  C5  UNL     1      28.434   0.797  53.475  1.00  0.00     0.014 C 
HETATM    8  C6  UNL     1      28.166   2.228  53.592  1.00  0.00     0.147 C 
HETATM    9  N3  UNL     1      26.797   2.619  53.774  1.00  0.00    -0.393 N 
HETATM   10  C7  UNL     1      25.433   2.835  53.421  1.00  0.00     0.117 C 
HETATM   11  C8  UNL     1      24.593   1.824  53.291  1.00  0.00     0.101 C 
HETATM   12  H8  UNL     1      26.558   2.987  54.755  1.00  0.00     0.159 HD
ENDROOT
BRANCH  11  13
HETATM   13  N4  UNL     1      23.241   2.028  52.914  1.00  0.00    -0.352 N 
HETATM   14  H10 UNL     1      22.320   1.710  53.274  1.00  0.00     0.166 HD
BRANCH  13  15
HETATM   15  C9  UNL     1      22.990   2.855  51.776  1.00  0.00     0.034 A 
HETATM   16  C10 UNL     1      23.290   2.203  50.595  1.00  0.00     0.029 A 
HETATM   17  C11 UNL     1      23.116   2.836  49.379  1.00  0.00     0.004 A 
HETATM   18  C12 UNL     1      22.632   4.147  49.392  1.00  0.00     0.019 A 
HETATM   19  C13 UNL     1      22.339   4.776  50.583  1.00  0.00     0.013 A 
HETATM   20 BR1  UNL     1      21.678   6.566  50.685  1.00  0.00    -0.051 Br
HETATM   21  C14 UNL     1      22.511   4.149  51.785  1.00  0.00     0.048 A 
ENDBRANCH  13  15
ENDBRANCH  11  13
BRANCH   1  22
HETATM   22  C1  UNL     1      22.759  -0.918  53.079  1.00  0.00     0.226 C 
HETATM   23  N1  UNL     1      22.465  -0.856  54.331  1.00  0.00    -0.293 NA
HETATM   24  H1  UNL     1      21.453  -0.951  54.627  1.00  0.00     0.187 HD
ENDBRANCH   1  22
TORSDOF 3
ENDMDL
MODEL 3
REMARK VINA RESULT:      -7.3      2.224      3.958
REMARK  3 active torsions:
REMARK  status: ('A' for Active; 'I' for Inactive)
REMARK    1  A    between atoms: C1_2  and  N2_3 
REMARK    2  A    between atoms: C8_13  and  N4_14 
REMARK    3  A    between atoms: N4_14  and  C9_15 
ROOT
HETATM    1  N2  UNL     1      20.893  -0.200  53.593  1.00  0.00    -0.216 NA
HETATM    2  C2  UNL     1      21.482   0.362  52.617  1.00  0.00     0.194 C 
HETATM    3  O1  UNL     1      20.721   0.348  51.489  1.00  0.00    -0.327 OA
HETATM    4  C3  UNL     1      19.309   0.211  51.377  1.00  0.00     0.228 C 
HETATM    5  C4  UNL     1      18.924   0.904  50.087  1.00  0.00     0.034 C 
HETATM    6 CL1  UNL     1      17.207   0.821  49.791  1.00  0.00    -0.087 Cl
HETATM    7  C5  UNL     1      19.942   1.439  49.423  1.00  0.00     0.014 C 
HETATM    8  C6  UNL     1      21.283   1.866  49.032  1.00  0.00     0.147 C 
HETATM    9  N3  UNL     1      22.357   1.522  49.920  1.00  0.00    -0.393 N 
HETATM   10  C7  UNL     1      23.157   1.575  51.099  1.00  0.00     0.117 C 
HETATM   11  C8  UNL     1      22.731   1.055  52.236  1.00  0.00     0.101 C 
HETATM   12  H8  UNL     1      23.020   0.758  49.556  1.00  0.00     0.159 HD
ENDROOT
BRANCH  11  13
HETATM   13  N4  UNL     1      23.508   1.126  53.421  1.00  0.00    -0.352 N 
HETATM   14  H10 UNL     1      23.322   1.383  54.410  1.00  0.00     0.166 HD
BRANCH  13  15
HETATM   15  C9  UNL     1      24.891   0.776  53.325  1.00  0.00     0.034 A 
HETATM   16  C10 UNL     1      25.059  -0.565  53.041  1.00  0.00     0.029 A 
HETATM   17  C11 UNL     1      26.325  -1.102  52.909  1.00  0.00     0.004 A 
HETATM   18  C12 UNL     1      27.416  -0.244  53.074  1.00  0.00     0.019 A 
HETATM   19  C13 UNL     1      27.222   1.092  53.356  1.00  0.00     0.013 A 
HETATM   20 BR1  UNL     1      28.658   2.328  53.599  1.00  0.00    -0.051 Br
HETATM   21  C14 UNL     1      25.969   1.621  53.486  1.00  0.00     0.048 A 
ENDBRANCH  13  15
ENDBRANCH  11  13
BRANCH   1  22
HETATM   22  C1  UNL     1      21.381  -0.368  54.898  1.00  0.00     0.226 C 
HETATM   23  N1  UNL     1      21.164  -1.635  54.837  1.00  0.00    -0.293 NA
HETATM   24  H1  UNL     1      21.401  -2.238  55.673  1.00  0.00     0.187 HD
ENDBRANCH   1  22
TORSDOF 3
ENDMDL
MODEL 4
REMARK VINA RESULT:      -7.0      3.613      5.300
REMARK  3 active torsions:
REMARK  status: ('A' for Active; 'I' for Inactive)
REMARK    1  A    between atoms: C1_2  and  N2_3 
REMARK    2  A    between atoms: C8_13  and  N4_14 
REMARK    3  A    between atoms: N4_14  and  C9_15 
ROOT
HETATM    1  N2  UNL     1      26.106   1.054  53.042  1.00  0.00    -0.216 NA
HETATM    2  C2  UNL     1      25.166   1.345  52.238  1.00  0.00     0.194 C 
HETATM    3  O1  UNL     1      24.135   0.460  52.322  1.00  0.00    -0.327 OA
HETATM    4  C3  UNL     1      23.796  -0.402  53.402  1.00  0.00     0.228 C 
HETATM    5  C4  UNL     1      22.305  -0.640  53.293  1.00  0.00     0.034 C 
HETATM    6 CL1  UNL     1      21.719  -1.695  54.553  1.00  0.00    -0.087 Cl
HETATM    7  C5  UNL     1      21.719  -0.018  52.276  1.00  0.00     0.014 C 
HETATM    8  C6  UNL     1      21.485   0.804  51.091  1.00  0.00     0.147 C 
HETATM    9  N3  UNL     1      22.624   1.475  50.532  1.00  0.00    -0.393 N 
HETATM   10  C7  UNL     1      23.680   2.430  50.451  1.00  0.00     0.117 C 
HETATM   11  C8  UNL     1      24.756   2.324  51.209  1.00  0.00     0.101 C 
HETATM   12  H8  UNL     1      22.968   1.079  49.594  1.00  0.00     0.159 HD
ENDROOT
BRANCH  11  13
HETATM   13  N4  UNL     1      25.798   3.284  51.154  1.00  0.00    -0.352 N 
HETATM   14  H10 UNL     1      26.762   3.347  51.538  1.00  0.00     0.166 HD
BRANCH  13  15
HETATM   15  C9  UNL     1      25.554   4.483  50.417  1.00  0.00     0.034 A 
HETATM   16  C10 UNL     1      26.441   4.627  49.368  1.00  0.00     0.029 A 
HETATM   17  C11 UNL     1      26.370   5.726  48.533  1.00  0.00     0.004 A 
HETATM   18  C12 UNL     1      25.378   6.675  48.790  1.00  0.00     0.019 A 
HETATM   19  C13 UNL     1      24.503   6.509  49.843  1.00  0.00     0.013 A 
HETATM   20 BR1  UNL     1      23.123   7.761  50.263  1.00  0.00    -0.051 Br
HETATM   21  C14 UNL     1      24.574   5.422  50.668  1.00  0.00     0.048 A 
ENDBRANCH  13  15
ENDBRANCH  11  13
BRANCH   1  22
HETATM   22  C1  UNL     1      27.316   1.744  53.219  1.00  0.00     0.226 C 
HETATM   23  N1  UNL     1      26.757   2.545  54.058  1.00  0.00    -0.293 NA
HETATM   24  H1  UNL     1      27.338   3.311  54.502  1.00  0.00     0.187 HD
ENDBRANCH   1  22
TORSDOF 3
ENDMDL
MODEL 5
REMARK VINA RESULT:      -7.0      2.066      3.799
REMARK  3 active torsions:
REMARK  status: ('A' for Active; 'I' for Inactive)
REMARK    1  A    between atoms: C1_2  and  N2_3 
REMARK    2  A    between atoms: C8_13  and  N4_14 
REMARK    3  A    between atoms: N4_14  and  C9_15 
ROOT
HETATM    1  N2  UNL     1      21.407  -0.476  53.310  1.00  0.00    -0.216 NA
HETATM    2  C2  UNL     1      22.117   0.540  53.029  1.00  0.00     0.194 C 
HETATM    3  O1  UNL     1      21.422   1.460  52.305  1.00  0.00    -0.327 OA
HETATM    4  C3  UNL     1      20.012   1.633  52.217  1.00  0.00     0.228 C 
HETATM    5  C4  UNL     1      19.791   3.093  51.882  1.00  0.00     0.034 C 
HETATM    6 CL1  UNL     1      18.096   3.477  51.728  1.00  0.00    -0.087 Cl
HETATM    7  C5  UNL     1      20.905   3.807  51.764  1.00  0.00     0.014 C 
HETATM    8  C6  UNL     1      22.310   4.205  51.730  1.00  0.00     0.147 C 
HETATM    9  N3  UNL     1      23.280   3.185  52.010  1.00  0.00    -0.393 N 
HETATM   10  C7  UNL     1      24.016   2.248  52.793  1.00  0.00     0.117 C 
HETATM   11  C8  UNL     1      23.465   1.120  53.203  1.00  0.00     0.101 C 
HETATM   12  H8  UNL     1      23.854   2.860  51.160  1.00  0.00     0.159 HD
ENDROOT
BRANCH  11  13
HETATM   13  N4  UNL     1      24.181   0.195  54.006  1.00  0.00    -0.352 N 
HETATM   14  H10 UNL     1      23.937  -0.445  54.787  1.00  0.00     0.166 HD
BRANCH  13  15
HETATM   15  C9  UNL     1      25.578   0.039  53.747  1.00  0.00     0.034 A 
HETATM   16  C10 UNL     1      25.837  -1.105  53.019  1.00  0.00     0.029 A 
HETATM   17  C11 UNL     1      27.132  -1.436  52.667  1.00  0.00     0.004 A 
HETATM   18  C12 UNL     1      28.156  -0.577  53.074  1.00  0.00     0.019 A 
HETATM   19  C13 UNL     1      27.872   0.561  53.799  1.00  0.00     0.013 A 
HETATM   20 BR1  UNL     1      29.214   1.783  54.395  1.00  0.00    -0.051 Br
HETATM   21  C14 UNL     1      26.591   0.887  54.146  1.00  0.00     0.048 A 
ENDBRANCH  13  15
ENDBRANCH  11  13
BRANCH   1  22
HETATM   22  C1  UNL     1      21.799  -1.611  54.036  1.00  0.00     0.226 C 
HETATM   23  N1  UNL     1      20.703  -1.580  54.711  1.00  0.00    -0.293 NA
HETATM   24  H1  UNL     1      20.535  -2.317  55.452  1.00  0.00     0.187 HD
ENDBRANCH   1  22
TORSDOF 3
ENDMDL
MODEL 6
REMARK VINA RESULT:      -7.0      1.624      2.034
REMARK  3 active torsions:
REMARK  status: ('A' for Active; 'I' for Inactive)
REMARK    1  A    between atoms: C1_2  and  N2_3 
REMARK    2  A    between atoms: C8_13  and  N4_14 
REMARK    3  A    between atoms: N4_14  and  C9_15 
ROOT
HETATM    1  N2  UNL     1      23.998   3.896  51.074  1.00  0.00    -0.216 NA
HETATM    2  C2  UNL     1      23.815   2.816  51.717  1.00  0.00     0.194 C 
HETATM    3  O1  UNL     1      22.575   2.762  52.276  1.00  0.00    -0.327 OA
HETATM    4  C3  UNL     1      21.403   3.475  51.898  1.00  0.00     0.228 C 
HETATM    5  C4  UNL     1      20.234   2.617  52.332  1.00  0.00     0.034 C 
HETATM    6 CL1  UNL     1      18.703   3.358  51.945  1.00  0.00    -0.087 Cl
HETATM    7  C5  UNL     1      20.575   1.476  52.921  1.00  0.00     0.014 C 
HETATM    8  C6  UNL     1      21.352   0.377  53.489  1.00  0.00     0.147 C 
HETATM    9  N3  UNL     1      22.781   0.491  53.424  1.00  0.00    -0.393 N 
HETATM   10  C7  UNL     1      24.073   0.515  52.821  1.00  0.00     0.117 C 
HETATM   11  C8  UNL     1      24.469   1.546  52.097  1.00  0.00     0.101 C 
HETATM   12  H8  UNL     1      23.264   0.678  54.366  1.00  0.00     0.159 HD
ENDROOT
BRANCH  11  13
HETATM   13  N4  UNL     1      25.741   1.566  51.471  1.00  0.00    -0.352 N 
HETATM   14  H10 UNL     1      26.092   1.801  50.521  1.00  0.00     0.166 HD
BRANCH  13  15
HETATM   15  C9  UNL     1      26.872   1.189  52.261  1.00  0.00     0.034 A 
HETATM   16  C10 UNL     1      27.426   2.276  52.909  1.00  0.00     0.029 A 
HETATM   17  C11 UNL     1      28.531   2.120  53.723  1.00  0.00     0.004 A 
HETATM   18  C12 UNL     1      29.060   0.834  53.862  1.00  0.00     0.019 A 
HETATM   19  C13 UNL     1      28.488  -0.235  53.206  1.00  0.00     0.013 A 
HETATM   20 BR1  UNL     1      29.153  -2.021  53.341  1.00  0.00    -0.051 Br
HETATM   21  C14 UNL     1      27.395  -0.079  52.401  1.00  0.00     0.048 A 
ENDBRANCH  13  15
ENDBRANCH  11  13
BRANCH   1  22
HETATM   22  C1  UNL     1      25.153   4.286  50.379  1.00  0.00     0.226 C 
HETATM   23  N1  UNL     1      24.718   3.726  49.304  1.00  0.00    -0.293 NA
HETATM   24  H1  UNL     1      25.311   3.766  48.428  1.00  0.00     0.187 HD
ENDBRANCH   1  22
TORSDOF 3
ENDMDL
MODEL 7
REMARK VINA RESULT:      -6.9      5.807      8.273
REMARK  3 active torsions:
REMARK  status: ('A' for Active; 'I' for Inactive)
REMARK    1  A    between atoms: C1_2  and  N2_3 
REMARK    2  A    between atoms: C8_13  and  N4_14 
REMARK    3  A    between atoms: N4_14  and  C9_15 
ROOT
HETATM    1  N2  UNL     1      24.289   7.313  49.643  1.00  0.00    -0.216 NA
HETATM    2  C2  UNL     1      25.163   6.394  49.568  1.00  0.00     0.194 C 
HETATM    3  O1  UNL     1      26.107   6.667  48.626  1.00  0.00    -0.327 OA
HETATM    4  C3  UNL     1      26.474   7.931  48.083  1.00  0.00     0.228 C 
HETATM    5  C4  UNL     1      27.915   7.792  47.641  1.00  0.00     0.034 C 
HETATM    6 CL1  UNL     1      28.525   9.267  46.937  1.00  0.00    -0.087 Cl
HETATM    7  C5  UNL     1      28.448   6.595  47.862  1.00  0.00     0.014 C 
HETATM    8  C6  UNL     1      28.634   5.204  48.266  1.00  0.00     0.147 C 
HETATM    9  N3  UNL     1      27.513   4.552  48.880  1.00  0.00    -0.393 N 
HETATM   10  C7  UNL     1      26.551   4.261  49.892  1.00  0.00     0.117 C 
HETATM   11  C8  UNL     1      25.556   5.091  50.145  1.00  0.00     0.101 C 
HETATM   12  H8  UNL     1      27.036   3.804  48.272  1.00  0.00     0.159 HD
ENDROOT
BRANCH  11  13
HETATM   13  N4  UNL     1      24.610   4.824  51.168  1.00  0.00    -0.352 N 
HETATM   14  H10 UNL     1      24.268   5.333  52.006  1.00  0.00     0.166 HD
BRANCH  13  15
HETATM   15  C9  UNL     1      23.912   3.577  51.113  1.00  0.00     0.034 A 
HETATM   16  C10 UNL     1      24.091   2.841  52.268  1.00  0.00     0.029 A 
HETATM   17  C11 UNL     1      23.496   1.602  52.411  1.00  0.00     0.004 A 
HETATM   18  C12 UNL     1      22.717   1.129  51.352  1.00  0.00     0.019 A 
HETATM   19  C13 UNL     1      22.552   1.883  50.209  1.00  0.00     0.013 A 
HETATM   20 BR1  UNL     1      21.507   1.306  48.717  1.00  0.00    -0.051 Br
HETATM   21  C14 UNL     1      23.141   3.109  50.069  1.00  0.00     0.048 A 
ENDBRANCH  13  15
ENDBRANCH  11  13
BRANCH   1  22
HETATM   22  C1  UNL     1      23.177   7.360  50.498  1.00  0.00     0.226 C 
HETATM   23  N1  UNL     1      23.904   7.834  51.448  1.00  0.00    -0.293 NA
HETATM   24  H1  UNL     1      23.454   8.049  52.382  1.00  0.00     0.187 HD
ENDBRANCH   1  22
TORSDOF 3
ENDMDL
MODEL 8
REMARK VINA RESULT:      -6.9      3.812      5.224
REMARK  3 active torsions:
REMARK  status: ('A' for Active; 'I' for Inactive)
REMARK    1  A    between atoms: C1_2  and  N2_3 
REMARK    2  A    between atoms: C8_13  and  N4_14 
REMARK    3  A    between atoms: N4_14  and  C9_15 
ROOT
HETATM    1  N2  UNL     1      22.906   2.750  50.569  1.00  0.00    -0.216 NA
HETATM    2  C2  UNL     1      24.104   2.596  50.966  1.00  0.00     0.194 C 
HETATM    3  O1  UNL     1      24.164   1.926  52.149  1.00  0.00    -0.327 OA
HETATM    4  C3  UNL     1      23.195   1.056  52.723  1.00  0.00     0.228 C 
HETATM    5  C4  UNL     1      23.965   0.104  53.613  1.00  0.00     0.034 C 
HETATM    6 CL1  UNL     1      22.913  -1.038  54.409  1.00  0.00    -0.087 Cl
HETATM    7  C5  UNL     1      25.277   0.306  53.633  1.00  0.00     0.014 C 
HETATM    8  C6  UNL     1      26.610   0.845  53.375  1.00  0.00     0.147 C 
HETATM    9  N3  UNL     1      26.697   1.949  52.462  1.00  0.00    -0.393 N 
HETATM   10  C7  UNL     1      26.657   2.625  51.208  1.00  0.00     0.117 C 
HETATM   11  C8  UNL     1      25.509   2.882  50.608  1.00  0.00     0.101 C 
HETATM   12  H8  UNL     1      26.932   2.895  52.916  1.00  0.00     0.159 HD
ENDROOT
BRANCH  11  13
HETATM   13  N4  UNL     1      25.460   3.530  49.347  1.00  0.00    -0.352 N 
HETATM   14  H10 UNL     1      25.078   3.292  48.411  1.00  0.00     0.166 HD
BRANCH  13  15
HETATM   15  C9  UNL     1      26.055   4.826  49.247  1.00  0.00     0.034 A 
HETATM   16  C10 UNL     1      25.297   5.786  49.889  1.00  0.00     0.029 A 
HETATM   17  C11 UNL     1      25.703   7.106  49.906  1.00  0.00     0.004 A 
HETATM   18  C12 UNL     1      26.896   7.428  49.255  1.00  0.00     0.019 A 
HETATM   19  C13 UNL     1      27.637   6.452  48.622  1.00  0.00     0.013 A 
HETATM   20 BR1  UNL     1      29.275   6.810  47.707  1.00  0.00    -0.051 Br
HETATM   21  C14 UNL     1      27.234   5.146  48.606  1.00  0.00     0.048 A 
ENDBRANCH  13  15
ENDBRANCH  11  13
BRANCH   1  22
HETATM   22  C1  UNL     1      22.474   3.393  49.399  1.00  0.00     0.226 C 
HETATM   23  N1  UNL     1      22.551   2.289  48.742  1.00  0.00    -0.293 NA
HETATM   24  H1  UNL     1      22.296   2.284  47.714  1.00  0.00     0.187 HD
ENDBRANCH   1  22
TORSDOF 3
ENDMDL
MODEL 9
REMARK VINA RESULT:      -6.7      4.239      6.556
REMARK  3 active torsions:
REMARK  status: ('A' for Active; 'I' for Inactive)
REMARK    1  A    between atoms: C1_2  and  N2_3 
REMARK    2  A    between atoms: C8_13  and  N4_14 
REMARK    3  A    between atoms: N4_14  and  C9_15 
ROOT
HETATM    1  N2  UNL     1      25.935   2.705  50.713  1.00  0.00    -0.216 NA
HETATM    2  C2  UNL     1      25.294   2.006  51.559  1.00  0.00     0.194 C 
HETATM    3  O1  UNL     1      26.095   1.090  52.171  1.00  0.00    -0.327 OA
HETATM    4  C3  UNL     1      27.511   1.110  52.313  1.00  0.00     0.228 C 
HETATM    5  C4  UNL     1      27.815   0.311  53.563  1.00  0.00     0.034 C 
HETATM    6 CL1  UNL     1      29.529   0.228  53.881  1.00  0.00    -0.087 Cl
HETATM    7  C5  UNL     1      26.746  -0.177  54.180  1.00  0.00     0.014 C 
HETATM    8  C6  UNL     1      25.367  -0.510  54.530  1.00  0.00     0.147 C 
HETATM    9  N3  UNL     1      24.339  -0.004  53.666  1.00  0.00    -0.393 N 
HETATM   10  C7  UNL     1      23.491   0.968  53.059  1.00  0.00     0.117 C 
HETATM   11  C8  UNL     1      23.955   1.809  52.153  1.00  0.00     0.101 C 
HETATM   12  H8  UNL     1      23.852  -0.745  53.058  1.00  0.00     0.159 HD
ENDROOT
BRANCH  11  13
HETATM   13  N4  UNL     1      23.125   2.797  51.564  1.00  0.00    -0.352 N 
HETATM   14  H10 UNL     1      23.165   3.831  51.469  1.00  0.00     0.166 HD
BRANCH  13  15
HETATM   15  C9  UNL     1      21.925   2.356  50.926  1.00  0.00     0.034 A 
HETATM   16  C10 UNL     1      22.191   1.680  49.751  1.00  0.00     0.029 A 
HETATM   17  C11 UNL     1      21.160   1.174  48.983  1.00  0.00     0.004 A 
HETATM   18  C12 UNL     1      19.853   1.371  49.437  1.00  0.00     0.019 A 
HETATM   19  C13 UNL     1      19.613   2.048  50.614  1.00  0.00     0.013 A 
HETATM   20 BR1  UNL     1      17.858   2.362  51.300  1.00  0.00    -0.051 Br
HETATM   21  C14 UNL     1      20.634   2.549  51.372  1.00  0.00     0.048 A 
ENDBRANCH  13  15
ENDBRANCH  11  13
BRANCH   1  22
HETATM   22  C1  UNL     1      25.428   3.733  49.904  1.00  0.00     0.226 C 
HETATM   23  N1  UNL     1      25.676   4.603  50.821  1.00  0.00    -0.293 NA
HETATM   24  H1  UNL     1      25.439   5.619  50.643  1.00  0.00     0.187 HD
ENDBRANCH   1  22
TORSDOF 3
ENDMDL
