MODEL 1
REMARK VINA RESULT:      -7.0      0.000      0.000
REMARK  9 active torsions:
REMARK  status: ('A' for Active; 'I' for Inactive)
REMARK    1  A    between atoms: C2_2  and  N1_3 
REMARK    2  A    between atoms: N1_3  and  C3_4 
REMARK    3  A    between atoms: N2_5  and  C4_6 
REMARK    4  A    between atoms: C4_6  and  N3_15 
REMARK    5  A    between atoms: C5_7  and  C6_8 
REMARK    6  A    between atoms: C6_8  and  C7_9 
REMARK    7  A    between atoms: C8_10  and  C9_12 
REMARK    8  A    between atoms: C9_12  and  O1_13 
REMARK    9  A    between atoms: N3_15  and  C12_17 
ROOT
HETATM    1  C4  UNL     1      25.454   2.053  51.580  1.00  0.00     0.127 C 
HETATM    2  C5  UNL     1      26.117   0.898  51.754  1.00  0.00     0.027 C 
ENDROOT
BRANCH   1   3
HETATM    3  N2  UNL     1      25.830   3.092  50.651  1.00  0.00    -0.224 NA
HETATM    4  C3  UNL     1      26.560   2.787  49.632  1.00  0.00     0.245 C 
BRANCH   4   5
HETATM    5  N1  UNL     1      26.307   4.199  49.544  1.00  0.00    -0.204 NA
BRANCH   5   6
HETATM    6  C2  UNL     1      27.167   4.925  48.914  1.00  0.00    -0.043 C 
HETATM    7  C1  UNL     1      28.219   5.489  48.345  1.00  0.00     0.119 C 
ENDBRANCH   5   6
ENDBRANCH   4   5
ENDBRANCH   1   3
BRANCH   1   8
HETATM    8  N3  UNL     1      24.279   2.394  52.306  1.00  0.00    -0.336 N 
HETATM    9  C11 UNL     1      24.266   3.459  53.298  1.00  0.00     0.158 C 
BRANCH   8  10
HETATM   10  C12 UNL     1      23.063   1.691  52.077  1.00  0.00     0.035 A 
HETATM   11  C13 UNL     1      22.589   1.547  50.790  1.00  0.00     0.033 A 
HETATM   12  C14 UNL     1      21.413   0.873  50.523  1.00  0.00     0.044 A 
HETATM   13  C15 UNL     1      20.678   0.320  51.577  1.00  0.00     0.116 A 
HETATM   14  F1  UNL     1      19.516  -0.357  51.408  1.00  0.00    -0.206 F 
HETATM   15  C16 UNL     1      21.197   0.494  52.843  1.00  0.00     0.044 A 
HETATM   16  C17 UNL     1      22.363   1.156  53.163  1.00  0.00     0.033 A 
ENDBRANCH   8  10
ENDBRANCH   1   8
BRANCH   2  17
HETATM   17  C6  UNL     1      26.141  -0.393  52.517  1.00  0.00     0.059 C 
BRANCH  17  18
HETATM   18  C7  UNL     1      27.539  -0.852  52.738  1.00  0.00    -0.001 C 
HETATM   19  C8  UNL     1      28.440  -0.528  53.686  1.00  0.00     0.032 C 
HETATM   20 CL1  UNL     1      30.080  -1.193  53.777  1.00  0.00    -0.087 Cl
BRANCH  19  21
HETATM   21  C9  UNL     1      28.217   0.428  54.798  1.00  0.00     0.218 C 
BRANCH  21  22
HETATM   22  O1  UNL     1      29.094   1.500  54.760  1.00  0.00    -0.391 OA
HETATM   23  C10 UNL     1      28.784   2.413  53.753  1.00  0.00     0.201 C 
ENDBRANCH  21  22
ENDBRANCH  19  21
ENDBRANCH  17  18
ENDBRANCH   2  17
TORSDOF 9
ENDMDL
MODEL 2
REMARK VINA RESULT:      -6.9      3.607      5.473
REMARK  9 active torsions:
REMARK  status: ('A' for Active; 'I' for Inactive)
REMARK    1  A    between atoms: C2_2  and  N1_3 
REMARK    2  A    between atoms: N1_3  and  C3_4 
REMARK    3  A    between atoms: N2_5  and  C4_6 
REMARK    4  A    between atoms: C4_6  and  N3_15 
REMARK    5  A    between atoms: C5_7  and  C6_8 
REMARK    6  A    between atoms: C6_8  and  C7_9 
REMARK    7  A    between atoms: C8_10  and  C9_12 
REMARK    8  A    between atoms: C9_12  and  O1_13 
REMARK    9  A    between atoms: N3_15  and  C12_17 
ROOT
HETATM    1  C4  UNL     1      26.146   1.509  53.539  1.00  0.00     0.127 C 
HETATM    2  C5  UNL     1      25.419   2.637  53.478  1.00  0.00     0.027 C 
ENDROOT
BRANCH   1   3
HETATM    3  N2  UNL     1      27.479   1.412  54.085  1.00  0.00    -0.224 NA
HETATM    4  C3  UNL     1      28.346   2.319  53.786  1.00  0.00     0.245 C 
BRANCH   4   5
HETATM    5  N1  UNL     1      29.013   1.389  54.654  1.00  0.00    -0.204 NA
BRANCH   5   6
HETATM    6  C2  UNL     1      29.405   0.270  54.147  1.00  0.00    -0.043 C 
HETATM    7  C1  UNL     1      30.029  -0.828  53.752  1.00  0.00     0.119 C 
ENDBRANCH   5   6
ENDBRANCH   4   5
ENDBRANCH   1   3
BRANCH   1   8
HETATM    8  N3  UNL     1      25.679   0.253  53.062  1.00  0.00    -0.336 N 
HETATM    9  C11 UNL     1      26.426  -0.532  52.091  1.00  0.00     0.158 C 
BRANCH   8  10
HETATM   10  C12 UNL     1      24.446  -0.280  53.533  1.00  0.00     0.035 A 
HETATM   11  C13 UNL     1      23.334  -0.254  52.717  1.00  0.00     0.033 A 
HETATM   12  C14 UNL     1      22.118  -0.759  53.133  1.00  0.00     0.044 A 
HETATM   13  C15 UNL     1      22.001  -1.313  54.413  1.00  0.00     0.116 A 
HETATM   14  F1  UNL     1      20.849  -1.831  54.905  1.00  0.00    -0.206 F 
HETATM   15  C16 UNL     1      23.143  -1.313  55.188  1.00  0.00     0.044 A 
HETATM   16  C17 UNL     1      24.378  -0.823  54.820  1.00  0.00     0.033 A 
ENDBRANCH   8  10
ENDBRANCH   1   8
BRANCH   2  17
HETATM   17  C6  UNL     1      24.105   3.220  53.048  1.00  0.00     0.059 C 
BRANCH  17  18
HETATM   18  C7  UNL     1      23.998   3.246  51.564  1.00  0.00    -0.001 C 
HETATM   19  C8  UNL     1      23.587   4.212  50.720  1.00  0.00     0.032 C 
HETATM   20 CL1  UNL     1      23.532   4.044  48.956  1.00  0.00    -0.087 Cl
BRANCH  19  21
HETATM   21  C9  UNL     1      23.118   5.562  51.117  1.00  0.00     0.218 C 
BRANCH  21  22
HETATM   22  O1  UNL     1      24.143   6.358  51.603  1.00  0.00    -0.391 OA
HETATM   23  C10 UNL     1      24.928   6.902  50.588  1.00  0.00     0.201 C 
ENDBRANCH  21  22
ENDBRANCH  19  21
ENDBRANCH  17  18
ENDBRANCH   2  17
TORSDOF 9
ENDMDL
MODEL 3
REMARK VINA RESULT:      -6.9      3.728      5.628
REMARK  9 active torsions:
REMARK  status: ('A' for Active; 'I' for Inactive)
REMARK    1  A    between atoms: C2_2  and  N1_3 
REMARK    2  A    between atoms: N1_3  and  C3_4 
REMARK    3  A    between atoms: N2_5  and  C4_6 
REMARK    4  A    between atoms: C4_6  and  N3_15 
REMARK    5  A    between atoms: C5_7  and  C6_8 
REMARK    6  A    between atoms: C6_8  and  C7_9 
REMARK    7  A    between atoms: C8_10  and  C9_12 
REMARK    8  A    between atoms: C9_12  and  O1_13 
REMARK    9  A    between atoms: N3_15  and  C12_17 
ROOT
HETATM    1  C4  UNL     1      26.140   1.485  53.547  1.00  0.00     0.127 C 
HETATM    2  C5  UNL     1      25.406   2.608  53.473  1.00  0.00     0.027 C 
ENDROOT
BRANCH   1   3
HETATM    3  N2  UNL     1      27.473   1.402  54.094  1.00  0.00    -0.224 NA
HETATM    4  C3  UNL     1      28.342   2.298  53.769  1.00  0.00     0.245 C 
BRANCH   4   5
HETATM    5  N1  UNL     1      29.007   1.391  54.664  1.00  0.00    -0.204 NA
BRANCH   5   6
HETATM    6  C2  UNL     1      29.389   0.254  54.189  1.00  0.00    -0.043 C 
HETATM    7  C1  UNL     1      30.019  -0.829  53.764  1.00  0.00     0.119 C 
ENDBRANCH   5   6
ENDBRANCH   4   5
ENDBRANCH   1   3
BRANCH   1   8
HETATM    8  N3  UNL     1      25.679   0.221  53.084  1.00  0.00    -0.336 N 
HETATM    9  C11 UNL     1      26.439  -0.578  52.134  1.00  0.00     0.158 C 
BRANCH   8  10
HETATM   10  C12 UNL     1      24.441  -0.306  53.547  1.00  0.00     0.035 A 
HETATM   11  C13 UNL     1      23.337  -0.284  52.722  1.00  0.00     0.033 A 
HETATM   12  C14 UNL     1      22.116  -0.783  53.131  1.00  0.00     0.044 A 
HETATM   13  C15 UNL     1      21.987  -1.327  54.414  1.00  0.00     0.116 A 
HETATM   14  F1  UNL     1      20.829  -1.839  54.899  1.00  0.00    -0.206 F 
HETATM   15  C16 UNL     1      23.121  -1.323  55.199  1.00  0.00     0.044 A 
HETATM   16  C17 UNL     1      24.360  -0.838  54.839  1.00  0.00     0.033 A 
ENDBRANCH   8  10
ENDBRANCH   1   8
BRANCH   2  17
HETATM   17  C6  UNL     1      24.090   3.180  53.037  1.00  0.00     0.059 C 
BRANCH  17  18
HETATM   18  C7  UNL     1      24.158   3.647  51.626  1.00  0.00    -0.001 C 
HETATM   19  C8  UNL     1      23.371   3.384  50.565  1.00  0.00     0.032 C 
HETATM   20 CL1  UNL     1      23.624   4.049  48.941  1.00  0.00    -0.087 Cl
BRANCH  19  21
HETATM   21  C9  UNL     1      22.176   2.506  50.574  1.00  0.00     0.218 C 
BRANCH  21  22
HETATM   22  O1  UNL     1      22.341   1.377  49.788  1.00  0.00    -0.391 OA
HETATM   23  C10 UNL     1      21.311   1.208  48.865  1.00  0.00     0.201 C 
ENDBRANCH  21  22
ENDBRANCH  19  21
ENDBRANCH  17  18
ENDBRANCH   2  17
TORSDOF 9
ENDMDL
MODEL 4
REMARK VINA RESULT:      -6.7      3.256      5.251
REMARK  9 active torsions:
REMARK  status: ('A' for Active; 'I' for Inactive)
REMARK    1  A    between atoms: C2_2  and  N1_3 
REMARK    2  A    between atoms: N1_3  and  C3_4 
REMARK    3  A    between atoms: N2_5  and  C4_6 
REMARK    4  A    between atoms: C4_6  and  N3_15 
REMARK    5  A    between atoms: C5_7  and  C6_8 
REMARK    6  A    between atoms: C6_8  and  C7_9 
REMARK    7  A    between atoms: C8_10  and  C9_12 
REMARK    8  A    between atoms: C9_12  and  O1_13 
REMARK    9  A    between atoms: N3_15  and  C12_17 
ROOT
HETATM    1  C4  UNL     1      26.258   2.301  52.271  1.00  0.00     0.127 C 
HETATM    2  C5  UNL     1      26.576   2.649  51.013  1.00  0.00     0.027 C 
ENDROOT
BRANCH   1   3
HETATM    3  N2  UNL     1      27.185   1.771  53.242  1.00  0.00    -0.224 NA
HETATM    4  C3  UNL     1      28.299   2.389  53.448  1.00  0.00     0.245 C 
BRANCH   4   5
HETATM    5  N1  UNL     1      28.298   1.248  54.322  1.00  0.00    -0.204 NA
BRANCH   5   6
HETATM    6  C2  UNL     1      29.112   0.285  54.053  1.00  0.00    -0.043 C 
HETATM    7  C1  UNL     1      29.735  -0.849  53.777  1.00  0.00     0.119 C 
ENDBRANCH   5   6
ENDBRANCH   4   5
ENDBRANCH   1   3
BRANCH   1   8
HETATM    8  N3  UNL     1      24.944   2.416  52.803  1.00  0.00    -0.336 N 
HETATM    9  C11 UNL     1      24.370   3.700  53.176  1.00  0.00     0.158 C 
BRANCH   8  10
HETATM   10  C12 UNL     1      24.140   1.256  52.987  1.00  0.00     0.035 A 
HETATM   11  C13 UNL     1      22.929   1.153  52.337  1.00  0.00     0.033 A 
HETATM   12  C14 UNL     1      22.117   0.046  52.488  1.00  0.00     0.044 A 
HETATM   13  C15 UNL     1      22.525  -1.002  53.321  1.00  0.00     0.116 A 
HETATM   14  F1  UNL     1      21.794  -2.125  53.528  1.00  0.00    -0.206 F 
HETATM   15  C16 UNL     1      23.744  -0.848  53.947  1.00  0.00     0.044 A 
HETATM   16  C17 UNL     1      24.590   0.234  53.830  1.00  0.00     0.033 A 
ENDBRANCH   8  10
ENDBRANCH   1   8
BRANCH   2  17
HETATM   17  C6  UNL     1      26.037   3.199  49.725  1.00  0.00     0.059 C 
BRANCH  17  18
HETATM   18  C7  UNL     1      27.007   4.141  49.105  1.00  0.00    -0.001 C 
HETATM   19  C8  UNL     1      26.908   5.452  48.811  1.00  0.00     0.032 C 
HETATM   20 CL1  UNL     1      28.196   6.410  48.060  1.00  0.00    -0.087 Cl
BRANCH  19  21
HETATM   21  C9  UNL     1      25.720   6.305  49.062  1.00  0.00     0.218 C 
BRANCH  21  22
HETATM   22  O1  UNL     1      25.666   6.767  50.367  1.00  0.00    -0.391 OA
HETATM   23  C10 UNL     1      24.367   6.805  50.871  1.00  0.00     0.201 C 
ENDBRANCH  21  22
ENDBRANCH  19  21
ENDBRANCH  17  18
ENDBRANCH   2  17
TORSDOF 9
ENDMDL
MODEL 5
REMARK VINA RESULT:      -6.4      3.426      5.504
REMARK  9 active torsions:
REMARK  status: ('A' for Active; 'I' for Inactive)
REMARK    1  A    between atoms: C2_2  and  N1_3 
REMARK    2  A    between atoms: N1_3  and  C3_4 
REMARK    3  A    between atoms: N2_5  and  C4_6 
REMARK    4  A    between atoms: C4_6  and  N3_15 
REMARK    5  A    between atoms: C5_7  and  C6_8 
REMARK    6  A    between atoms: C6_8  and  C7_9 
REMARK    7  A    between atoms: C8_10  and  C9_12 
REMARK    8  A    between atoms: C9_12  and  O1_13 
REMARK    9  A    between atoms: N3_15  and  C12_17 
ROOT
HETATM    1  C4  UNL     1      26.372   1.855  52.235  1.00  0.00     0.127 C 
HETATM    2  C5  UNL     1      26.700   2.381  51.043  1.00  0.00     0.027 C 
ENDROOT
BRANCH   1   3
HETATM    3  N2  UNL     1      27.303   1.574  53.301  1.00  0.00    -0.224 NA
HETATM    4  C3  UNL     1      28.309   2.362  53.479  1.00  0.00     0.245 C 
BRANCH   4   5
HETATM    5  N1  UNL     1      28.412   1.338  54.482  1.00  0.00    -0.204 NA
BRANCH   5   6
HETATM    6  C2  UNL     1      29.147   0.312  54.219  1.00  0.00    -0.043 C 
HETATM    7  C1  UNL     1      29.739  -0.774  53.750  1.00  0.00     0.119 C 
ENDBRANCH   5   6
ENDBRANCH   4   5
ENDBRANCH   1   3
BRANCH   1   8
HETATM    8  N3  UNL     1      25.040   1.505  52.592  1.00  0.00    -0.336 N 
HETATM    9  C11 UNL     1      24.719   0.242  53.241  1.00  0.00     0.158 C 
BRANCH   8  10
HETATM   10  C12 UNL     1      23.965   2.399  52.321  1.00  0.00     0.035 A 
HETATM   11  C13 UNL     1      23.975   3.666  52.864  1.00  0.00     0.033 A 
HETATM   12  C14 UNL     1      22.954   4.564  52.627  1.00  0.00     0.044 A 
HETATM   13  C15 UNL     1      21.876   4.187  51.817  1.00  0.00     0.116 A 
HETATM   14  F1  UNL     1      20.831   5.002  51.531  1.00  0.00    -0.206 F 
HETATM   15  C16 UNL     1      21.916   2.909  51.300  1.00  0.00     0.044 A 
HETATM   16  C17 UNL     1      22.910   1.976  51.505  1.00  0.00     0.033 A 
ENDBRANCH   8  10
ENDBRANCH   1   8
BRANCH   2  17
HETATM   17  C6  UNL     1      26.163   2.827  49.716  1.00  0.00     0.059 C 
BRANCH  17  18
HETATM   18  C7  UNL     1      25.968   4.302  49.693  1.00  0.00    -0.001 C 
HETATM   19  C8  UNL     1      26.726   5.290  49.177  1.00  0.00     0.032 C 
HETATM   20 CL1  UNL     1      26.315   7.012  49.255  1.00  0.00    -0.087 Cl
BRANCH  19  21
HETATM   21  C9  UNL     1      28.015   5.106  48.467  1.00  0.00     0.218 C 
BRANCH  21  22
HETATM   22  O1  UNL     1      28.477   6.280  47.894  1.00  0.00    -0.391 OA
HETATM   23  C10 UNL     1      29.852   6.448  48.045  1.00  0.00     0.201 C 
ENDBRANCH  21  22
ENDBRANCH  19  21
ENDBRANCH  17  18
ENDBRANCH   2  17
TORSDOF 9
ENDMDL
MODEL 6
REMARK VINA RESULT:      -6.4      2.743      5.274
REMARK  9 active torsions:
REMARK  status: ('A' for Active; 'I' for Inactive)
REMARK    1  A    between atoms: C2_2  and  N1_3 
REMARK    2  A    between atoms: N1_3  and  C3_4 
REMARK    3  A    between atoms: N2_5  and  C4_6 
REMARK    4  A    between atoms: C4_6  and  N3_15 
REMARK    5  A    between atoms: C5_7  and  C6_8 
REMARK    6  A    between atoms: C6_8  and  C7_9 
REMARK    7  A    between atoms: C8_10  and  C9_12 
REMARK    8  A    between atoms: C9_12  and  O1_13 
REMARK    9  A    between atoms: N3_15  and  C12_17 
ROOT
HETATM    1  C4  UNL     1      23.248   0.667  52.465  1.00  0.00     0.127 C 
HETATM    2  C5  UNL     1      24.548   0.442  52.718  1.00  0.00     0.027 C 
ENDROOT
BRANCH   1   3
HETATM    3  N2  UNL     1      22.151   0.151  53.248  1.00  0.00    -0.224 NA
HETATM    4  C3  UNL     1      22.153  -1.095  53.586  1.00  0.00     0.245 C 
BRANCH   4   5
HETATM    5  N1  UNL     1      20.953  -0.525  54.135  1.00  0.00    -0.204 NA
BRANCH   5   6
HETATM    6  C2  UNL     1      19.849  -0.721  53.497  1.00  0.00    -0.043 C 
HETATM    7  C1  UNL     1      18.608  -0.896  53.076  1.00  0.00     0.119 C 
ENDBRANCH   5   6
ENDBRANCH   4   5
ENDBRANCH   1   3
BRANCH   1   8
HETATM    8  N3  UNL     1      22.791   1.455  51.372  1.00  0.00    -0.336 N 
HETATM    9  C11 UNL     1      21.756   0.989  50.462  1.00  0.00     0.158 C 
BRANCH   8  10
HETATM   10  C12 UNL     1      23.344   2.745  51.137  1.00  0.00     0.035 A 
HETATM   11  C13 UNL     1      24.032   2.992  49.968  1.00  0.00     0.033 A 
HETATM   12  C14 UNL     1      24.586   4.228  49.699  1.00  0.00     0.044 A 
HETATM   13  C15 UNL     1      24.450   5.263  50.631  1.00  0.00     0.116 A 
HETATM   14  F1  UNL     1      24.960   6.506  50.452  1.00  0.00    -0.206 F 
HETATM   15  C16 UNL     1      23.754   4.963  51.783  1.00  0.00     0.044 A 
HETATM   16  C17 UNL     1      23.184   3.748  52.099  1.00  0.00     0.033 A 
ENDBRANCH   8  10
ENDBRANCH   1   8
BRANCH   2  17
HETATM   17  C6  UNL     1      25.948   0.721  52.255  1.00  0.00     0.059 C 
BRANCH  17  18
HETATM   18  C7  UNL     1      26.788  -0.504  52.345  1.00  0.00    -0.001 C 
HETATM   19  C8  UNL     1      27.837  -0.805  53.134  1.00  0.00     0.032 C 
HETATM   20 CL1  UNL     1      28.719  -2.342  53.086  1.00  0.00    -0.087 Cl
BRANCH  19  21
HETATM   21  C9  UNL     1      28.426   0.087  54.163  1.00  0.00     0.218 C 
BRANCH  21  22
HETATM   22  O1  UNL     1      29.305   1.012  53.623  1.00  0.00    -0.391 OA
HETATM   23  C10 UNL     1      28.834   2.320  53.720  1.00  0.00     0.201 C 
ENDBRANCH  21  22
ENDBRANCH  19  21
ENDBRANCH  17  18
ENDBRANCH   2  17
TORSDOF 9
ENDMDL
MODEL 7
REMARK VINA RESULT:      -6.4      3.623      6.552
REMARK  9 active torsions:
REMARK  status: ('A' for Active; 'I' for Inactive)
REMARK    1  A    between atoms: C2_2  and  N1_3 
REMARK    2  A    between atoms: N1_3  and  C3_4 
REMARK    3  A    between atoms: N2_5  and  C4_6 
REMARK    4  A    between atoms: C4_6  and  N3_15 
REMARK    5  A    between atoms: C5_7  and  C6_8 
REMARK    6  A    between atoms: C6_8  and  C7_9 
REMARK    7  A    between atoms: C8_10  and  C9_12 
REMARK    8  A    between atoms: C9_12  and  O1_13 
REMARK    9  A    between atoms: N3_15  and  C12_17 
ROOT
HETATM    1  C4  UNL     1      23.188   1.420  51.926  1.00  0.00     0.127 C 
HETATM    2  C5  UNL     1      22.815   1.846  50.707  1.00  0.00     0.027 C 
ENDROOT
BRANCH   1   3
HETATM    3  N2  UNL     1      22.562   0.341  52.652  1.00  0.00    -0.224 NA
HETATM    4  C3  UNL     1      21.547   0.598  53.407  1.00  0.00     0.245 C 
BRANCH   4   5
HETATM    5  N1  UNL     1      21.787  -0.815  53.514  1.00  0.00    -0.204 NA
BRANCH   5   6
HETATM    6  C2  UNL     1      22.508  -1.227  54.501  1.00  0.00    -0.043 C 
HETATM    7  C1  UNL     1      23.276  -1.398  55.565  1.00  0.00     0.119 C 
ENDBRANCH   5   6
ENDBRANCH   4   5
ENDBRANCH   1   3
BRANCH   1   8
HETATM    8  N3  UNL     1      24.264   1.994  52.657  1.00  0.00    -0.336 N 
HETATM    9  C11 UNL     1      24.242   3.379  53.105  1.00  0.00     0.158 C 
BRANCH   8  10
HETATM   10  C12 UNL     1      25.412   1.216  52.976  1.00  0.00     0.035 A 
HETATM   11  C13 UNL     1      25.835   1.125  54.285  1.00  0.00     0.033 A 
HETATM   12  C14 UNL     1      26.943   0.382  54.639  1.00  0.00     0.044 A 
HETATM   13  C15 UNL     1      27.662  -0.300  53.651  1.00  0.00     0.116 A 
HETATM   14  F1  UNL     1      28.761  -1.052  53.907  1.00  0.00    -0.206 F 
HETATM   15  C16 UNL     1      27.197  -0.175  52.359  1.00  0.00     0.044 A 
HETATM   16  C17 UNL     1      26.099   0.552  51.954  1.00  0.00     0.033 A 
ENDBRANCH   8  10
ENDBRANCH   1   8
BRANCH   2  17
HETATM   17  C6  UNL     1      23.107   2.835  49.618  1.00  0.00     0.059 C 
BRANCH  17  18
HETATM   18  C7  UNL     1      24.573   3.039  49.468  1.00  0.00    -0.001 C 
HETATM   19  C8  UNL     1      25.306   4.164  49.361  1.00  0.00     0.032 C 
HETATM   20 CL1  UNL     1      27.070   4.196  49.185  1.00  0.00    -0.087 Cl
BRANCH  19  21
HETATM   21  C9  UNL     1      24.771   5.547  49.370  1.00  0.00     0.218 C 
BRANCH  21  22
HETATM   22  O1  UNL     1      24.384   5.957  50.636  1.00  0.00    -0.391 OA
HETATM   23  C10 UNL     1      24.467   7.338  50.803  1.00  0.00     0.201 C 
ENDBRANCH  21  22
ENDBRANCH  19  21
ENDBRANCH  17  18
ENDBRANCH   2  17
TORSDOF 9
ENDMDL
MODEL 8
REMARK VINA RESULT:      -6.3      3.442      5.320
REMARK  9 active torsions:
REMARK  status: ('A' for Active; 'I' for Inactive)
REMARK    1  A    between atoms: C2_2  and  N1_3 
REMARK    2  A    between atoms: N1_3  and  C3_4 
REMARK    3  A    between atoms: N2_5  and  C4_6 
REMARK    4  A    between atoms: C4_6  and  N3_15 
REMARK    5  A    between atoms: C5_7  and  C6_8 
REMARK    6  A    between atoms: C6_8  and  C7_9 
REMARK    7  A    between atoms: C8_10  and  C9_12 
REMARK    8  A    between atoms: C9_12  and  O1_13 
REMARK    9  A    between atoms: N3_15  and  C12_17 
ROOT
HETATM    1  C4  UNL     1      23.748   2.694  50.591  1.00  0.00     0.127 C 
HETATM    2  C5  UNL     1      23.941   1.809  51.583  1.00  0.00     0.027 C 
ENDROOT
BRANCH   1   3
HETATM    3  N2  UNL     1      23.186   2.380  49.300  1.00  0.00    -0.224 NA
HETATM    4  C3  UNL     1      21.987   1.908  49.235  1.00  0.00     0.245 C 
BRANCH   4   5
HETATM    5  N1  UNL     1      22.465   1.995  47.882  1.00  0.00    -0.204 NA
BRANCH   5   6
HETATM    6  C2  UNL     1      22.063   2.990  47.167  1.00  0.00    -0.043 C 
HETATM    7  C1  UNL     1      21.515   3.831  46.306  1.00  0.00     0.119 C 
ENDBRANCH   5   6
ENDBRANCH   4   5
ENDBRANCH   1   3
BRANCH   1   8
HETATM    8  N3  UNL     1      24.082   4.073  50.701  1.00  0.00    -0.336 N 
HETATM    9  C11 UNL     1      23.354   4.977  51.579  1.00  0.00     0.158 C 
BRANCH   8  10
HETATM   10  C12 UNL     1      25.157   4.614  49.941  1.00  0.00     0.035 A 
HETATM   11  C13 UNL     1      26.290   3.858  49.725  1.00  0.00     0.033 A 
HETATM   12  C14 UNL     1      27.356   4.344  48.995  1.00  0.00     0.044 A 
HETATM   13  C15 UNL     1      27.295   5.635  48.457  1.00  0.00     0.116 A 
HETATM   14  F1  UNL     1      28.293   6.193  47.728  1.00  0.00    -0.206 F 
HETATM   15  C16 UNL     1      26.140   6.348  48.704  1.00  0.00     0.044 A 
HETATM   16  C17 UNL     1      25.050   5.910  49.424  1.00  0.00     0.033 A 
ENDBRANCH   8  10
ENDBRANCH   1   8
BRANCH   2  17
HETATM   17  C6  UNL     1      24.442   1.638  52.987  1.00  0.00     0.059 C 
BRANCH  17  18
HETATM   18  C7  UNL     1      25.851   2.102  53.106  1.00  0.00    -0.001 C 
HETATM   19  C8  UNL     1      26.914   1.560  53.731  1.00  0.00     0.032 C 
HETATM   20 CL1  UNL     1      28.534   2.280  53.757  1.00  0.00    -0.087 Cl
BRANCH  19  21
HETATM   21  C9  UNL     1      26.910   0.288  54.493  1.00  0.00     0.218 C 
BRANCH  21  22
HETATM   22  O1  UNL     1      27.595  -0.724  53.840  1.00  0.00    -0.391 OA
HETATM   23  C10 UNL     1      26.812  -1.374  52.887  1.00  0.00     0.201 C 
ENDBRANCH  21  22
ENDBRANCH  19  21
ENDBRANCH  17  18
ENDBRANCH   2  17
TORSDOF 9
ENDMDL
MODEL 9
REMARK VINA RESULT:      -6.2      3.171      5.466
REMARK  9 active torsions:
REMARK  status: ('A' for Active; 'I' for Inactive)
REMARK    1  A    between atoms: C2_2  and  N1_3 
REMARK    2  A    between atoms: N1_3  and  C3_4 
REMARK    3  A    between atoms: N2_5  and  C4_6 
REMARK    4  A    between atoms: C4_6  and  N3_15 
REMARK    5  A    between atoms: C5_7  and  C6_8 
REMARK    6  A    between atoms: C6_8  and  C7_9 
REMARK    7  A    between atoms: C8_10  and  C9_12 
REMARK    8  A    between atoms: C9_12  and  O1_13 
REMARK    9  A    between atoms: N3_15  and  C12_17 
ROOT
HETATM    1  C4  UNL     1      23.054   2.867  51.920  1.00  0.00     0.127 C 
HETATM    2  C5  UNL     1      23.921   2.580  52.906  1.00  0.00     0.027 C 
ENDROOT
BRANCH   1   3
HETATM    3  N2  UNL     1      21.682   3.270  52.116  1.00  0.00    -0.224 NA
HETATM    4  C3  UNL     1      20.837   2.413  52.583  1.00  0.00     0.245 C 
BRANCH   4   5
HETATM    5  N1  UNL     1      20.107   3.633  52.372  1.00  0.00    -0.204 NA
BRANCH   5   6
HETATM    6  C2  UNL     1      19.436   3.749  51.277  1.00  0.00    -0.043 C 
HETATM    7  C1  UNL     1      18.546   3.903  50.311  1.00  0.00     0.119 C 
ENDBRANCH   5   6
ENDBRANCH   4   5
ENDBRANCH   1   3
BRANCH   1   8
HETATM    8  N3  UNL     1      23.394   2.804  50.540  1.00  0.00    -0.336 N 
HETATM    9  C11 UNL     1      22.704   1.919  49.613  1.00  0.00     0.158 C 
BRANCH   8  10
HETATM   10  C12 UNL     1      24.436   3.622  50.020  1.00  0.00     0.035 A 
HETATM   11  C13 UNL     1      25.693   3.088  49.828  1.00  0.00     0.033 A 
HETATM   12  C14 UNL     1      26.733   3.846  49.327  1.00  0.00     0.044 A 
HETATM   13  C15 UNL     1      26.516   5.189  49.002  1.00  0.00     0.116 A 
HETATM   14  F1  UNL     1      27.476   6.006  48.504  1.00  0.00    -0.206 F 
HETATM   15  C16 UNL     1      25.241   5.672  49.213  1.00  0.00     0.044 A 
HETATM   16  C17 UNL     1      24.171   4.960  49.710  1.00  0.00     0.033 A 
ENDBRANCH   8  10
ENDBRANCH   1   8
BRANCH   2  17
HETATM   17  C6  UNL     1      25.327   2.153  53.209  1.00  0.00     0.059 C 
BRANCH  17  18
HETATM   18  C7  UNL     1      25.569   0.761  52.742  1.00  0.00    -0.001 C 
HETATM   19  C8  UNL     1      26.528  -0.129  53.063  1.00  0.00     0.032 C 
HETATM   20 CL1  UNL     1      26.646  -1.762  52.385  1.00  0.00    -0.087 Cl
BRANCH  19  21
HETATM   21  C9  UNL     1      27.633   0.104  54.025  1.00  0.00     0.218 C 
BRANCH  21  22
HETATM   22  O1  UNL     1      28.498  -0.976  54.110  1.00  0.00    -0.391 OA
HETATM   23  C10 UNL     1      29.791  -0.662  53.697  1.00  0.00     0.201 C 
ENDBRANCH  21  22
ENDBRANCH  19  21
ENDBRANCH  17  18
ENDBRANCH   2  17
TORSDOF 9
ENDMDL
