MODEL 1
REMARK VINA RESULT:      -8.9      0.000      0.000
REMARK  0 active torsions:
REMARK  status: ('A' for Active; 'I' for Inactive)
ROOT
HETATM    1  C1  UNL     1      25.272  -1.290  56.327  1.00  0.00     0.048 C 
HETATM    2  C2  UNL     1      24.354  -0.943  55.243  1.00  0.00    -0.060 C 
HETATM    3  C3  UNL     1      23.065  -0.991  54.966  1.00  0.00     0.006 C 
HETATM    4  C4  UNL     1      21.711  -0.955  54.474  1.00  0.00    -0.002 C 
HETATM    5  C5  UNL     1      21.447  -0.475  53.246  1.00  0.00    -0.007 C 
HETATM    6  C6  UNL     1      21.620   0.102  51.922  1.00  0.00     0.148 C 
HETATM    7  N1  UNL     1      20.875   1.313  51.658  1.00  0.00    -0.374 N 
HETATM    8  C7  UNL     1      21.033   1.547  50.312  1.00  0.00     0.114 A 
HETATM    9  N2  UNL     1      20.430   1.243  49.087  1.00  0.00    -0.238 NA
HETATM   10  C8  UNL     1      21.312   1.843  48.156  1.00  0.00     0.187 A 
HETATM   11  N3  UNL     1      22.315   2.506  47.538  1.00  0.00    -0.279 NA
HETATM   12  C9  UNL     1      23.195   3.001  48.584  1.00  0.00     0.090 A 
HETATM   13  C10 UNL     1      22.077   2.246  49.532  1.00  0.00     0.106 A 
HETATM   14  C11 UNL     1      23.069   2.828  49.360  1.00  0.00     0.077 A 
HETATM   15  C12 UNL     1      21.581   3.035  49.082  1.00  0.00     0.182 C 
HETATM   16  O1  UNL     1      21.431   4.229  48.298  1.00  0.00    -0.379 OA
HETATM   17  C13 UNL     1      21.060   5.263  49.169  1.00  0.00     0.195 C 
HETATM   18  C14 UNL     1      22.103   5.535  50.183  1.00  0.00     0.200 C 
HETATM   19  O2  UNL     1      22.435   4.445  51.054  1.00  0.00    -0.358 OA
HETATM   20  C15 UNL     1      23.805   4.440  51.492  1.00  0.00     0.167 C 
HETATM   21  C16 UNL     1      24.663   3.955  50.614  1.00  0.00     0.075 C 
HETATM   22  C17 UNL     1      24.324   3.427  49.302  1.00  0.00     0.086 C 
HETATM   23  O3  UNL     1      26.049   3.810  50.694  1.00  0.00    -0.351 OA
HETATM   24  C18 UNL     1      26.430   2.414  50.844  1.00  0.00     0.202 C 
HETATM   25  C19 UNL     1      26.538   2.079  52.298  1.00  0.00     0.201 C 
HETATM   26  O4  UNL     1      26.897   0.697  52.465  1.00  0.00    -0.361 OA
HETATM   27  C20 UNL     1      26.459   0.072  53.660  1.00  0.00     0.135 C 
HETATM   28  C21 UNL     1      25.440  -0.390  54.364  1.00  0.00     0.030 C 
HETATM   29  H9  UNL     1      20.266   2.110  51.878  1.00  0.00     0.161 HD
ENDROOT
TORSDOF 0
ENDMDL
MODEL 2
REMARK VINA RESULT:      -8.2      2.800      5.425
REMARK  0 active torsions:
REMARK  status: ('A' for Active; 'I' for Inactive)
ROOT
HETATM    1  C1  UNL     1      17.411  -2.936  53.489  1.00  0.00     0.048 C 
HETATM    2  C2  UNL     1      18.511  -1.972  53.496  1.00  0.00    -0.060 C 
HETATM    3  C3  UNL     1      19.763  -1.880  53.905  1.00  0.00     0.006 C 
HETATM    4  C4  UNL     1      21.124  -1.580  54.269  1.00  0.00    -0.002 C 
HETATM    5  C5  UNL     1      21.651  -0.376  53.992  1.00  0.00    -0.007 C 
HETATM    6  C6  UNL     1      21.800   0.991  53.516  1.00  0.00     0.148 C 
HETATM    7  N1  UNL     1      22.871   1.218  52.571  1.00  0.00    -0.374 N 
HETATM    8  C7  UNL     1      22.944   2.585  52.431  1.00  0.00     0.114 A 
HETATM    9  N2  UNL     1      23.583   3.694  52.994  1.00  0.00    -0.238 NA
HETATM   10  C8  UNL     1      23.013   4.772  52.274  1.00  0.00     0.187 A 
HETATM   11  N3  UNL     1      22.307   5.561  51.434  1.00  0.00    -0.279 NA
HETATM   12  C9  UNL     1      21.477   4.679  50.630  1.00  0.00     0.090 A 
HETATM   13  C10 UNL     1      22.228   3.542  51.559  1.00  0.00     0.106 A 
HETATM   14  C11 UNL     1      21.459   3.885  50.758  1.00  0.00     0.077 A 
HETATM   15  C12 UNL     1      22.969   3.963  50.973  1.00  0.00     0.182 C 
HETATM   16  O1  UNL     1      23.529   4.787  49.938  1.00  0.00    -0.379 OA
HETATM   17  C13 UNL     1      24.060   3.935  48.960  1.00  0.00     0.195 C 
HETATM   18  C14 UNL     1      23.017   3.093  48.331  1.00  0.00     0.200 C 
HETATM   19  O2  UNL     1      22.301   2.216  49.211  1.00  0.00    -0.358 OA
HETATM   20  C15 UNL     1      20.939   1.973  48.818  1.00  0.00     0.167 C 
HETATM   21  C16 UNL     1      20.092   2.933  49.142  1.00  0.00     0.075 C 
HETATM   22  C17 UNL     1      20.429   4.152  49.860  1.00  0.00     0.086 C 
HETATM   23  O3  UNL     1      18.719   3.038  48.912  1.00  0.00    -0.351 OA
HETATM   24  C18 UNL     1      17.959   2.861  50.140  1.00  0.00     0.202 C 
HETATM   25  C19 UNL     1      17.593   1.420  50.297  1.00  0.00     0.201 C 
HETATM   26  O4  UNL     1      16.856   1.225  51.516  1.00  0.00    -0.361 OA
HETATM   27  C20 UNL     1      16.963  -0.055  52.120  1.00  0.00     0.135 C 
HETATM   28  C21 UNL     1      17.728  -0.919  52.764  1.00  0.00     0.030 C 
HETATM   29  H9  UNL     1      23.642   0.963  51.944  1.00  0.00     0.161 HD
ENDROOT
TORSDOF 0
ENDMDL
MODEL 3
REMARK VINA RESULT:      -8.1      2.517      4.577
REMARK  0 active torsions:
REMARK  status: ('A' for Active; 'I' for Inactive)
ROOT
HETATM    1  C1  UNL     1      26.565  -1.146  53.216  1.00  0.00     0.048 C 
HETATM    2  C2  UNL     1      26.078   0.079  52.584  1.00  0.00    -0.060 C 
HETATM    3  C3  UNL     1      26.528   1.072  51.838  1.00  0.00     0.006 C 
HETATM    4  C4  UNL     1      26.818   2.231  51.033  1.00  0.00    -0.002 C 
HETATM    5  C5  UNL     1      25.852   3.123  50.756  1.00  0.00    -0.007 C 
HETATM    6  C6  UNL     1      24.561   3.791  50.708  1.00  0.00     0.148 C 
HETATM    7  N1  UNL     1      24.020   4.029  49.388  1.00  0.00    -0.374 N 
HETATM    8  C7  UNL     1      22.924   4.836  49.587  1.00  0.00     0.114 A 
HETATM    9  N2  UNL     1      22.582   6.190  49.665  1.00  0.00    -0.238 NA
HETATM   10  C8  UNL     1      21.203   6.138  49.981  1.00  0.00     0.187 A 
HETATM   11  N3  UNL     1      19.936   5.766  50.268  1.00  0.00    -0.279 NA
HETATM   12  C9  UNL     1      19.917   4.311  50.265  1.00  0.00     0.090 A 
HETATM   13  C10 UNL     1      21.509   4.544  49.906  1.00  0.00     0.106 A 
HETATM   14  C11 UNL     1      20.588   3.881  50.155  1.00  0.00     0.077 A 
HETATM   15  C12 UNL     1      20.981   4.908  49.094  1.00  0.00     0.182 C 
HETATM   16  O1  UNL     1      19.830   5.173  48.277  1.00  0.00    -0.379 OA
HETATM   17  C13 UNL     1      19.964   4.419  47.102  1.00  0.00     0.195 C 
HETATM   18  C14 UNL     1      19.980   2.964  47.375  1.00  0.00     0.200 C 
HETATM   19  O2  UNL     1      21.041   2.493  48.217  1.00  0.00    -0.358 OA
HETATM   20  C15 UNL     1      20.690   1.353  49.020  1.00  0.00     0.167 C 
HETATM   21  C16 UNL     1      19.998   1.638  50.109  1.00  0.00     0.075 C 
HETATM   22  C17 UNL     1      19.608   2.970  50.540  1.00  0.00     0.086 C 
HETATM   23  O3  UNL     1      19.487   0.794  51.097  1.00  0.00    -0.351 OA
HETATM   24  C18 UNL     1      20.233   0.919  52.340  1.00  0.00     0.202 C 
HETATM   25  C19 UNL     1      21.334  -0.093  52.366  1.00  0.00     0.201 C 
HETATM   26  O4  UNL     1      22.093   0.029  53.580  1.00  0.00    -0.361 OA
HETATM   27  C20 UNL     1      23.453  -0.370  53.517  1.00  0.00     0.135 C 
HETATM   28  C21 UNL     1      24.665  -0.117  53.056  1.00  0.00     0.030 C 
HETATM   29  H9  UNL     1      23.979   3.970  48.364  1.00  0.00     0.161 HD
ENDROOT
TORSDOF 0
ENDMDL
MODEL 4
REMARK VINA RESULT:      -8.1      2.836      4.983
REMARK  0 active torsions:
REMARK  status: ('A' for Active; 'I' for Inactive)
ROOT
HETATM    1  C1  UNL     1      21.980  -1.655  53.875  1.00  0.00     0.048 C 
HETATM    2  C2  UNL     1      22.515  -0.344  53.509  1.00  0.00    -0.060 C 
HETATM    3  C3  UNL     1      23.674   0.285  53.449  1.00  0.00     0.006 C 
HETATM    4  C4  UNL     1      24.825   1.141  53.313  1.00  0.00    -0.002 C 
HETATM    5  C5  UNL     1      24.682   2.408  52.888  1.00  0.00    -0.007 C 
HETATM    6  C6  UNL     1      24.085   3.648  52.416  1.00  0.00     0.148 C 
HETATM    7  N1  UNL     1      24.588   4.152  51.157  1.00  0.00    -0.374 N 
HETATM    8  C7  UNL     1      24.038   5.406  51.026  1.00  0.00     0.114 A 
HETATM    9  N2  UNL     1      24.306   6.741  51.346  1.00  0.00    -0.238 NA
HETATM   10  C8  UNL     1      23.139   7.403  50.895  1.00  0.00     0.187 A 
HETATM   11  N3  UNL     1      21.937   7.733  50.374  1.00  0.00    -0.279 NA
HETATM   12  C9  UNL     1      21.332   6.498  49.900  1.00  0.00     0.090 A 
HETATM   13  C10 UNL     1      22.746   5.881  50.482  1.00  0.00     0.106 A 
HETATM   14  C11 UNL     1      21.688   5.785  50.012  1.00  0.00     0.077 A 
HETATM   15  C12 UNL     1      23.008   6.479  49.678  1.00  0.00     0.182 C 
HETATM   16  O1  UNL     1      22.800   7.313  48.528  1.00  0.00    -0.379 OA
HETATM   17  C13 UNL     1      23.282   6.617  47.409  1.00  0.00     0.195 C 
HETATM   18  C14 UNL     1      22.538   5.359  47.176  1.00  0.00     0.200 C 
HETATM   19  O2  UNL     1      22.584   4.394  48.237  1.00  0.00    -0.358 OA
HETATM   20  C15 UNL     1      21.400   3.586  48.346  1.00  0.00     0.167 C 
HETATM   21  C16 UNL     1      20.390   4.169  48.968  1.00  0.00     0.075 C 
HETATM   22  C17 UNL     1      20.408   5.505  49.542  1.00  0.00     0.086 C 
HETATM   23  O3  UNL     1      19.106   3.695  49.241  1.00  0.00    -0.351 OA
HETATM   24  C18 UNL     1      18.939   3.396  50.655  1.00  0.00     0.202 C 
HETATM   25  C19 UNL     1      19.277   1.961  50.906  1.00  0.00     0.201 C 
HETATM   26  O4  UNL     1      19.135   1.654  52.303  1.00  0.00    -0.361 OA
HETATM   27  C20 UNL     1      19.955   0.611  52.806  1.00  0.00     0.135 C 
HETATM   28  C21 UNL     1      21.174   0.209  53.121  1.00  0.00     0.030 C 
HETATM   29  H9  UNL     1      25.142   4.140  50.293  1.00  0.00     0.161 HD
ENDROOT
TORSDOF 0
ENDMDL
MODEL 5
REMARK VINA RESULT:      -7.9      3.047      4.796
REMARK  0 active torsions:
REMARK  status: ('A' for Active; 'I' for Inactive)
ROOT
HETATM    1  C1  UNL     1      26.427   2.067  52.293  1.00  0.00     0.048 C 
HETATM    2  C2  UNL     1      25.070   1.526  52.323  1.00  0.00    -0.060 C 
HETATM    3  C3  UNL     1      24.312   0.757  53.083  1.00  0.00     0.006 C 
HETATM    4  C4  UNL     1      23.331  -0.048  53.765  1.00  0.00    -0.002 C 
HETATM    5  C5  UNL     1      22.103  -0.210  53.242  1.00  0.00    -0.007 C 
HETATM    6  C6  UNL     1      20.956  -0.111  52.353  1.00  0.00     0.148 C 
HETATM    7  N1  UNL     1      19.740   0.403  52.945  1.00  0.00    -0.374 N 
HETATM    8  C7  UNL     1      18.767   0.212  51.991  1.00  0.00     0.114 A 
HETATM    9  N2  UNL     1      17.832  -0.743  51.581  1.00  0.00    -0.238 NA
HETATM   10  C8  UNL     1      17.267  -0.142  50.430  1.00  0.00     0.187 A 
HETATM   11  N3  UNL     1      16.934   0.674  49.406  1.00  0.00    -0.279 NA
HETATM   12  C9  UNL     1      17.767   1.860  49.529  1.00  0.00     0.090 A 
HETATM   13  C10 UNL     1      18.323   1.024  50.837  1.00  0.00     0.106 A 
HETATM   14  C11 UNL     1      18.333   1.920  50.097  1.00  0.00     0.077 A 
HETATM   15  C12 UNL     1      17.338   1.259  51.049  1.00  0.00     0.182 C 
HETATM   16  O1  UNL     1      16.055   1.875  50.859  1.00  0.00    -0.379 OA
HETATM   17  C13 UNL     1      15.882   2.816  51.885  1.00  0.00     0.195 C 
HETATM   18  C14 UNL     1      16.897   3.892  51.827  1.00  0.00     0.200 C 
HETATM   19  O2  UNL     1      18.264   3.477  51.958  1.00  0.00    -0.358 OA
HETATM   20  C15 UNL     1      19.197   4.298  51.235  1.00  0.00     0.167 C 
HETATM   21  C16 UNL     1      19.277   4.035  49.943  1.00  0.00     0.075 C 
HETATM   22  C17 UNL     1      18.533   3.001  49.242  1.00  0.00     0.086 C 
HETATM   23  O3  UNL     1      20.056   4.631  48.949  1.00  0.00    -0.351 OA
HETATM   24  C18 UNL     1      21.132   3.751  48.518  1.00  0.00     0.202 C 
HETATM   25  C19 UNL     1      22.358   4.028  49.329  1.00  0.00     0.201 C 
HETATM   26  O4  UNL     1      23.427   3.154  48.928  1.00  0.00    -0.361 OA
HETATM   27  C20 UNL     1      24.391   2.841  49.920  1.00  0.00     0.135 C 
HETATM   28  C21 UNL     1      24.661   2.207  51.048  1.00  0.00     0.030 C 
HETATM   29  H9  UNL     1      19.152   0.815  53.678  1.00  0.00     0.161 HD
ENDROOT
TORSDOF 0
ENDMDL
MODEL 6
REMARK VINA RESULT:      -7.9      2.984      7.063
REMARK  0 active torsions:
REMARK  status: ('A' for Active; 'I' for Inactive)
ROOT
HETATM    1  C1  UNL     1      22.283   8.720  46.790  1.00  0.00     0.048 C 
HETATM    2  C2  UNL     1      22.688   7.932  47.953  1.00  0.00    -0.060 C 
HETATM    3  C3  UNL     1      23.084   8.112  49.200  1.00  0.00     0.006 C 
HETATM    4  C4  UNL     1      23.528   8.095  50.570  1.00  0.00    -0.002 C 
HETATM    5  C5  UNL     1      23.784   6.927  51.185  1.00  0.00    -0.007 C 
HETATM    6  C6  UNL     1      23.932   5.502  51.438  1.00  0.00     0.148 C 
HETATM    7  N1  UNL     1      23.163   4.973  52.543  1.00  0.00    -0.374 N 
HETATM    8  C7  UNL     1      23.616   3.685  52.713  1.00  0.00     0.114 A 
HETATM    9  N2  UNL     1      24.591   2.969  53.415  1.00  0.00    -0.238 NA
HETATM   10  C8  UNL     1      24.403   1.650  52.937  1.00  0.00     0.187 A 
HETATM   11  N3  UNL     1      23.984   0.530  52.306  1.00  0.00    -0.279 NA
HETATM   12  C9  UNL     1      22.890   0.926  51.434  1.00  0.00     0.090 A 
HETATM   13  C10 UNL     1      23.241   2.400  52.084  1.00  0.00     0.106 A 
HETATM   14  C11 UNL     1      22.668   1.696  51.359  1.00  0.00     0.077 A 
HETATM   15  C12 UNL     1      22.881   1.824  52.866  1.00  0.00     0.182 C 
HETATM   16  O1  UNL     1      22.290   0.682  53.503  1.00  0.00    -0.379 OA
HETATM   17  C13 UNL     1      21.036   1.075  53.996  1.00  0.00     0.195 C 
HETATM   18  C14 UNL     1      20.120   1.492  52.910  1.00  0.00     0.200 C 
HETATM   19  O2  UNL     1      20.551   2.607  52.117  1.00  0.00    -0.358 OA
HETATM   20  C15 UNL     1      20.105   2.561  50.750  1.00  0.00     0.167 C 
HETATM   21  C16 UNL     1      20.815   1.771  49.965  1.00  0.00     0.075 C 
HETATM   22  C17 UNL     1      21.979   1.000  50.369  1.00  0.00     0.086 C 
HETATM   23  O3  UNL     1      20.664   1.480  48.608  1.00  0.00    -0.351 OA
HETATM   24  C18 UNL     1      21.708   2.105  47.811  1.00  0.00     0.202 C 
HETATM   25  C19 UNL     1      21.242   3.447  47.342  1.00  0.00     0.201 C 
HETATM   26  O4  UNL     1      22.270   4.088  46.568  1.00  0.00    -0.361 OA
HETATM   27  C20 UNL     1      22.272   5.506  46.573  1.00  0.00     0.135 C 
HETATM   28  C21 UNL     1      22.480   6.615  47.261  1.00  0.00     0.030 C 
HETATM   29  H9  UNL     1      22.479   4.994  53.308  1.00  0.00     0.161 HD
ENDROOT
TORSDOF 0
ENDMDL
MODEL 7
REMARK VINA RESULT:      -7.8     10.390     13.608
REMARK  0 active torsions:
REMARK  status: ('A' for Active; 'I' for Inactive)
ROOT
HETATM    1  C1  UNL     1      31.659  13.484  44.392  1.00  0.00     0.048 C 
HETATM    2  C2  UNL     1      32.029  12.073  44.284  1.00  0.00    -0.060 C 
HETATM    3  C3  UNL     1      32.812  11.294  43.561  1.00  0.00     0.006 C 
HETATM    4  C4  UNL     1      33.592  10.282  42.895  1.00  0.00    -0.002 C 
HETATM    5  C5  UNL     1      33.498   8.996  43.272  1.00  0.00    -0.007 C 
HETATM    6  C6  UNL     1      33.100   7.789  43.979  1.00  0.00     0.148 C 
HETATM    7  N1  UNL     1      34.170   7.037  44.598  1.00  0.00    -0.374 N 
HETATM    8  C7  UNL     1      33.589   5.862  45.016  1.00  0.00     0.114 A 
HETATM    9  N2  UNL     1      33.323   4.567  44.557  1.00  0.00    -0.238 NA
HETATM   10  C8  UNL     1      32.598   4.005  45.635  1.00  0.00     0.187 A 
HETATM   11  N3  UNL     1      31.956   3.762  46.800  1.00  0.00    -0.279 NA
HETATM   12  C9  UNL     1      32.047   4.980  47.589  1.00  0.00     0.090 A 
HETATM   13  C10 UNL     1      32.866   5.485  46.251  1.00  0.00     0.106 A 
HETATM   14  C11 UNL     1      32.386   5.648  47.296  1.00  0.00     0.077 A 
HETATM   15  C12 UNL     1      33.449   4.743  46.676  1.00  0.00     0.182 C 
HETATM   16  O1  UNL     1      33.850   3.778  47.661  1.00  0.00    -0.379 OA
HETATM   17  C13 UNL     1      35.054   4.225  48.224  1.00  0.00     0.195 C 
HETATM   18  C14 UNL     1      34.893   5.521  48.921  1.00  0.00     0.200 C 
HETATM   19  O2  UNL     1      34.454   6.621  48.113  1.00  0.00    -0.358 OA
HETATM   20  C15 UNL     1      33.656   7.587  48.820  1.00  0.00     0.167 C 
HETATM   21  C16 UNL     1      32.391   7.244  48.981  1.00  0.00     0.075 C 
HETATM   22  C17 UNL     1      31.776   6.021  48.491  1.00  0.00     0.086 C 
HETATM   23  O3  UNL     1      31.348   7.921  49.618  1.00  0.00    -0.351 OA
HETATM   24  C18 UNL     1      30.393   8.450  48.657  1.00  0.00     0.202 C 
HETATM   25  C19 UNL     1      30.775   9.849  48.291  1.00  0.00     0.201 C 
HETATM   26  O4  UNL     1      29.851  10.381  47.328  1.00  0.00    -0.361 OA
HETATM   27  C20 UNL     1      30.358  11.370  46.446  1.00  0.00     0.135 C 
HETATM   28  C21 UNL     1      31.155  11.650  45.430  1.00  0.00     0.030 C 
HETATM   29  H9  UNL     1      35.132   6.843  44.899  1.00  0.00     0.161 HD
ENDROOT
TORSDOF 0
ENDMDL
MODEL 8
REMARK VINA RESULT:      -7.7      8.753     11.820
REMARK  0 active torsions:
REMARK  status: ('A' for Active; 'I' for Inactive)
ROOT
HETATM    1  C1  UNL     1      25.992   9.991  48.513  1.00  0.00     0.048 C 
HETATM    2  C2  UNL     1      26.941   8.880  48.479  1.00  0.00    -0.060 C 
HETATM    3  C3  UNL     1      26.941   7.559  48.477  1.00  0.00     0.006 C 
HETATM    4  C4  UNL     1      27.156   6.135  48.467  1.00  0.00    -0.002 C 
HETATM    5  C5  UNL     1      28.404   5.637  48.435  1.00  0.00    -0.007 C 
HETATM    6  C6  UNL     1      29.855   5.548  48.398  1.00  0.00     0.148 C 
HETATM    7  N1  UNL     1      30.415   4.810  47.286  1.00  0.00    -0.374 N 
HETATM    8  C7  UNL     1      31.755   4.689  47.573  1.00  0.00     0.114 A 
HETATM    9  N2  UNL     1      32.645   3.831  48.227  1.00  0.00    -0.238 NA
HETATM   10  C8  UNL     1      33.876   4.519  48.107  1.00  0.00     0.187 A 
HETATM   11  N3  UNL     1      34.869   5.394  47.830  1.00  0.00    -0.279 NA
HETATM   12  C9  UNL     1      34.264   6.493  47.094  1.00  0.00     0.090 A 
HETATM   13  C10 UNL     1      32.916   5.572  47.325  1.00  0.00     0.106 A 
HETATM   14  C11 UNL     1      33.471   6.526  46.961  1.00  0.00     0.077 A 
HETATM   15  C12 UNL     1      33.531   5.022  46.700  1.00  0.00     0.182 C 
HETATM   16  O1  UNL     1      34.665   4.755  45.861  1.00  0.00    -0.379 OA
HETATM   17  C13 UNL     1      34.195   4.615  44.547  1.00  0.00     0.195 C 
HETATM   18  C14 UNL     1      33.565   5.858  44.047  1.00  0.00     0.200 C 
HETATM   19  O2  UNL     1      32.424   6.324  44.781  1.00  0.00    -0.358 OA
HETATM   20  C15 UNL     1      32.272   7.754  44.783  1.00  0.00     0.167 C 
HETATM   21  C16 UNL     1      33.045   8.390  45.646  1.00  0.00     0.075 C 
HETATM   22  C17 UNL     1      33.977   7.762  46.569  1.00  0.00     0.086 C 
HETATM   23  O3  UNL     1      33.169   9.756  45.908  1.00  0.00    -0.351 OA
HETATM   24  C18 UNL     1      32.577  10.107  47.190  1.00  0.00     0.202 C 
HETATM   25  C19 UNL     1      31.149  10.506  46.988  1.00  0.00     0.201 C 
HETATM   26  O4  UNL     1      30.544  10.839  48.248  1.00  0.00    -0.361 OA
HETATM   27  C20 UNL     1      29.143  10.640  48.347  1.00  0.00     0.135 C 
HETATM   28  C21 UNL     1      28.144   9.776  48.406  1.00  0.00     0.030 C 
HETATM   29  H9  UNL     1      30.404   4.292  46.401  1.00  0.00     0.161 HD
ENDROOT
TORSDOF 0
ENDMDL
MODEL 9
REMARK VINA RESULT:      -7.7      9.099     12.104
REMARK  0 active torsions:
REMARK  status: ('A' for Active; 'I' for Inactive)
ROOT
HETATM    1  C1  UNL     1      33.917   4.358  41.905  1.00  0.00     0.048 C 
HETATM    2  C2  UNL     1      33.367   5.530  42.584  1.00  0.00    -0.060 C 
HETATM    3  C3  UNL     1      32.775   6.673  42.292  1.00  0.00     0.006 C 
HETATM    4  C4  UNL     1      32.126   7.955  42.186  1.00  0.00    -0.002 C 
HETATM    5  C5  UNL     1      31.844   8.666  43.291  1.00  0.00    -0.007 C 
HETATM    6  C6  UNL     1      31.736   9.069  44.685  1.00  0.00     0.148 C 
HETATM    7  N1  UNL     1      30.398   9.352  45.158  1.00  0.00    -0.374 N 
HETATM    8  C7  UNL     1      30.568   9.898  46.409  1.00  0.00     0.114 A 
HETATM    9  N2  UNL     1      30.748  11.139  47.029  1.00  0.00    -0.238 NA
HETATM   10  C8  UNL     1      30.918  10.780  48.387  1.00  0.00     0.187 A 
HETATM   11  N3  UNL     1      31.036  10.133  49.569  1.00  0.00    -0.279 NA
HETATM   12  C9  UNL     1      30.883   8.715  49.287  1.00  0.00     0.090 A 
HETATM   13  C10 UNL     1      30.712   9.297  47.754  1.00  0.00     0.106 A 
HETATM   14  C11 UNL     1      30.799   8.441  48.534  1.00  0.00     0.077 A 
HETATM   15  C12 UNL     1      29.892   9.645  48.282  1.00  0.00     0.182 C 
HETATM   16  O1  UNL     1      28.994   9.774  49.395  1.00  0.00    -0.379 OA
HETATM   17  C13 UNL     1      27.768   9.208  49.017  1.00  0.00     0.195 C 
HETATM   18  C14 UNL     1      27.892   7.763  48.722  1.00  0.00     0.200 C 
HETATM   19  O2  UNL     1      28.785   7.412  47.656  1.00  0.00    -0.358 OA
HETATM   20  C15 UNL     1      29.428   6.137  47.825  1.00  0.00     0.167 C 
HETATM   21  C16 UNL     1      30.465   6.148  48.643  1.00  0.00     0.075 C 
HETATM   22  C17 UNL     1      30.988   7.316  49.332  1.00  0.00     0.086 C 
HETATM   23  O3  UNL     1      31.306   5.108  49.044  1.00  0.00    -0.351 OA
HETATM   24  C18 UNL     1      32.624   5.227  48.439  1.00  0.00     0.202 C 
HETATM   25  C19 UNL     1      32.657   4.456  47.157  1.00  0.00     0.201 C 
HETATM   26  O4  UNL     1      33.948   4.578  46.537  1.00  0.00    -0.361 OA
HETATM   27  C20 UNL     1      33.982   4.465  45.123  1.00  0.00     0.135 C 
HETATM   28  C21 UNL     1      33.673   5.004  43.957  1.00  0.00     0.030 C 
HETATM   29  H9  UNL     1      29.375   9.410  45.107  1.00  0.00     0.161 HD
ENDROOT
TORSDOF 0
ENDMDL
