MODEL 1
REMARK VINA RESULT:      -8.3      0.000      0.000
REMARK  0 active torsions:
REMARK  status: ('A' for Active; 'I' for Inactive)
ROOT
HETATM    1 BR1  UNL     1      24.092   4.823  50.054  1.00  0.00    -0.050 Br
HETATM    2  C1  UNL     1      22.997   3.308  49.565  1.00  0.00     0.021 A 
HETATM    3  C2  UNL     1      23.054   3.097  48.204  1.00  0.00     0.020 A 
HETATM    4  C3  UNL     1      22.316   2.062  47.642  1.00  0.00     0.004 A 
HETATM    5  C4  UNL     1      21.554   1.282  48.461  1.00  0.00     0.030 A 
HETATM    6  C5  UNL     1      21.540   1.545  49.814  1.00  0.00     0.039 A 
HETATM    7  C6  UNL     1      22.243   2.558  50.482  1.00  0.00     0.014 A 
HETATM    8  C7  UNL     1      22.548   3.195  51.756  1.00  0.00     0.166 C 
HETATM    9  C8  UNL     1      21.239   3.745  52.301  1.00  0.00     0.144 C 
HETATM   10  N1  UNL     1      20.215   2.975  52.695  1.00  0.00    -0.163 NA
HETATM   11  N2  UNL     1      20.255   1.566  52.408  1.00  0.00    -0.151 N 
HETATM   12  C9  UNL     1      19.686   0.588  51.459  1.00  0.00     0.301 C 
HETATM   13  N3  UNL     1      20.620   0.538  50.306  1.00  0.00    -0.369 N 
HETATM   14  O1  UNL     1      21.146   0.862  53.236  1.00  0.00    -0.199 OA
HETATM   15  C10 UNL     1      22.559   1.139  53.203  1.00  0.00     0.171 C 
HETATM   16  C11 UNL     1      22.901  -0.050  53.701  1.00  0.00     0.059 C 
HETATM   17  C12 UNL     1      24.192  -0.658  54.017  1.00  0.00     0.017 C 
HETATM   18  C13 UNL     1      25.356  -0.570  53.438  1.00  0.00    -0.014 C 
HETATM   19  C14 UNL     1      26.010   0.526  53.373  1.00  0.00    -0.016 C 
HETATM   20  C15 UNL     1      25.460   1.662  53.047  1.00  0.00     0.006 C 
HETATM   21  C16 UNL     1      24.497   2.801  53.227  1.00  0.00     0.154 C 
HETATM   22  N4  UNL     1      23.221   2.364  52.748  1.00  0.00    -0.343 N 
HETATM   23  H8  UNL     1      20.645  -0.336  49.742  1.00  0.00     0.161 HD
ENDROOT
TORSDOF 0
ENDMDL
MODEL 2
REMARK VINA RESULT:      -7.0      7.101      9.686
REMARK  0 active torsions:
REMARK  status: ('A' for Active; 'I' for Inactive)
ROOT
HETATM    1 BR1  UNL     1      24.033   7.374  50.036  1.00  0.00    -0.050 Br
HETATM    2  C1  UNL     1      25.520   6.276  49.474  1.00  0.00     0.021 A 
HETATM    3  C2  UNL     1      25.273   4.952  49.770  1.00  0.00     0.020 A 
HETATM    4  C3  UNL     1      26.232   3.994  49.464  1.00  0.00     0.004 A 
HETATM    5  C4  UNL     1      27.395   4.397  48.877  1.00  0.00     0.030 A 
HETATM    6  C5  UNL     1      27.581   5.736  48.607  1.00  0.00     0.039 A 
HETATM    7  C6  UNL     1      26.684   6.780  48.872  1.00  0.00     0.014 A 
HETATM    8  C7  UNL     1      26.418   8.210  48.793  1.00  0.00     0.166 C 
HETATM    9  C8  UNL     1      27.475   8.906  49.636  1.00  0.00     0.144 C 
HETATM   10  N1  UNL     1      28.780   8.921  49.329  1.00  0.00    -0.163 NA
HETATM   11  N2  UNL     1      29.254   8.074  48.268  1.00  0.00    -0.151 N 
HETATM   12  C9  UNL     1      29.960   6.792  48.072  1.00  0.00     0.301 C 
HETATM   13  N3  UNL     1      28.910   5.744  48.026  1.00  0.00    -0.369 N 
HETATM   14  O1  UNL     1      28.915   8.553  46.991  1.00  0.00    -0.199 OA
HETATM   15  C10 UNL     1      27.536   8.670  46.588  1.00  0.00     0.171 C 
HETATM   16  C11 UNL     1      27.814   8.635  45.284  1.00  0.00     0.059 C 
HETATM   17  C12 UNL     1      26.974   8.697  44.090  1.00  0.00     0.017 C 
HETATM   18  C13 UNL     1      25.782   8.234  43.844  1.00  0.00    -0.014 C 
HETATM   19  C14 UNL     1      24.744   8.645  44.464  1.00  0.00    -0.016 C 
HETATM   20  C15 UNL     1      24.707   8.810  45.757  1.00  0.00     0.006 C 
HETATM   21  C16 UNL     1      25.143   9.426  47.056  1.00  0.00     0.154 C 
HETATM   22  N4  UNL     1      26.358   8.780  47.452  1.00  0.00    -0.343 N 
HETATM   23  H8  UNL     1      29.123   4.867  47.506  1.00  0.00     0.161 HD
ENDROOT
TORSDOF 0
ENDMDL
MODEL 3
REMARK VINA RESULT:      -7.0     11.296     13.048
REMARK  0 active torsions:
REMARK  status: ('A' for Active; 'I' for Inactive)
ROOT
HETATM    1 BR1  UNL     1      34.222   3.375  47.429  1.00  0.00    -0.050 Br
HETATM    2  C1  UNL     1      34.151   4.765  46.088  1.00  0.00     0.021 A 
HETATM    3  C2  UNL     1      34.386   4.234  44.837  1.00  0.00     0.020 A 
HETATM    4  C3  UNL     1      34.398   5.073  43.731  1.00  0.00     0.004 A 
HETATM    5  C4  UNL     1      34.177   6.405  43.917  1.00  0.00     0.030 A 
HETATM    6  C5  UNL     1      33.948   6.875  45.194  1.00  0.00     0.039 A 
HETATM    7  C6  UNL     1      33.913   6.119  46.374  1.00  0.00     0.014 A 
HETATM    8  C7  UNL     1      33.730   6.121  47.819  1.00  0.00     0.166 C 
HETATM    9  C8  UNL     1      34.836   6.984  48.406  1.00  0.00     0.144 C 
HETATM   10  N1  UNL     1      34.932   8.306  48.208  1.00  0.00    -0.163 NA
HETATM   11  N2  UNL     1      34.077   8.926  47.231  1.00  0.00    -0.151 N 
HETATM   12  C9  UNL     1      34.125   9.443  45.849  1.00  0.00     0.301 C 
HETATM   13  N3  UNL     1      33.789   8.298  44.966  1.00  0.00    -0.369 N 
HETATM   14  O1  UNL     1      32.748   9.056  47.670  1.00  0.00    -0.199 OA
HETATM   15  C10 UNL     1      31.950   7.892  47.961  1.00  0.00     0.171 C 
HETATM   16  C11 UNL     1      30.789   8.528  47.799  1.00  0.00     0.059 C 
HETATM   17  C12 UNL     1      29.398   8.094  47.905  1.00  0.00     0.017 C 
HETATM   18  C13 UNL     1      28.817   6.966  47.607  1.00  0.00    -0.014 C 
HETATM   19  C14 UNL     1      29.092   5.872  48.207  1.00  0.00    -0.016 C 
HETATM   20  C15 UNL     1      30.311   5.488  48.461  1.00  0.00     0.006 C 
HETATM   21  C16 UNL     1      31.669   5.619  49.092  1.00  0.00     0.154 C 
HETATM   22  N4  UNL     1      32.421   6.546  48.302  1.00  0.00    -0.343 N 
HETATM   23  H8  UNL     1      33.374   8.510  44.035  1.00  0.00     0.161 HD
ENDROOT
TORSDOF 0
ENDMDL
MODEL 4
REMARK VINA RESULT:      -6.8      3.724      4.924
REMARK  0 active torsions:
REMARK  status: ('A' for Active; 'I' for Inactive)
ROOT
HETATM    1 BR1  UNL     1      22.136   8.055  47.089  1.00  0.00    -0.050 Br
HETATM    2  C1  UNL     1      22.060   6.190  46.589  1.00  0.00     0.021 A 
HETATM    3  C2  UNL     1      21.733   6.066  45.255  1.00  0.00     0.020 A 
HETATM    4  C3  UNL     1      21.607   4.800  44.698  1.00  0.00     0.004 A 
HETATM    5  C4  UNL     1      21.810   3.712  45.493  1.00  0.00     0.030 A 
HETATM    6  C5  UNL     1      22.135   3.902  46.820  1.00  0.00     0.039 A 
HETATM    7  C6  UNL     1      22.288   5.129  47.481  1.00  0.00     0.014 A 
HETATM    8  C7  UNL     1      22.593   5.812  48.730  1.00  0.00     0.166 C 
HETATM    9  C8  UNL     1      21.520   5.409  49.730  1.00  0.00     0.144 C 
HETATM   10  N1  UNL     1      21.376   4.164  50.205  1.00  0.00    -0.163 NA
HETATM   11  N2  UNL     1      22.130   3.099  49.601  1.00  0.00    -0.151 N 
HETATM   12  C9  UNL     1      21.952   1.984  48.649  1.00  0.00     0.301 C 
HETATM   13  N3  UNL     1      22.240   2.539  47.303  1.00  0.00    -0.369 N 
HETATM   14  O1  UNL     1      23.488   3.114  49.963  1.00  0.00    -0.199 OA
HETATM   15  C10 UNL     1      24.335   4.222  49.603  1.00  0.00     0.171 C 
HETATM   16  C11 UNL     1      25.462   3.516  49.697  1.00  0.00     0.059 C 
HETATM   17  C12 UNL     1      26.868   3.860  49.493  1.00  0.00     0.017 C 
HETATM   18  C13 UNL     1      27.448   4.666  48.650  1.00  0.00    -0.014 C 
HETATM   19  C14 UNL     1      27.252   5.929  48.659  1.00  0.00    -0.016 C 
HETATM   20  C15 UNL     1      26.068   6.463  48.771  1.00  0.00     0.006 C 
HETATM   21  C16 UNL     1      24.766   6.736  49.469  1.00  0.00     0.154 C 
HETATM   22  N4  UNL     1      23.927   5.592  49.276  1.00  0.00    -0.343 N 
HETATM   23  H8  UNL     1      22.569   1.879  46.568  1.00  0.00     0.161 HD
ENDROOT
TORSDOF 0
ENDMDL
MODEL 5
REMARK VINA RESULT:      -6.8      3.296      6.112
REMARK  0 active torsions:
REMARK  status: ('A' for Active; 'I' for Inactive)
ROOT
HETATM    1 BR1  UNL     1      22.758   1.825  52.663  1.00  0.00    -0.050 Br
HETATM    2  C1  UNL     1      24.342   2.422  51.733  1.00  0.00     0.021 A 
HETATM    3  C2  UNL     1      25.357   1.500  51.879  1.00  0.00     0.020 A 
HETATM    4  C3  UNL     1      26.595   1.750  51.299  1.00  0.00     0.004 A 
HETATM    5  C4  UNL     1      26.769   2.907  50.600  1.00  0.00     0.030 A 
HETATM    6  C5  UNL     1      25.714   3.789  50.491  1.00  0.00     0.039 A 
HETATM    7  C6  UNL     1      24.430   3.636  51.032  1.00  0.00     0.014 A 
HETATM    8  C7  UNL     1      23.098   4.202  51.191  1.00  0.00     0.166 C 
HETATM    9  C8  UNL     1      23.259   5.512  51.948  1.00  0.00     0.144 C 
HETATM   10  N1  UNL     1      23.883   6.587  51.447  1.00  0.00    -0.163 NA
HETATM   11  N2  UNL     1      24.620   6.455  50.219  1.00  0.00    -0.151 N 
HETATM   12  C9  UNL     1      26.011   6.320  49.742  1.00  0.00     0.301 C 
HETATM   13  N3  UNL     1      26.302   4.865  49.716  1.00  0.00    -0.369 N 
HETATM   14  O1  UNL     1      23.790   6.369  49.088  1.00  0.00    -0.199 OA
HETATM   15  C10 UNL     1      22.877   5.267  48.924  1.00  0.00     0.171 C 
HETATM   16  C11 UNL     1      22.794   5.407  47.600  1.00  0.00     0.059 C 
HETATM   17  C12 UNL     1      22.055   4.679  46.571  1.00  0.00     0.017 C 
HETATM   18  C13 UNL     1      21.750   3.419  46.452  1.00  0.00    -0.014 C 
HETATM   19  C14 UNL     1      20.981   2.817  47.276  1.00  0.00    -0.016 C 
HETATM   20  C15 UNL     1      21.085   2.948  48.569  1.00  0.00     0.006 C 
HETATM   21  C16 UNL     1      21.070   3.722  49.857  1.00  0.00     0.154 C 
HETATM   22  N4  UNL     1      22.329   4.395  49.967  1.00  0.00    -0.343 N 
HETATM   23  H8  UNL     1      27.032   4.529  49.055  1.00  0.00     0.161 HD
ENDROOT
TORSDOF 0
ENDMDL
MODEL 6
REMARK VINA RESULT:      -6.7     11.173     13.124
REMARK  0 active torsions:
REMARK  status: ('A' for Active; 'I' for Inactive)
ROOT
HETATM    1 BR1  UNL     1      32.162   9.575  47.360  1.00  0.00    -0.050 Br
HETATM    2  C1  UNL     1      31.440   7.793  47.544  1.00  0.00     0.021 A 
HETATM    3  C2  UNL     1      30.136   7.849  47.990  1.00  0.00     0.020 A 
HETATM    4  C3  UNL     1      29.438   6.668  48.207  1.00  0.00     0.004 A 
HETATM    5  C4  UNL     1      30.067   5.483  47.973  1.00  0.00     0.030 A 
HETATM    6  C5  UNL     1      31.373   5.493  47.527  1.00  0.00     0.039 A 
HETATM    7  C6  UNL     1      32.166   6.621  47.275  1.00  0.00     0.014 A 
HETATM    8  C7  UNL     1      33.459   7.130  46.839  1.00  0.00     0.166 C 
HETATM    9  C8  UNL     1      34.493   6.627  47.834  1.00  0.00     0.144 C 
HETATM   10  N1  UNL     1      34.818   5.334  47.978  1.00  0.00    -0.163 NA
HETATM   11  N2  UNL     1      34.018   4.338  47.317  1.00  0.00    -0.151 N 
HETATM   12  C9  UNL     1      32.953   3.360  47.615  1.00  0.00     0.301 C 
HETATM   13  N3  UNL     1      31.667   4.077  47.427  1.00  0.00    -0.369 N 
HETATM   14  O1  UNL     1      34.254   4.276  45.932  1.00  0.00    -0.199 OA
HETATM   15  C10 UNL     1      33.961   5.402  45.083  1.00  0.00     0.171 C 
HETATM   16  C11 UNL     1      33.863   4.664  43.976  1.00  0.00     0.059 C 
HETATM   17  C12 UNL     1      33.577   5.000  42.583  1.00  0.00     0.017 C 
HETATM   18  C13 UNL     1      32.793   5.894  42.051  1.00  0.00    -0.014 C 
HETATM   19  C14 UNL     1      32.980   7.149  42.203  1.00  0.00    -0.016 C 
HETATM   20  C15 UNL     1      33.265   7.691  43.354  1.00  0.00     0.006 C 
HETATM   21  C16 UNL     1      34.107   7.902  44.579  1.00  0.00     0.154 C 
HETATM   22  N4  UNL     1      33.849   6.811  45.470  1.00  0.00    -0.343 N 
HETATM   23  H8  UNL     1      30.828   3.510  47.186  1.00  0.00     0.161 HD
ENDROOT
TORSDOF 0
ENDMDL
MODEL 7
REMARK VINA RESULT:      -6.6      2.518      4.564
REMARK  0 active torsions:
REMARK  status: ('A' for Active; 'I' for Inactive)
ROOT
HETATM    1 BR1  UNL     1      21.914   4.156  47.112  1.00  0.00    -0.050 Br
HETATM    2  C1  UNL     1      21.864   5.082  48.807  1.00  0.00     0.021 A 
HETATM    3  C2  UNL     1      21.300   6.330  48.652  1.00  0.00     0.020 A 
HETATM    4  C3  UNL     1      21.188   7.170  49.753  1.00  0.00     0.004 A 
HETATM    5  C4  UNL     1      21.643   6.730  50.961  1.00  0.00     0.030 A 
HETATM    6  C5  UNL     1      22.197   5.470  51.050  1.00  0.00     0.039 A 
HETATM    7  C6  UNL     1      22.357   4.546  50.008  1.00  0.00     0.014 A 
HETATM    8  C7  UNL     1      22.824   3.225  49.609  1.00  0.00     0.166 C 
HETATM    9  C8  UNL     1      24.322   3.186  49.872  1.00  0.00     0.144 C 
HETATM   10  N1  UNL     1      24.863   3.237  51.097  1.00  0.00    -0.163 NA
HETATM   11  N2  UNL     1      24.018   3.548  52.218  1.00  0.00    -0.151 N 
HETATM   12  C9  UNL     1      23.684   4.680  53.105  1.00  0.00     0.301 C 
HETATM   13  N3  UNL     1      22.563   5.401  52.451  1.00  0.00    -0.369 N 
HETATM   14  O1  UNL     1      23.189   2.477  52.594  1.00  0.00    -0.199 OA
HETATM   15  C10 UNL     1      22.188   1.967  51.691  1.00  0.00     0.171 C 
HETATM   16  C11 UNL     1      21.450   1.428  52.662  1.00  0.00     0.059 C 
HETATM   17  C12 UNL     1      20.196   0.677  52.653  1.00  0.00     0.017 C 
HETATM   18  C13 UNL     1      19.134   0.774  51.904  1.00  0.00    -0.014 C 
HETATM   19  C14 UNL     1      19.156   0.544  50.648  1.00  0.00    -0.016 C 
HETATM   20  C15 UNL     1      20.085   1.004  49.857  1.00  0.00     0.006 C 
HETATM   21  C16 UNL     1      21.499   1.149  49.372  1.00  0.00     0.154 C 
HETATM   22  N4  UNL     1      22.153   2.089  50.231  1.00  0.00    -0.343 N 
HETATM   23  H8  UNL     1      21.922   5.951  53.059  1.00  0.00     0.161 HD
ENDROOT
TORSDOF 0
ENDMDL
MODEL 8
REMARK VINA RESULT:      -6.6      3.179      4.355
REMARK  0 active torsions:
REMARK  status: ('A' for Active; 'I' for Inactive)
ROOT
HETATM    1 BR1  UNL     1      21.153   7.674  49.964  1.00  0.00    -0.050 Br
HETATM    2  C1  UNL     1      21.101   5.925  49.145  1.00  0.00     0.021 A 
HETATM    3  C2  UNL     1      20.272   5.939  48.043  1.00  0.00     0.020 A 
HETATM    4  C3  UNL     1      20.080   4.769  47.319  1.00  0.00     0.004 A 
HETATM    5  C4  UNL     1      20.721   3.636  47.723  1.00  0.00     0.030 A 
HETATM    6  C5  UNL     1      21.537   3.688  48.834  1.00  0.00     0.039 A 
HETATM    7  C6  UNL     1      21.801   4.810  49.632  1.00  0.00     0.014 A 
HETATM    8  C7  UNL     1      22.509   5.346  50.786  1.00  0.00     0.166 C 
HETATM    9  C8  UNL     1      21.999   4.598  52.008  1.00  0.00     0.144 C 
HETATM   10  N1  UNL     1      22.213   3.292  52.223  1.00  0.00    -0.163 NA
HETATM   11  N2  UNL     1      22.773   2.496  51.164  1.00  0.00    -0.151 N 
HETATM   12  C9  UNL     1      22.354   1.521  50.137  1.00  0.00     0.301 C 
HETATM   13  N3  UNL     1      21.994   2.315  48.935  1.00  0.00    -0.369 N 
HETATM   14  O1  UNL     1      24.147   2.723  50.975  1.00  0.00    -0.199 OA
HETATM   15  C10 UNL     1      24.632   4.017  50.566  1.00  0.00     0.171 C 
HETATM   16  C11 UNL     1      25.774   3.538  50.070  1.00  0.00     0.059 C 
HETATM   17  C12 UNL     1      26.919   4.178  49.424  1.00  0.00     0.017 C 
HETATM   18  C13 UNL     1      27.000   5.197  48.617  1.00  0.00    -0.014 C 
HETATM   19  C14 UNL     1      26.676   6.381  48.971  1.00  0.00    -0.016 C 
HETATM   20  C15 UNL     1      25.587   6.651  49.637  1.00  0.00     0.006 C 
HETATM   21  C16 UNL     1      24.666   6.558  50.820  1.00  0.00     0.154 C 
HETATM   22  N4  UNL     1      23.966   5.313  50.721  1.00  0.00    -0.343 N 
HETATM   23  H8  UNL     1      22.068   1.849  48.007  1.00  0.00     0.161 HD
ENDROOT
TORSDOF 0
ENDMDL
MODEL 9
REMARK VINA RESULT:      -6.5      2.766      5.290
REMARK  0 active torsions:
REMARK  status: ('A' for Active; 'I' for Inactive)
ROOT
HETATM    1 BR1  UNL     1      26.313   3.274  49.690  1.00  0.00    -0.050 Br
HETATM    2  C1  UNL     1      24.886   2.694  50.856  1.00  0.00     0.021 A 
HETATM    3  C2  UNL     1      25.403   2.218  52.043  1.00  0.00     0.020 A 
HETATM    4  C3  UNL     1      24.540   1.731  53.016  1.00  0.00     0.004 A 
HETATM    5  C4  UNL     1      23.200   1.738  52.766  1.00  0.00     0.030 A 
HETATM    6  C5  UNL     1      22.746   2.228  51.560  1.00  0.00     0.039 A 
HETATM    7  C6  UNL     1      23.525   2.741  50.513  1.00  0.00     0.014 A 
HETATM    8  C7  UNL     1      23.544   3.325  49.180  1.00  0.00     0.166 C 
HETATM    9  C8  UNL     1      22.957   2.290  48.233  1.00  0.00     0.144 C 
HETATM   10  N1  UNL     1      21.678   1.891  48.267  1.00  0.00    -0.163 NA
HETATM   11  N2  UNL     1      20.853   2.298  49.372  1.00  0.00    -0.151 N 
HETATM   12  C9  UNL     1      20.301   1.760  50.632  1.00  0.00     0.301 C 
HETATM   13  N3  UNL     1      21.313   2.042  51.680  1.00  0.00    -0.369 N 
HETATM   14  O1  UNL     1      20.465   3.647  49.299  1.00  0.00    -0.199 OA
HETATM   15  C10 UNL     1      21.446   4.701  49.351  1.00  0.00     0.171 C 
HETATM   16  C11 UNL     1      20.574   5.624  49.758  1.00  0.00     0.059 C 
HETATM   17  C12 UNL     1      20.710   7.044  50.076  1.00  0.00     0.017 C 
HETATM   18  C13 UNL     1      21.677   7.719  50.629  1.00  0.00    -0.014 C 
HETATM   19  C14 UNL     1      22.828   7.841  50.088  1.00  0.00    -0.016 C 
HETATM   20  C15 UNL     1      23.470   6.840  49.552  1.00  0.00     0.006 C 
HETATM   21  C16 UNL     1      23.653   5.720  48.568  1.00  0.00     0.154 C 
HETATM   22  N4  UNL     1      22.873   4.612  49.030  1.00  0.00    -0.343 N 
HETATM   23  H8  UNL     1      20.981   2.126  52.663  1.00  0.00     0.161 HD
ENDROOT
TORSDOF 0
ENDMDL
