MODEL 1
REMARK VINA RESULT:      -7.5      0.000      0.000
REMARK  5 active torsions:
REMARK  status: ('A' for Active; 'I' for Inactive)
REMARK    1  A    between atoms: N1_12  and  C9_13 
REMARK    2  A    between atoms: N2_14  and  C10_15 
REMARK    3  A    between atoms: C11_16  and  C12_17 
REMARK    4  A    between atoms: C12_17  and  O3_18 
REMARK    5  A    between atoms: O3_18  and  C13_19 
ROOT
HETATM    1  F1  UNL     1      26.676  -2.675  52.123  1.00  0.00    -0.204 F 
HETATM    2  C1  UNL     1      27.329  -1.665  52.735  1.00  0.00     0.143 C 
HETATM    3  C2  UNL     1      28.687  -1.754  52.969  1.00  0.00     0.047 C 
HETATM    4  C3  UNL     1      29.823  -0.893  53.499  1.00  0.00     0.037 C 
HETATM    5  C4  UNL     1      29.280   0.295  53.912  1.00  0.00     0.070 C 
HETATM    6  C5  UNL     1      28.645   0.788  55.183  1.00  0.00     0.233 C 
HETATM    7  O1  UNL     1      27.257   0.871  54.981  1.00  0.00    -0.371 OA
HETATM    8  C6  UNL     1      26.854   0.967  53.671  1.00  0.00     0.201 C 
HETATM    9  C7  UNL     1      27.786   1.743  52.776  1.00  0.00     0.213 C 
HETATM   10  O2  UNL     1      29.164   1.509  53.118  1.00  0.00    -0.350 OA
HETATM   11  C8  UNL     1      26.588  -0.432  53.167  1.00  0.00     0.105 C 
HETATM   12  N1  UNL     1      25.334  -0.694  53.056  1.00  0.00    -0.241 NA
ENDROOT
BRANCH  12  13
HETATM   13  C9  UNL     1      24.336   0.231  53.374  1.00  0.00     0.232 C 
HETATM   14  N2  UNL     1      23.641  -0.821  53.637  1.00  0.00    -0.254 NA
BRANCH  14  15
HETATM   15  C10 UNL     1      22.311  -0.842  54.091  1.00  0.00     0.116 C 
HETATM   16  C11 UNL     1      21.364  -0.532  53.199  1.00  0.00     0.018 C 
BRANCH  16  17
HETATM   17  C12 UNL     1      19.910  -0.508  53.518  1.00  0.00     0.200 C 
BRANCH  17  18
HETATM   18  O3  UNL     1      19.182   0.223  52.608  1.00  0.00    -0.358 OA
BRANCH  18  19
HETATM   19  C13 UNL     1      18.139  -0.566  52.127  1.00  0.00     0.261 C 
HETATM   20  C14 UNL     1      17.659  -1.488  53.238  1.00  0.00     0.087 C 
HETATM   21  C15 UNL     1      16.348  -1.167  52.593  1.00  0.00     0.175 C 
HETATM   22  O4  UNL     1      16.885   0.032  52.132  1.00  0.00    -0.361 OA
ENDBRANCH  18  19
ENDBRANCH  17  18
ENDBRANCH  16  17
ENDBRANCH  14  15
ENDBRANCH  12  13
TORSDOF 5
ENDMDL
MODEL 2
REMARK VINA RESULT:      -7.5      1.706      2.191
REMARK  5 active torsions:
REMARK  status: ('A' for Active; 'I' for Inactive)
REMARK    1  A    between atoms: N1_12  and  C9_13 
REMARK    2  A    between atoms: N2_14  and  C10_15 
REMARK    3  A    between atoms: C11_16  and  C12_17 
REMARK    4  A    between atoms: C12_17  and  O3_18 
REMARK    5  A    between atoms: O3_18  and  C13_19 
ROOT
HETATM    1  F1  UNL     1      26.648  -2.704  52.078  1.00  0.00    -0.204 F 
HETATM    2  C1  UNL     1      27.298  -1.696  52.695  1.00  0.00     0.143 C 
HETATM    3  C2  UNL     1      28.662  -1.765  52.893  1.00  0.00     0.047 C 
HETATM    4  C3  UNL     1      29.796  -0.895  53.414  1.00  0.00     0.037 C 
HETATM    5  C4  UNL     1      29.242   0.273  53.868  1.00  0.00     0.070 C 
HETATM    6  C5  UNL     1      28.632   0.726  55.166  1.00  0.00     0.233 C 
HETATM    7  O1  UNL     1      27.238   0.788  55.000  1.00  0.00    -0.371 OA
HETATM    8  C6  UNL     1      26.800   0.905  53.703  1.00  0.00     0.201 C 
HETATM    9  C7  UNL     1      27.694   1.719  52.803  1.00  0.00     0.213 C 
HETATM   10  O2  UNL     1      29.084   1.502  53.105  1.00  0.00    -0.350 OA
HETATM   11  C8  UNL     1      26.545  -0.487  53.174  1.00  0.00     0.105 C 
HETATM   12  N1  UNL     1      25.295  -0.770  53.089  1.00  0.00    -0.241 NA
ENDROOT
BRANCH  12  13
HETATM   13  C9  UNL     1      24.289   0.129  53.453  1.00  0.00     0.232 C 
HETATM   14  N2  UNL     1      23.521  -0.897  53.330  1.00  0.00    -0.254 NA
BRANCH  14  15
HETATM   15  C10 UNL     1      22.131  -0.921  53.536  1.00  0.00     0.116 C 
HETATM   16  C11 UNL     1      21.418   0.051  52.955  1.00  0.00     0.018 C 
BRANCH  16  17
HETATM   17  C12 UNL     1      19.939   0.169  53.074  1.00  0.00     0.200 C 
BRANCH  17  18
HETATM   18  O3  UNL     1      19.402   1.033  52.148  1.00  0.00    -0.358 OA
BRANCH  18  19
HETATM   19  C13 UNL     1      20.155   2.205  52.136  1.00  0.00     0.261 C 
HETATM   20  C14 UNL     1      20.271   2.708  50.705  1.00  0.00     0.087 C 
HETATM   21  C15 UNL     1      20.139   4.015  51.421  1.00  0.00     0.175 C 
HETATM   22  O4  UNL     1      19.460   3.366  52.449  1.00  0.00    -0.361 OA
ENDBRANCH  18  19
ENDBRANCH  17  18
ENDBRANCH  16  17
ENDBRANCH  14  15
ENDBRANCH  12  13
TORSDOF 5
ENDMDL
MODEL 3
REMARK VINA RESULT:      -7.0      4.400      8.718
REMARK  5 active torsions:
REMARK  status: ('A' for Active; 'I' for Inactive)
REMARK    1  A    between atoms: N1_12  and  C9_13 
REMARK    2  A    between atoms: N2_14  and  C10_15 
REMARK    3  A    between atoms: C11_16  and  C12_17 
REMARK    4  A    between atoms: C12_17  and  O3_18 
REMARK    5  A    between atoms: O3_18  and  C13_19 
ROOT
HETATM    1  F1  UNL     1      22.932   1.416  51.358  1.00  0.00    -0.204 F 
HETATM    2  C1  UNL     1      23.893   0.947  52.180  1.00  0.00     0.143 C 
HETATM    3  C2  UNL     1      23.569   0.092  53.215  1.00  0.00     0.047 C 
HETATM    4  C3  UNL     1      24.263  -0.737  54.284  1.00  0.00     0.037 C 
HETATM    5  C4  UNL     1      25.606  -0.483  54.194  1.00  0.00     0.070 C 
HETATM    6  C5  UNL     1      26.529   0.562  54.759  1.00  0.00     0.233 C 
HETATM    7  O1  UNL     1      26.863   1.459  53.731  1.00  0.00    -0.371 OA
HETATM    8  C6  UNL     1      26.713   0.977  52.452  1.00  0.00     0.201 C 
HETATM    9  C7  UNL     1      27.016  -0.490  52.288  1.00  0.00     0.213 C 
HETATM   10  O2  UNL     1      26.577  -1.250  53.429  1.00  0.00    -0.350 OA
HETATM   11  C8  UNL     1      25.327   1.346  51.979  1.00  0.00     0.105 C 
HETATM   12  N1  UNL     1      25.329   2.308  51.127  1.00  0.00    -0.241 NA
ENDROOT
BRANCH  12  13
HETATM   13  C9  UNL     1      26.500   2.936  50.695  1.00  0.00     0.232 C 
HETATM   14  N2  UNL     1      25.687   3.810  50.212  1.00  0.00    -0.254 NA
BRANCH  14  15
HETATM   15  C10 UNL     1      26.044   4.969  49.502  1.00  0.00     0.116 C 
HETATM   16  C11 UNL     1      27.240   4.966  48.903  1.00  0.00     0.018 C 
BRANCH  16  17
HETATM   17  C12 UNL     1      27.768   6.112  48.113  1.00  0.00     0.200 C 
BRANCH  17  18
HETATM   18  O3  UNL     1      29.006   6.526  48.545  1.00  0.00    -0.358 OA
BRANCH  18  19
HETATM   19  C13 UNL     1      29.956   5.579  48.165  1.00  0.00     0.261 C 
HETATM   20  C14 UNL     1      31.052   6.266  47.365  1.00  0.00     0.087 C 
HETATM   21  C15 UNL     1      31.878   5.283  48.131  1.00  0.00     0.175 C 
HETATM   22  O4  UNL     1      30.906   5.264  49.128  1.00  0.00    -0.361 OA
ENDBRANCH  18  19
ENDBRANCH  17  18
ENDBRANCH  16  17
ENDBRANCH  14  15
ENDBRANCH  12  13
TORSDOF 5
ENDMDL
MODEL 4
REMARK VINA RESULT:      -6.9      5.161      8.120
REMARK  5 active torsions:
REMARK  status: ('A' for Active; 'I' for Inactive)
REMARK    1  A    between atoms: N1_12  and  C9_13 
REMARK    2  A    between atoms: N2_14  and  C10_15 
REMARK    3  A    between atoms: C11_16  and  C12_17 
REMARK    4  A    between atoms: C12_17  and  O3_18 
REMARK    5  A    between atoms: O3_18  and  C13_19 
ROOT
HETATM    1  F1  UNL     1      27.536   3.584  48.731  1.00  0.00    -0.204 F 
HETATM    2  C1  UNL     1      26.847   4.729  48.915  1.00  0.00     0.143 C 
HETATM    3  C2  UNL     1      27.376   5.936  48.501  1.00  0.00     0.047 C 
HETATM    4  C3  UNL     1      26.970   7.398  48.399  1.00  0.00     0.037 C 
HETATM    5  C4  UNL     1      25.720   7.516  48.948  1.00  0.00     0.070 C 
HETATM    6  C5  UNL     1      25.186   7.723  50.339  1.00  0.00     0.233 C 
HETATM    7  O1  UNL     1      24.656   6.505  50.795  1.00  0.00    -0.371 OA
HETATM    8  C6  UNL     1      24.307   5.607  49.814  1.00  0.00     0.201 C 
HETATM    9  C7  UNL     1      23.772   6.226  48.549  1.00  0.00     0.213 C 
HETATM   10  O2  UNL     1      24.456   7.451  48.230  1.00  0.00    -0.350 OA
HETATM   11  C8  UNL     1      25.495   4.706  49.570  1.00  0.00     0.105 C 
HETATM   12  N1  UNL     1      25.342   3.530  50.064  1.00  0.00    -0.241 NA
ENDROOT
BRANCH  12  13
HETATM   13  C9  UNL     1      24.190   3.142  50.753  1.00  0.00     0.232 C 
HETATM   14  N2  UNL     1      24.962   2.241  51.254  1.00  0.00    -0.254 NA
BRANCH  14  15
HETATM   15  C10 UNL     1      24.590   1.258  52.186  1.00  0.00     0.116 C 
HETATM   16  C11 UNL     1      25.581   0.614  52.813  1.00  0.00     0.018 C 
BRANCH  16  17
HETATM   17  C12 UNL     1      25.359  -0.452  53.828  1.00  0.00     0.200 C 
BRANCH  17  18
HETATM   18  O3  UNL     1      26.482  -0.712  54.576  1.00  0.00    -0.358 OA
BRANCH  18  19
HETATM   19  C13 UNL     1      27.611  -0.425  53.810  1.00  0.00     0.261 C 
HETATM   20  C14 UNL     1      28.708   0.105  54.720  1.00  0.00     0.087 C 
HETATM   21  C15 UNL     1      29.535  -0.707  53.774  1.00  0.00     0.175 C 
HETATM   22  O4  UNL     1      28.428  -1.510  53.518  1.00  0.00    -0.361 OA
ENDBRANCH  18  19
ENDBRANCH  17  18
ENDBRANCH  16  17
ENDBRANCH  14  15
ENDBRANCH  12  13
TORSDOF 5
ENDMDL
MODEL 5
REMARK VINA RESULT:      -6.9      5.187      7.439
REMARK  5 active torsions:
REMARK  status: ('A' for Active; 'I' for Inactive)
REMARK    1  A    between atoms: N1_12  and  C9_13 
REMARK    2  A    between atoms: N2_14  and  C10_15 
REMARK    3  A    between atoms: C11_16  and  C12_17 
REMARK    4  A    between atoms: C12_17  and  O3_18 
REMARK    5  A    between atoms: O3_18  and  C13_19 
ROOT
HETATM    1  F1  UNL     1      28.449   4.728  48.247  1.00  0.00    -0.204 F 
HETATM    2  C1  UNL     1      27.297   5.336  48.599  1.00  0.00     0.143 C 
HETATM    3  C2  UNL     1      27.044   6.634  48.202  1.00  0.00     0.047 C 
HETATM    4  C3  UNL     1      25.920   7.656  48.255  1.00  0.00     0.037 C 
HETATM    5  C4  UNL     1      24.893   7.101  48.973  1.00  0.00     0.070 C 
HETATM    6  C5  UNL     1      24.545   7.011  50.433  1.00  0.00     0.233 C 
HETATM    7  O1  UNL     1      24.810   5.703  50.871  1.00  0.00    -0.371 OA
HETATM    8  C6  UNL     1      24.843   4.744  49.887  1.00  0.00     0.201 C 
HETATM    9  C7  UNL     1      23.881   4.969  48.749  1.00  0.00     0.213 C 
HETATM   10  O2  UNL     1      23.762   6.366  48.427  1.00  0.00    -0.350 OA
HETATM   11  C8  UNL     1      26.276   4.607  49.425  1.00  0.00     0.105 C 
HETATM   12  N1  UNL     1      26.840   3.535  49.853  1.00  0.00    -0.241 NA
ENDROOT
BRANCH  12  13
HETATM   13  C9  UNL     1      26.182   2.604  50.661  1.00  0.00     0.232 C 
HETATM   14  N2  UNL     1      27.237   2.704  51.393  1.00  0.00    -0.254 NA
BRANCH  14  15
HETATM   15  C10 UNL     1      27.479   2.015  52.594  1.00  0.00     0.116 C 
HETATM   16  C11 UNL     1      26.952   0.791  52.706  1.00  0.00     0.018 C 
BRANCH  16  17
HETATM   17  C12 UNL     1      27.114  -0.069  53.910  1.00  0.00     0.200 C 
BRANCH  17  18
HETATM   18  O3  UNL     1      26.171  -1.067  53.977  1.00  0.00    -0.358 OA
BRANCH  18  19
HETATM   19  C13 UNL     1      25.007  -0.550  54.542  1.00  0.00     0.261 C 
HETATM   20  C14 UNL     1      23.861  -0.709  53.554  1.00  0.00     0.087 C 
HETATM   21  C15 UNL     1      23.133  -0.987  54.830  1.00  0.00     0.175 C 
HETATM   22  O4  UNL     1      24.331  -1.401  55.406  1.00  0.00    -0.361 OA
ENDBRANCH  18  19
ENDBRANCH  17  18
ENDBRANCH  16  17
ENDBRANCH  14  15
ENDBRANCH  12  13
TORSDOF 5
ENDMDL
MODEL 6
REMARK VINA RESULT:      -6.7      4.823      8.481
REMARK  5 active torsions:
REMARK  status: ('A' for Active; 'I' for Inactive)
REMARK    1  A    between atoms: N1_12  and  C9_13 
REMARK    2  A    between atoms: N2_14  and  C10_15 
REMARK    3  A    between atoms: C11_16  and  C12_17 
REMARK    4  A    between atoms: C12_17  and  O3_18 
REMARK    5  A    between atoms: O3_18  and  C13_19 
ROOT
HETATM    1  F1  UNL     1      22.623   1.293  51.725  1.00  0.00    -0.204 F 
HETATM    2  C1  UNL     1      23.677   0.842  52.438  1.00  0.00     0.143 C 
HETATM    3  C2  UNL     1      23.484  -0.031  53.490  1.00  0.00     0.047 C 
HETATM    4  C3  UNL     1      24.306  -0.852  54.471  1.00  0.00     0.037 C 
HETATM    5  C4  UNL     1      25.626  -0.558  54.248  1.00  0.00     0.070 C 
HETATM    6  C5  UNL     1      26.574   0.506  54.728  1.00  0.00     0.233 C 
HETATM    7  O1  UNL     1      26.775   1.423  53.682  1.00  0.00    -0.371 OA
HETATM    8  C6  UNL     1      26.508   0.949  52.420  1.00  0.00     0.201 C 
HETATM    9  C7  UNL     1      26.832  -0.507  52.207  1.00  0.00     0.213 C 
HETATM   10  O2  UNL     1      26.533  -1.290  53.377  1.00  0.00    -0.350 OA
HETATM   11  C8  UNL     1      25.071   1.284  52.096  1.00  0.00     0.105 C 
HETATM   12  N1  UNL     1      24.959   2.255  51.261  1.00  0.00    -0.241 NA
ENDROOT
BRANCH  12  13
HETATM   13  C9  UNL     1      26.063   2.919  50.719  1.00  0.00     0.232 C 
HETATM   14  N2  UNL     1      25.198   3.831  50.437  1.00  0.00    -0.254 NA
BRANCH  14  15
HETATM   15  C10 UNL     1      25.461   5.048  49.785  1.00  0.00     0.116 C 
HETATM   16  C11 UNL     1      26.603   5.127  49.092  1.00  0.00     0.018 C 
BRANCH  16  17
HETATM   17  C12 UNL     1      27.029   6.342  48.346  1.00  0.00     0.200 C 
BRANCH  17  18
HETATM   18  O3  UNL     1      27.118   7.453  49.151  1.00  0.00    -0.358 OA
BRANCH  18  19
HETATM   19  C13 UNL     1      28.107   8.297  48.649  1.00  0.00     0.261 C 
HETATM   20  C14 UNL     1      28.420   9.368  49.683  1.00  0.00     0.087 C 
HETATM   21  C15 UNL     1      29.795   9.125  49.147  1.00  0.00     0.175 C 
HETATM   22  O4  UNL     1      29.410   7.838  48.784  1.00  0.00    -0.361 OA
ENDBRANCH  18  19
ENDBRANCH  17  18
ENDBRANCH  16  17
ENDBRANCH  14  15
ENDBRANCH  12  13
TORSDOF 5
ENDMDL
MODEL 7
REMARK VINA RESULT:      -6.4      4.168      7.008
REMARK  5 active torsions:
REMARK  status: ('A' for Active; 'I' for Inactive)
REMARK    1  A    between atoms: N1_12  and  C9_13 
REMARK    2  A    between atoms: N2_14  and  C10_15 
REMARK    3  A    between atoms: C11_16  and  C12_17 
REMARK    4  A    between atoms: C12_17  and  O3_18 
REMARK    5  A    between atoms: O3_18  and  C13_19 
ROOT
HETATM    1  F1  UNL     1      21.713   0.890  48.789  1.00  0.00    -0.204 F 
HETATM    2  C1  UNL     1      22.162   2.021  49.372  1.00  0.00     0.143 C 
HETATM    3  C2  UNL     1      23.022   2.861  48.693  1.00  0.00     0.047 C 
HETATM    4  C3  UNL     1      23.685   4.218  48.869  1.00  0.00     0.037 C 
HETATM    5  C4  UNL     1      23.348   4.682  50.114  1.00  0.00     0.070 C 
HETATM    6  C5  UNL     1      23.906   4.507  51.500  1.00  0.00     0.233 C 
HETATM    7  O1  UNL     1      23.060   3.641  52.211  1.00  0.00    -0.371 OA
HETATM    8  C6  UNL     1      21.775   3.542  51.732  1.00  0.00     0.201 C 
HETATM    9  C7  UNL     1      21.217   4.813  51.145  1.00  0.00     0.213 C 
HETATM   10  O2  UNL     1      22.225   5.551  50.432  1.00  0.00    -0.350 OA
HETATM   11  C8  UNL     1      21.731   2.381  50.766  1.00  0.00     0.105 C 
HETATM   12  N1  UNL     1      21.143   1.347  51.252  1.00  0.00    -0.241 NA
ENDROOT
BRANCH  12  13
HETATM   13  C9  UNL     1      20.607   1.317  52.542  1.00  0.00     0.232 C 
HETATM   14  N2  UNL     1      21.598   0.531  52.784  1.00  0.00    -0.254 NA
BRANCH  14  15
HETATM   15  C10 UNL     1      21.890  -0.075  54.018  1.00  0.00     0.116 C 
HETATM   16  C11 UNL     1      23.059  -0.719  54.113  1.00  0.00     0.018 C 
BRANCH  16  17
HETATM   17  C12 UNL     1      23.520  -1.412  55.347  1.00  0.00     0.200 C 
BRANCH  17  18
HETATM   18  O3  UNL     1      24.865  -1.243  55.577  1.00  0.00    -0.358 OA
BRANCH  18  19
HETATM   19  C13 UNL     1      25.445  -0.658  54.453  1.00  0.00     0.261 C 
HETATM   20  C14 UNL     1      26.512   0.329  54.899  1.00  0.00     0.087 C 
HETATM   21  C15 UNL     1      27.181  -0.233  53.685  1.00  0.00     0.175 C 
HETATM   22  O4  UNL     1      26.442  -1.403  53.838  1.00  0.00    -0.361 OA
ENDBRANCH  18  19
ENDBRANCH  17  18
ENDBRANCH  16  17
ENDBRANCH  14  15
ENDBRANCH  12  13
TORSDOF 5
ENDMDL
MODEL 8
REMARK VINA RESULT:      -6.4      5.796      7.121
REMARK  5 active torsions:
REMARK  status: ('A' for Active; 'I' for Inactive)
REMARK    1  A    between atoms: N1_12  and  C9_13 
REMARK    2  A    between atoms: N2_14  and  C10_15 
REMARK    3  A    between atoms: C11_16  and  C12_17 
REMARK    4  A    between atoms: C12_17  and  O3_18 
REMARK    5  A    between atoms: O3_18  and  C13_19 
ROOT
HETATM    1  F1  UNL     1      27.539   3.925  48.571  1.00  0.00    -0.204 F 
HETATM    2  C1  UNL     1      27.404   5.265  48.643  1.00  0.00     0.143 C 
HETATM    3  C2  UNL     1      28.391   6.092  48.144  1.00  0.00     0.047 C 
HETATM    4  C3  UNL     1      28.644   7.574  47.911  1.00  0.00     0.037 C 
HETATM    5  C4  UNL     1      27.571   8.258  48.418  1.00  0.00     0.070 C 
HETATM    6  C5  UNL     1      27.194   8.790  49.773  1.00  0.00     0.233 C 
HETATM    7  O1  UNL     1      26.202   7.956  50.315  1.00  0.00    -0.371 OA
HETATM    8  C6  UNL     1      25.491   7.212  49.404  1.00  0.00     0.201 C 
HETATM    9  C7  UNL     1      25.253   7.889  48.079  1.00  0.00     0.213 C 
HETATM   10  O2  UNL     1      26.390   8.675  47.677  1.00  0.00    -0.350 OA
HETATM   11  C8  UNL     1      26.180   5.874  49.264  1.00  0.00     0.105 C 
HETATM   12  N1  UNL     1      25.547   4.922  49.850  1.00  0.00    -0.241 NA
ENDROOT
BRANCH  12  13
HETATM   13  C9  UNL     1      24.349   5.120  50.541  1.00  0.00     0.232 C 
HETATM   14  N2  UNL     1      24.637   3.988  51.083  1.00  0.00    -0.254 NA
BRANCH  14  15
HETATM   15  C10 UNL     1      23.869   3.314  52.047  1.00  0.00     0.116 C 
HETATM   16  C11 UNL     1      23.947   1.978  52.057  1.00  0.00     0.018 C 
BRANCH  16  17
HETATM   17  C12 UNL     1      23.199   1.116  53.012  1.00  0.00     0.200 C 
BRANCH  17  18
HETATM   18  O3  UNL     1      23.699  -0.164  53.071  1.00  0.00    -0.358 OA
BRANCH  18  19
HETATM   19  C13 UNL     1      22.649  -1.047  53.316  1.00  0.00     0.261 C 
HETATM   20  C14 UNL     1      22.414  -1.137  54.816  1.00  0.00     0.087 C 
HETATM   21  C15 UNL     1      20.999  -1.201  54.335  1.00  0.00     0.175 C 
HETATM   22  O4  UNL     1      21.374  -0.512  53.185  1.00  0.00    -0.361 OA
ENDBRANCH  18  19
ENDBRANCH  17  18
ENDBRANCH  16  17
ENDBRANCH  14  15
ENDBRANCH  12  13
TORSDOF 5
ENDMDL
MODEL 9
REMARK VINA RESULT:      -6.3      4.931      8.209
REMARK  5 active torsions:
REMARK  status: ('A' for Active; 'I' for Inactive)
REMARK    1  A    between atoms: N1_12  and  C9_13 
REMARK    2  A    between atoms: N2_14  and  C10_15 
REMARK    3  A    between atoms: C11_16  and  C12_17 
REMARK    4  A    between atoms: C12_17  and  O3_18 
REMARK    5  A    between atoms: O3_18  and  C13_19 
ROOT
HETATM    1  F1  UNL     1      22.692   2.236  48.508  1.00  0.00    -0.204 F 
HETATM    2  C1  UNL     1      22.863   3.480  49.000  1.00  0.00     0.143 C 
HETATM    3  C2  UNL     1      23.082   4.543  48.146  1.00  0.00     0.047 C 
HETATM    4  C3  UNL     1      23.222   6.056  48.203  1.00  0.00     0.037 C 
HETATM    5  C4  UNL     1      23.169   6.425  49.522  1.00  0.00     0.070 C 
HETATM    6  C5  UNL     1      24.175   6.539  50.634  1.00  0.00     0.233 C 
HETATM    7  O1  UNL     1      23.989   5.458  51.512  1.00  0.00    -0.371 OA
HETATM    8  C6  UNL     1      22.748   4.867  51.469  1.00  0.00     0.201 C 
HETATM    9  C7  UNL     1      21.606   5.811  51.195  1.00  0.00     0.213 C 
HETATM   10  O2  UNL     1      21.979   6.833  50.253  1.00  0.00    -0.350 OA
HETATM   11  C8  UNL     1      22.815   3.725  50.481  1.00  0.00     0.105 C 
HETATM   12  N1  UNL     1      22.840   2.573  51.050  1.00  0.00    -0.241 NA
ENDROOT
BRANCH  12  13
HETATM   13  C9  UNL     1      22.808   2.412  52.438  1.00  0.00     0.232 C 
HETATM   14  N2  UNL     1      23.908   1.769  52.247  1.00  0.00    -0.254 NA
BRANCH  14  15
HETATM   15  C10 UNL     1      24.694   1.162  53.241  1.00  0.00     0.116 C 
HETATM   16  C11 UNL     1      25.000  -0.129  53.065  1.00  0.00     0.018 C 
BRANCH  16  17
HETATM   17  C12 UNL     1      25.823  -0.918  54.022  1.00  0.00     0.200 C 
BRANCH  17  18
HETATM   18  O3  UNL     1      26.953  -0.246  54.425  1.00  0.00    -0.358 OA
BRANCH  18  19
HETATM   19  C13 UNL     1      27.982  -0.514  53.525  1.00  0.00     0.261 C 
HETATM   20  C14 UNL     1      29.270   0.112  54.038  1.00  0.00     0.087 C 
HETATM   21  C15 UNL     1      29.819  -1.154  53.460  1.00  0.00     0.175 C 
HETATM   22  O4  UNL     1      28.581  -1.761  53.652  1.00  0.00    -0.361 OA
ENDBRANCH  18  19
ENDBRANCH  17  18
ENDBRANCH  16  17
ENDBRANCH  14  15
ENDBRANCH  12  13
TORSDOF 5
ENDMDL
