MODEL 1
REMARK VINA RESULT:      -8.6      0.000      0.000
REMARK  6 active torsions:
REMARK  status: ('A' for Active; 'I' for Inactive)
REMARK    1  A    between atoms: N2_5  and  C4_6 
REMARK    2  A    between atoms: C4_6  and  C5_7 
REMARK    3  A    between atoms: C5_7  and  C6_8 
REMARK    4  A    between atoms: C7_9  and  C8_10 
REMARK    5  A    between atoms: C8_10  and  C9_12 
REMARK    6  A    between atoms: C14_19  and  N5_20 
ROOT
HETATM    1  C9  UNL     1      20.368  -0.988  53.732  1.00  0.00     0.089 A 
HETATM    2  C10 UNL     1      19.875  -0.138  52.874  1.00  0.00     0.051 A 
HETATM    3  C11 UNL     1      18.515  -0.270  52.383  1.00  0.00     0.038 A 
HETATM    4  C12 UNL     1      17.674  -1.282  52.786  1.00  0.00     0.067 A 
HETATM    5  N3  UNL     1      16.413  -1.358  52.280  1.00  0.00    -0.244 NA
HETATM    6  C13 UNL     1      16.007  -0.440  51.387  1.00  0.00     0.235 A 
HETATM    7  N4  UNL     1      16.810   0.578  50.962  1.00  0.00    -0.224 NA
HETATM    8  C14 UNL     1      18.071   0.643  51.479  1.00  0.00     0.139 A 
HETATM    9  C20 UNL     1      18.114  -2.299  53.773  1.00  0.00     0.180 A 
HETATM   10  N6  UNL     1      19.477  -2.021  54.136  1.00  0.00    -0.380 N 
HETATM   11  H23 UNL     1      19.832  -2.742  54.829  1.00  0.00     0.160 HD
ENDROOT
BRANCH   1  12
HETATM   12  C8  UNL     1      21.727  -0.940  54.286  1.00  0.00     0.251 C 
HETATM   13  O1  UNL     1      21.970  -1.651  55.286  1.00  0.00    -0.276 OA
BRANCH  12  14
HETATM   14  C7  UNL     1      22.697  -0.085  53.654  1.00  0.00    -0.022 C 
HETATM   15  C6  UNL     1      23.526   0.622  53.132  1.00  0.00    -0.096 C 
BRANCH  15  16
HETATM   16  C5  UNL     1      24.539   1.461  52.521  1.00  0.00     0.124 C 
BRANCH  16  17
HETATM   17  C4  UNL     1      25.710   1.602  53.455  1.00  0.00     0.284 C 
BRANCH  17  18
HETATM   18  N2  UNL     1      26.231   0.261  53.688  1.00  0.00     0.092 N 
HETATM   19  C3  UNL     1      27.035  -0.194  52.598  1.00  0.00     0.302 C 
HETATM   20  C2  UNL     1      28.026  -1.246  53.030  1.00  0.00     0.302 C 
HETATM   21  N1  UNL     1      28.929  -0.744  54.018  1.00  0.00     0.087 N 
HETATM   22  C1  UNL     1      30.119  -0.139  53.451  1.00  0.00     0.310 C 
HETATM   23  C22 UNL     1      28.344   0.197  54.935  1.00  0.00     0.302 C 
HETATM   24  C21 UNL     1      26.851   0.136  54.985  1.00  0.00     0.302 C 
ENDBRANCH  17  18
ENDBRANCH  16  17
ENDBRANCH  15  16
ENDBRANCH  12  14
ENDBRANCH   1  12
BRANCH   8  25
HETATM   25  N5  UNL     1      18.799   1.761  50.949  1.00  0.00    -0.361 N 
HETATM   26  C15 UNL     1      19.023   1.785  49.497  1.00  0.00     0.154 C 
HETATM   27  C16 UNL     1      20.439   1.285  49.334  1.00  0.00     0.030 C 
HETATM   28  C17 UNL     1      21.216   2.047  50.094  1.00  0.00     0.093 C 
HETATM   29  F1  UNL     1      22.544   1.705  50.048  1.00  0.00    -0.211 F 
HETATM   30  C18 UNL     1      20.804   3.188  50.954  1.00  0.00     0.089 C 
HETATM   31  C19 UNL     1      19.425   2.962  51.525  1.00  0.00     0.131 C 
ENDBRANCH   8  25
TORSDOF 6
ENDMDL
MODEL 2
REMARK VINA RESULT:      -8.3      2.457      9.168
REMARK  6 active torsions:
REMARK  status: ('A' for Active; 'I' for Inactive)
REMARK    1  A    between atoms: N2_5  and  C4_6 
REMARK    2  A    between atoms: C4_6  and  C5_7 
REMARK    3  A    between atoms: C5_7  and  C6_8 
REMARK    4  A    between atoms: C7_9  and  C8_10 
REMARK    5  A    between atoms: C8_10  and  C9_12 
REMARK    6  A    between atoms: C14_19  and  N5_20 
ROOT
HETATM    1  C9  UNL     1      22.610   0.167  53.512  1.00  0.00     0.089 A 
HETATM    2  C10 UNL     1      23.908   0.069  53.419  1.00  0.00     0.051 A 
HETATM    3  C11 UNL     1      24.675   1.001  52.612  1.00  0.00     0.038 A 
HETATM    4  C12 UNL     1      24.092   2.030  51.908  1.00  0.00     0.067 A 
HETATM    5  N3  UNL     1      24.865   2.863  51.159  1.00  0.00    -0.244 NA
HETATM    6  C13 UNL     1      26.194   2.666  51.118  1.00  0.00     0.235 A 
HETATM    7  N4  UNL     1      26.810   1.658  51.801  1.00  0.00    -0.224 NA
HETATM    8  C14 UNL     1      26.022   0.831  52.548  1.00  0.00     0.139 A 
HETATM    9  C20 UNL     1      22.626   2.256  51.950  1.00  0.00     0.180 A 
HETATM   10  N6  UNL     1      22.033   1.242  52.779  1.00  0.00    -0.380 N 
HETATM   11  H23 UNL     1      20.979   1.361  52.817  1.00  0.00     0.160 HD
ENDROOT
BRANCH   1  12
HETATM   12  C8  UNL     1      21.748  -0.723  54.299  1.00  0.00     0.251 C 
HETATM   13  O1  UNL     1      22.246  -1.265  55.310  1.00  0.00    -0.276 OA
BRANCH  12  14
HETATM   14  C7  UNL     1      20.389  -0.923  53.868  1.00  0.00    -0.022 C 
HETATM   15  C6  UNL     1      19.255  -1.083  53.487  1.00  0.00    -0.096 C 
BRANCH  15  16
HETATM   16  C5  UNL     1      17.897  -1.262  53.009  1.00  0.00     0.124 C 
BRANCH  16  17
HETATM   17  C4  UNL     1      17.708  -0.499  51.726  1.00  0.00     0.284 C 
BRANCH  17  18
HETATM   18  N2  UNL     1      16.272  -0.344  51.532  1.00  0.00     0.092 N 
HETATM   19  C3  UNL     1      15.597  -0.064  52.759  1.00  0.00     0.302 C 
HETATM   20  C2  UNL     1      14.293   0.661  52.532  1.00  0.00     0.302 C 
HETATM   21  N1  UNL     1      14.497   1.919  51.884  1.00  0.00     0.087 N 
HETATM   22  C1  UNL     1      14.714   3.013  52.812  1.00  0.00     0.310 C 
HETATM   23  C22 UNL     1      15.570   1.928  50.926  1.00  0.00     0.302 C 
HETATM   24  C21 UNL     1      15.963   0.564  50.455  1.00  0.00     0.302 C 
ENDBRANCH  17  18
ENDBRANCH  16  17
ENDBRANCH  15  16
ENDBRANCH  12  14
ENDBRANCH   1  12
BRANCH   8  25
HETATM   25  N5  UNL     1      26.799  -0.175  53.213  1.00  0.00    -0.361 N 
HETATM   26  C15 UNL     1      27.250   0.123  54.580  1.00  0.00     0.154 C 
HETATM   27  C16 UNL     1      28.685   0.562  54.407  1.00  0.00     0.030 C 
HETATM   28  C17 UNL     1      29.314  -0.399  53.743  1.00  0.00     0.093 C 
HETATM   29  F1  UNL     1      30.640  -0.136  53.508  1.00  0.00    -0.211 F 
HETATM   30  C18 UNL     1      28.745  -1.682  53.250  1.00  0.00     0.089 C 
HETATM   31  C19 UNL     1      27.298  -1.512  52.854  1.00  0.00     0.131 C 
ENDBRANCH   8  25
TORSDOF 6
ENDMDL
MODEL 3
REMARK VINA RESULT:      -8.3      4.356      7.244
REMARK  6 active torsions:
REMARK  status: ('A' for Active; 'I' for Inactive)
REMARK    1  A    between atoms: N2_5  and  C4_6 
REMARK    2  A    between atoms: C4_6  and  C5_7 
REMARK    3  A    between atoms: C5_7  and  C6_8 
REMARK    4  A    between atoms: C7_9  and  C8_10 
REMARK    5  A    between atoms: C8_10  and  C9_12 
REMARK    6  A    between atoms: C14_19  and  N5_20 
ROOT
HETATM    1  C9  UNL     1      22.121   0.460  52.008  1.00  0.00     0.089 A 
HETATM    2  C10 UNL     1      23.341   0.394  52.468  1.00  0.00     0.051 A 
HETATM    3  C11 UNL     1      23.638  -0.291  53.713  1.00  0.00     0.038 A 
HETATM    4  C12 UNL     1      22.670  -0.906  54.473  1.00  0.00     0.067 A 
HETATM    5  N3  UNL     1      23.011  -1.521  55.638  1.00  0.00    -0.244 NA
HETATM    6  C13 UNL     1      24.296  -1.519  56.031  1.00  0.00     0.235 A 
HETATM    7  N4  UNL     1      25.285  -0.921  55.306  1.00  0.00    -0.224 NA
HETATM    8  C14 UNL     1      24.929  -0.308  54.139  1.00  0.00     0.139 A 
HETATM    9  C20 UNL     1      21.249  -0.915  54.046  1.00  0.00     0.180 A 
HETATM   10  N6  UNL     1      21.140  -0.187  52.811  1.00  0.00    -0.380 N 
HETATM   11  H23 UNL     1      20.131  -0.157  52.484  1.00  0.00     0.160 HD
ENDROOT
BRANCH   1  12
HETATM   12  C8  UNL     1      21.720   1.128  50.764  1.00  0.00     0.251 C 
HETATM   13  O1  UNL     1      20.645   0.770  50.236  1.00  0.00    -0.276 OA
BRANCH  12  14
HETATM   14  C7  UNL     1      22.579   2.149  50.224  1.00  0.00    -0.022 C 
HETATM   15  C6  UNL     1      23.312   2.991  49.763  1.00  0.00    -0.096 C 
BRANCH  15  16
HETATM   16  C5  UNL     1      24.207   3.984  49.201  1.00  0.00     0.124 C 
BRANCH  16  17
HETATM   17  C4  UNL     1      24.148   5.242  50.023  1.00  0.00     0.284 C 
BRANCH  17  18
HETATM   18  N2  UNL     1      25.498   5.786  50.067  1.00  0.00     0.092 N 
HETATM   19  C3  UNL     1      26.246   5.446  48.899  1.00  0.00     0.302 C 
HETATM   20  C2  UNL     1      27.360   6.429  48.637  1.00  0.00     0.302 C 
HETATM   21  N1  UNL     1      26.856   7.751  48.425  1.00  0.00     0.087 N 
HETATM   22  C1  UNL     1      26.549   8.031  47.036  1.00  0.00     0.310 C 
HETATM   23  C22 UNL     1      25.697   8.078  49.213  1.00  0.00     0.302 C 
HETATM   24  C21 UNL     1      25.510   7.189  50.401  1.00  0.00     0.302 C 
ENDBRANCH  17  18
ENDBRANCH  16  17
ENDBRANCH  15  16
ENDBRANCH  12  14
ENDBRANCH   1  12
BRANCH   8  25
HETATM   25  N5  UNL     1      26.065   0.271  53.481  1.00  0.00    -0.361 N 
HETATM   26  C15 UNL     1      26.675  -0.506  52.393  1.00  0.00     0.154 C 
HETATM   27  C16 UNL     1      27.874  -1.163  53.037  1.00  0.00     0.030 C 
HETATM   28  C17 UNL     1      28.599  -0.200  53.593  1.00  0.00     0.093 C 
HETATM   29  F1  UNL     1      29.730  -0.652  54.223  1.00  0.00    -0.211 F 
HETATM   30  C18 UNL     1      28.316   1.260  53.598  1.00  0.00     0.089 C 
HETATM   31  C19 UNL     1      26.829   1.520  53.630  1.00  0.00     0.131 C 
ENDBRANCH   8  25
TORSDOF 6
ENDMDL
MODEL 4
REMARK VINA RESULT:      -8.2      3.346      7.220
REMARK  6 active torsions:
REMARK  status: ('A' for Active; 'I' for Inactive)
REMARK    1  A    between atoms: N2_5  and  C4_6 
REMARK    2  A    between atoms: C4_6  and  C5_7 
REMARK    3  A    between atoms: C5_7  and  C6_8 
REMARK    4  A    between atoms: C7_9  and  C8_10 
REMARK    5  A    between atoms: C8_10  and  C9_12 
REMARK    6  A    between atoms: C14_19  and  N5_20 
ROOT
HETATM    1  C9  UNL     1      21.808   0.263  52.138  1.00  0.00     0.089 A 
HETATM    2  C10 UNL     1      23.058   0.282  52.514  1.00  0.00     0.051 A 
HETATM    3  C11 UNL     1      23.482  -0.363  53.743  1.00  0.00     0.038 A 
HETATM    4  C12 UNL     1      22.609  -1.025  54.575  1.00  0.00     0.067 A 
HETATM    5  N3  UNL     1      23.067  -1.599  55.721  1.00  0.00    -0.244 NA
HETATM    6  C13 UNL     1      24.373  -1.509  56.024  1.00  0.00     0.235 A 
HETATM    7  N4  UNL     1      25.270  -0.862  55.226  1.00  0.00    -0.224 NA
HETATM    8  C14 UNL     1      24.797  -0.291  54.080  1.00  0.00     0.139 A 
HETATM    9  C20 UNL     1      21.166  -1.131  54.246  1.00  0.00     0.180 A 
HETATM   10  N6  UNL     1      20.927  -0.431  53.013  1.00  0.00    -0.380 N 
HETATM   11  H23 UNL     1      19.898  -0.470  52.756  1.00  0.00     0.160 HD
ENDROOT
BRANCH   1  12
HETATM   12  C8  UNL     1      21.282   0.885  50.916  1.00  0.00     0.251 C 
HETATM   13  O1  UNL     1      20.117   0.589  50.573  1.00  0.00    -0.276 OA
BRANCH  12  14
HETATM   14  C7  UNL     1      22.128   1.793  50.188  1.00  0.00    -0.022 C 
HETATM   15  C6  UNL     1      22.847   2.560  49.594  1.00  0.00    -0.096 C 
BRANCH  15  16
HETATM   16  C5  UNL     1      23.718   3.492  48.903  1.00  0.00     0.124 C 
BRANCH  16  17
HETATM   17  C4  UNL     1      24.713   4.068  49.872  1.00  0.00     0.284 C 
BRANCH  17  18
HETATM   18  N2  UNL     1      24.340   5.460  50.089  1.00  0.00     0.092 N 
HETATM   19  C3  UNL     1      23.561   5.975  49.008  1.00  0.00     0.302 C 
HETATM   20  C2  UNL     1      22.696   7.134  49.440  1.00  0.00     0.302 C 
HETATM   21  N1  UNL     1      21.770   6.747  50.459  1.00  0.00     0.087 N 
HETATM   22  C1  UNL     1      20.510   6.259  49.932  1.00  0.00     0.310 C 
HETATM   23  C22 UNL     1      22.277   5.767  51.382  1.00  0.00     0.302 C 
HETATM   24  C21 UNL     1      23.769   5.673  51.396  1.00  0.00     0.302 C 
ENDBRANCH  17  18
ENDBRANCH  16  17
ENDBRANCH  15  16
ENDBRANCH  12  14
ENDBRANCH   1  12
BRANCH   8  25
HETATM   25  N5  UNL     1      25.847   0.348  53.339  1.00  0.00    -0.361 N 
HETATM   26  C15 UNL     1      26.559  -0.471  52.348  1.00  0.00     0.154 C 
HETATM   27  C16 UNL     1      27.834  -0.875  53.051  1.00  0.00     0.030 C 
HETATM   28  C17 UNL     1      28.420   0.238  53.473  1.00  0.00     0.093 C 
HETATM   29  F1  UNL     1      29.601   0.025  54.138  1.00  0.00    -0.211 F 
HETATM   30  C18 UNL     1      27.944   1.636  53.300  1.00  0.00     0.089 C 
HETATM   31  C19 UNL     1      26.435   1.697  53.320  1.00  0.00     0.131 C 
ENDBRANCH   8  25
TORSDOF 6
ENDMDL
MODEL 5
REMARK VINA RESULT:      -8.2      3.999      6.489
REMARK  6 active torsions:
REMARK  status: ('A' for Active; 'I' for Inactive)
REMARK    1  A    between atoms: N2_5  and  C4_6 
REMARK    2  A    between atoms: C4_6  and  C5_7 
REMARK    3  A    between atoms: C5_7  and  C6_8 
REMARK    4  A    between atoms: C7_9  and  C8_10 
REMARK    5  A    between atoms: C8_10  and  C9_12 
REMARK    6  A    between atoms: C14_19  and  N5_20 
ROOT
HETATM    1  C9  UNL     1      25.683   1.130  52.697  1.00  0.00     0.089 A 
HETATM    2  C10 UNL     1      24.398   1.249  52.506  1.00  0.00     0.051 A 
HETATM    3  C11 UNL     1      23.450   0.436  53.247  1.00  0.00     0.038 A 
HETATM    4  C12 UNL     1      23.840  -0.493  54.184  1.00  0.00     0.067 A 
HETATM    5  N3  UNL     1      22.903  -1.233  54.837  1.00  0.00    -0.244 NA
HETATM    6  C13 UNL     1      21.603  -1.044  54.554  1.00  0.00     0.235 A 
HETATM    7  N4  UNL     1      21.175  -0.133  53.633  1.00  0.00    -0.224 NA
HETATM    8  C14 UNL     1      22.126   0.603  52.987  1.00  0.00     0.139 A 
HETATM    9  C20 UNL     1      25.273  -0.707  54.503  1.00  0.00     0.180 A 
HETATM   10  N6  UNL     1      26.060   0.165  53.674  1.00  0.00    -0.380 N 
HETATM   11  H23 UNL     1      27.095   0.026  53.862  1.00  0.00     0.160 HD
ENDROOT
BRANCH   1  12
HETATM   12  C8  UNL     1      26.718   1.903  51.999  1.00  0.00     0.251 C 
HETATM   13  O1  UNL     1      27.907   1.714  52.337  1.00  0.00    -0.276 OA
BRANCH  12  14
HETATM   14  C7  UNL     1      26.311   2.828  50.974  1.00  0.00    -0.022 C 
HETATM   15  C6  UNL     1      25.961   3.616  50.129  1.00  0.00    -0.096 C 
BRANCH  15  16
HETATM   16  C5  UNL     1      25.526   4.574  49.131  1.00  0.00     0.124 C 
BRANCH  16  17
HETATM   17  C4  UNL     1      26.591   5.617  48.933  1.00  0.00     0.284 C 
BRANCH  17  18
HETATM   18  N2  UNL     1      25.912   6.901  48.820  1.00  0.00     0.092 N 
HETATM   19  C3  UNL     1      24.608   6.766  48.253  1.00  0.00     0.302 C 
HETATM   20  C2  UNL     1      23.698   7.899  48.656  1.00  0.00     0.302 C 
HETATM   21  N1  UNL     1      23.520   7.951  50.074  1.00  0.00     0.087 N 
HETATM   22  C1  UNL     1      22.404   7.152  50.542  1.00  0.00     0.310 C 
HETATM   23  C22 UNL     1      24.684   7.581  50.833  1.00  0.00     0.302 C 
HETATM   24  C21 UNL     1      25.957   7.651  50.051  1.00  0.00     0.302 C 
ENDBRANCH  17  18
ENDBRANCH  16  17
ENDBRANCH  15  16
ENDBRANCH  12  14
ENDBRANCH   1  12
BRANCH   8  25
HETATM   25  N5  UNL     1      21.536   1.521  52.054  1.00  0.00    -0.361 N 
HETATM   26  C15 UNL     1      20.776   0.942  50.937  1.00  0.00     0.154 C 
HETATM   27  C16 UNL     1      21.739   0.987  49.774  1.00  0.00     0.030 C 
HETATM   28  C17 UNL     1      22.157   2.241  49.656  1.00  0.00     0.093 C 
HETATM   29  F1  UNL     1      23.047   2.436  48.631  1.00  0.00    -0.211 F 
HETATM   30  C18 UNL     1      21.768   3.408  50.492  1.00  0.00     0.089 C 
HETATM   31  C19 UNL     1      21.501   2.985  51.917  1.00  0.00     0.131 C 
ENDBRANCH   8  25
TORSDOF 6
ENDMDL
MODEL 6
REMARK VINA RESULT:      -8.0      2.649      9.349
REMARK  6 active torsions:
REMARK  status: ('A' for Active; 'I' for Inactive)
REMARK    1  A    between atoms: N2_5  and  C4_6 
REMARK    2  A    between atoms: C4_6  and  C5_7 
REMARK    3  A    between atoms: C5_7  and  C6_8 
REMARK    4  A    between atoms: C7_9  and  C8_10 
REMARK    5  A    between atoms: C8_10  and  C9_12 
REMARK    6  A    between atoms: C14_19  and  N5_20 
ROOT
HETATM    1  C9  UNL     1      22.559   0.083  53.491  1.00  0.00     0.089 A 
HETATM    2  C10 UNL     1      23.858   0.000  53.403  1.00  0.00     0.051 A 
HETATM    3  C11 UNL     1      24.620   0.949  52.610  1.00  0.00     0.038 A 
HETATM    4  C12 UNL     1      24.029   1.979  51.915  1.00  0.00     0.067 A 
HETATM    5  N3  UNL     1      24.797   2.828  51.178  1.00  0.00    -0.244 NA
HETATM    6  C13 UNL     1      26.128   2.646  51.142  1.00  0.00     0.235 A 
HETATM    7  N4  UNL     1      26.751   1.637  51.817  1.00  0.00    -0.224 NA
HETATM    8  C14 UNL     1      25.969   0.793  52.552  1.00  0.00     0.139 A 
HETATM    9  C20 UNL     1      22.561   2.188  51.952  1.00  0.00     0.180 A 
HETATM   10  N6  UNL     1      21.974   1.159  52.767  1.00  0.00    -0.380 N 
HETATM   11  H23 UNL     1      20.919   1.267  52.801  1.00  0.00     0.160 HD
ENDROOT
BRANCH   1  12
HETATM   12  C8  UNL     1      21.703  -0.825  54.265  1.00  0.00     0.251 C 
HETATM   13  O1  UNL     1      22.209  -1.391  55.259  1.00  0.00    -0.276 OA
BRANCH  12  14
HETATM   14  C7  UNL     1      20.341  -1.013  53.840  1.00  0.00    -0.022 C 
HETATM   15  C6  UNL     1      19.200  -1.192  53.488  1.00  0.00    -0.096 C 
BRANCH  15  16
HETATM   16  C5  UNL     1      17.833  -1.431  53.066  1.00  0.00     0.124 C 
BRANCH  16  17
HETATM   17  C4  UNL     1      17.470  -2.869  53.316  1.00  0.00     0.284 C 
BRANCH  17  18
HETATM   18  N2  UNL     1      16.017  -2.958  53.258  1.00  0.00     0.092 N 
HETATM   19  C3  UNL     1      15.463  -2.006  52.348  1.00  0.00     0.302 C 
HETATM   20  C2  UNL     1      14.114  -2.441  51.829  1.00  0.00     0.302 C 
HETATM   21  N1  UNL     1      14.200  -3.680  51.119  1.00  0.00     0.087 N 
HETATM   22  C1  UNL     1      14.468  -3.512  49.704  1.00  0.00     0.310 C 
HETATM   23  C22 UNL     1      15.165  -4.605  51.649  1.00  0.00     0.302 C 
HETATM   24  C21 UNL     1      15.561  -4.312  53.062  1.00  0.00     0.302 C 
ENDBRANCH  17  18
ENDBRANCH  16  17
ENDBRANCH  15  16
ENDBRANCH  12  14
ENDBRANCH   1  12
BRANCH   8  25
HETATM   25  N5  UNL     1      26.754  -0.212  53.210  1.00  0.00    -0.361 N 
HETATM   26  C15 UNL     1      27.201   0.080  54.580  1.00  0.00     0.154 C 
HETATM   27  C16 UNL     1      28.632   0.533  54.411  1.00  0.00     0.030 C 
HETATM   28  C17 UNL     1      29.269  -0.419  53.740  1.00  0.00     0.093 C 
HETATM   29  F1  UNL     1      30.593  -0.143  53.510  1.00  0.00    -0.211 F 
HETATM   30  C18 UNL     1      28.712  -1.702  53.238  1.00  0.00     0.089 C 
HETATM   31  C19 UNL     1      27.264  -1.541  52.841  1.00  0.00     0.131 C 
ENDBRANCH   8  25
TORSDOF 6
ENDMDL
MODEL 7
REMARK VINA RESULT:      -8.0      3.016      5.988
REMARK  6 active torsions:
REMARK  status: ('A' for Active; 'I' for Inactive)
REMARK    1  A    between atoms: N2_5  and  C4_6 
REMARK    2  A    between atoms: C4_6  and  C5_7 
REMARK    3  A    between atoms: C5_7  and  C6_8 
REMARK    4  A    between atoms: C7_9  and  C8_10 
REMARK    5  A    between atoms: C8_10  and  C9_12 
REMARK    6  A    between atoms: C14_19  and  N5_20 
ROOT
HETATM    1  C9  UNL     1      25.511   0.481  53.581  1.00  0.00     0.089 A 
HETATM    2  C10 UNL     1      24.311   0.598  53.082  1.00  0.00     0.051 A 
HETATM    3  C11 UNL     1      23.196  -0.159  53.622  1.00  0.00     0.038 A 
HETATM    4  C12 UNL     1      23.331  -1.032  54.677  1.00  0.00     0.067 A 
HETATM    5  N3  UNL     1      22.249  -1.722  55.130  1.00  0.00    -0.244 NA
HETATM    6  C13 UNL     1      21.058  -1.539  54.535  1.00  0.00     0.235 A 
HETATM    7  N4  UNL     1      20.882  -0.683  53.488  1.00  0.00    -0.224 NA
HETATM    8  C14 UNL     1      21.976   0.003  53.044  1.00  0.00     0.139 A 
HETATM    9  C20 UNL     1      24.642  -1.238  55.340  1.00  0.00     0.180 A 
HETATM   10  N6  UNL     1      25.623  -0.425  54.673  1.00  0.00    -0.380 N 
HETATM   11  H23 UNL     1      26.580  -0.562  55.110  1.00  0.00     0.160 HD
ENDROOT
BRANCH   1  12
HETATM   12  C8  UNL     1      26.700   1.200  53.106  1.00  0.00     0.251 C 
HETATM   13  O1  UNL     1      27.737   1.125  53.800  1.00  0.00    -0.276 OA
BRANCH  12  14
HETATM   14  C7  UNL     1      26.607   1.945  51.878  1.00  0.00    -0.022 C 
HETATM   15  C6  UNL     1      26.509   2.575  50.852  1.00  0.00    -0.096 C 
BRANCH  15  16
HETATM   16  C5  UNL     1      26.367   3.333  49.624  1.00  0.00     0.124 C 
BRANCH  16  17
HETATM   17  C4  UNL     1      25.658   4.628  49.908  1.00  0.00     0.284 C 
BRANCH  17  18
HETATM   18  N2  UNL     1      24.298   4.290  50.307  1.00  0.00     0.092 N 
HETATM   19  C3  UNL     1      23.893   5.006  51.475  1.00  0.00     0.302 C 
HETATM   20  C2  UNL     1      22.393   5.142  51.561  1.00  0.00     0.302 C 
HETATM   21  N1  UNL     1      21.865   5.859  50.442  1.00  0.00     0.087 N 
HETATM   22  C1  UNL     1      21.808   7.292  50.656  1.00  0.00     0.310 C 
HETATM   23  C22 UNL     1      22.555   5.619  49.203  1.00  0.00     0.302 C 
HETATM   24  C21 UNL     1      23.371   4.366  49.205  1.00  0.00     0.302 C 
ENDBRANCH  17  18
ENDBRANCH  16  17
ENDBRANCH  15  16
ENDBRANCH  12  14
ENDBRANCH   1  12
BRANCH   8  25
HETATM   25  N5  UNL     1      21.646   0.866  51.947  1.00  0.00    -0.361 N 
HETATM   26  C15 UNL     1      20.682   1.944  52.211  1.00  0.00     0.154 C 
HETATM   27  C16 UNL     1      19.375   1.409  51.674  1.00  0.00     0.030 C 
HETATM   28  C17 UNL     1      19.582   1.058  50.411  1.00  0.00     0.093 C 
HETATM   29  F1  UNL     1      18.472   0.547  49.788  1.00  0.00    -0.211 F 
HETATM   30  C18 UNL     1      20.847   1.162  49.637  1.00  0.00     0.089 C 
HETATM   31  C19 UNL     1      22.045   0.952  50.533  1.00  0.00     0.131 C 
ENDBRANCH   8  25
TORSDOF 6
ENDMDL
MODEL 8
REMARK VINA RESULT:      -7.8      6.027      8.014
REMARK  6 active torsions:
REMARK  status: ('A' for Active; 'I' for Inactive)
REMARK    1  A    between atoms: N2_5  and  C4_6 
REMARK    2  A    between atoms: C4_6  and  C5_7 
REMARK    3  A    between atoms: C5_7  and  C6_8 
REMARK    4  A    between atoms: C7_9  and  C8_10 
REMARK    5  A    between atoms: C8_10  and  C9_12 
REMARK    6  A    between atoms: C14_19  and  N5_20 
ROOT
HETATM    1  C9  UNL     1      25.899   4.031  49.925  1.00  0.00     0.089 A 
HETATM    2  C10 UNL     1      24.714   3.492  50.022  1.00  0.00     0.051 A 
HETATM    3  C11 UNL     1      24.450   2.423  50.968  1.00  0.00     0.038 A 
HETATM    4  C12 UNL     1      25.415   1.920  51.810  1.00  0.00     0.067 A 
HETATM    5  N3  UNL     1      25.108   0.908  52.666  1.00  0.00    -0.244 NA
HETATM    6  C13 UNL     1      23.859   0.412  52.676  1.00  0.00     0.235 A 
HETATM    7  N4  UNL     1      22.874   0.883  51.858  1.00  0.00    -0.224 NA
HETATM    8  C14 UNL     1      23.196   1.899  51.004  1.00  0.00     0.139 A 
HETATM    9  C20 UNL     1      26.796   2.463  51.806  1.00  0.00     0.180 A 
HETATM   10  N6  UNL     1      26.877   3.496  50.809  1.00  0.00    -0.380 N 
HETATM   11  H23 UNL     1      27.859   3.896  50.766  1.00  0.00     0.160 HD
ENDROOT
BRANCH   1  12
HETATM   12  C8  UNL     1      26.264   5.113  49.002  1.00  0.00     0.251 C 
HETATM   13  O1  UNL     1      25.353   5.879  48.620  1.00  0.00    -0.276 OA
BRANCH  12  14
HETATM   14  C7  UNL     1      27.639   5.231  48.592  1.00  0.00    -0.022 C 
HETATM   15  C6  UNL     1      28.798   5.319  48.264  1.00  0.00    -0.096 C 
BRANCH  15  16
HETATM   16  C5  UNL     1      30.197   5.416  47.894  1.00  0.00     0.124 C 
BRANCH  16  17
HETATM   17  C4  UNL     1      30.966   6.093  48.994  1.00  0.00     0.284 C 
BRANCH  17  18
HETATM   18  N2  UNL     1      32.342   5.622  48.904  1.00  0.00     0.092 N 
HETATM   19  C3  UNL     1      32.457   4.480  48.053  1.00  0.00     0.302 C 
HETATM   20  C2  UNL     1      33.847   4.342  47.481  1.00  0.00     0.302 C 
HETATM   21  N1  UNL     1      34.204   5.477  46.688  1.00  0.00     0.087 N 
HETATM   22  C1  UNL     1      33.831   5.341  45.293  1.00  0.00     0.310 C 
HETATM   23  C22 UNL     1      33.681   6.727  47.169  1.00  0.00     0.302 C 
HETATM   24  C21 UNL     1      33.265   6.689  48.605  1.00  0.00     0.302 C 
ENDBRANCH  17  18
ENDBRANCH  16  17
ENDBRANCH  15  16
ENDBRANCH  12  14
ENDBRANCH   1  12
BRANCH   8  25
HETATM   25  N5  UNL     1      22.069   2.296  50.211  1.00  0.00    -0.361 N 
HETATM   26  C15 UNL     1      21.584   1.335  49.210  1.00  0.00     0.154 C 
HETATM   27  C16 UNL     1      22.176   1.827  47.910  1.00  0.00     0.030 C 
HETATM   28  C17 UNL     1      21.823   3.098  47.772  1.00  0.00     0.093 C 
HETATM   29  F1  UNL     1      22.296   3.684  46.625  1.00  0.00    -0.211 F 
HETATM   30  C18 UNL     1      20.996   3.915  48.699  1.00  0.00     0.089 C 
HETATM   31  C19 UNL     1      21.223   3.498  50.132  1.00  0.00     0.131 C 
ENDBRANCH   8  25
TORSDOF 6
ENDMDL
MODEL 9
REMARK VINA RESULT:      -7.8      2.021      7.987
REMARK  6 active torsions:
REMARK  status: ('A' for Active; 'I' for Inactive)
REMARK    1  A    between atoms: N2_5  and  C4_6 
REMARK    2  A    between atoms: C4_6  and  C5_7 
REMARK    3  A    between atoms: C5_7  and  C6_8 
REMARK    4  A    between atoms: C7_9  and  C8_10 
REMARK    5  A    between atoms: C8_10  and  C9_12 
REMARK    6  A    between atoms: C14_19  and  N5_20 
ROOT
HETATM    1  C9  UNL     1      23.112  -0.438  53.867  1.00  0.00     0.089 A 
HETATM    2  C10 UNL     1      23.122   0.460  52.920  1.00  0.00     0.051 A 
HETATM    3  C11 UNL     1      24.366   1.051  52.459  1.00  0.00     0.038 A 
HETATM    4  C12 UNL     1      25.591   0.707  52.981  1.00  0.00     0.067 A 
HETATM    5  N3  UNL     1      26.720   1.307  52.515  1.00  0.00    -0.244 NA
HETATM    6  C13 UNL     1      26.620   2.233  51.546  1.00  0.00     0.235 A 
HETATM    7  N4  UNL     1      25.424   2.602  51.002  1.00  0.00    -0.224 NA
HETATM    8  C14 UNL     1      24.300   1.991  51.479  1.00  0.00     0.139 A 
HETATM    9  C20 UNL     1      25.711  -0.315  54.050  1.00  0.00     0.180 A 
HETATM   10  N6  UNL     1      24.392  -0.779  54.386  1.00  0.00    -0.380 N 
HETATM   11  H23 UNL     1      24.438  -1.500  55.164  1.00  0.00     0.160 HD
ENDROOT
BRANCH   1  12
HETATM   12  C8  UNL     1      21.911  -1.092  54.400  1.00  0.00     0.251 C 
HETATM   13  O1  UNL     1      22.052  -1.838  55.394  1.00  0.00    -0.276 OA
BRANCH  12  14
HETATM   14  C7  UNL     1      20.648  -0.841  53.757  1.00  0.00    -0.022 C 
HETATM   15  C6  UNL     1      19.588  -0.612  53.226  1.00  0.00    -0.096 C 
BRANCH  15  16
HETATM   16  C5  UNL     1      18.311  -0.318  52.605  1.00  0.00     0.124 C 
BRANCH  16  17
HETATM   17  C4  UNL     1      18.497  -0.146  51.122  1.00  0.00     0.284 C 
BRANCH  17  18
HETATM   18  N2  UNL     1      17.172   0.042  50.546  1.00  0.00     0.092 N 
HETATM   19  C3  UNL     1      16.161  -0.611  51.315  1.00  0.00     0.302 C 
HETATM   20  C2  UNL     1      14.806   0.023  51.118  1.00  0.00     0.302 C 
HETATM   21  N1  UNL     1      14.802   1.393  51.525  1.00  0.00     0.087 N 
HETATM   22  C1  UNL     1      14.463   1.575  52.923  1.00  0.00     0.310 C 
HETATM   23  C22 UNL     1      16.033   2.093  51.270  1.00  0.00     0.302 C 
HETATM   24  C21 UNL     1      16.899   1.427  50.248  1.00  0.00     0.302 C 
ENDBRANCH  17  18
ENDBRANCH  16  17
ENDBRANCH  15  16
ENDBRANCH  12  14
ENDBRANCH   1  12
BRANCH   8  25
HETATM   25  N5  UNL     1      23.121   2.470  50.816  1.00  0.00    -0.361 N 
HETATM   26  C15 UNL     1      22.727   3.862  51.074  1.00  0.00     0.154 C 
HETATM   27  C16 UNL     1      21.629   3.750  52.105  1.00  0.00     0.030 C 
HETATM   28  C17 UNL     1      20.711   2.927  51.615  1.00  0.00     0.093 C 
HETATM   29  F1  UNL     1      19.643   2.726  52.451  1.00  0.00    -0.211 F 
HETATM   30  C18 UNL     1      20.726   2.232  50.300  1.00  0.00     0.089 C 
HETATM   31  C19 UNL     1      22.137   1.885  49.890  1.00  0.00     0.131 C 
ENDBRANCH   8  25
TORSDOF 6
ENDMDL
