MODEL 1
REMARK VINA RESULT:      -8.0      0.000      0.000
REMARK  5 active torsions:
REMARK  status: ('A' for Active; 'I' for Inactive)
REMARK    1  A    between atoms: O1_1  and  C1_2 
REMARK    2  A    between atoms: C3_4  and  C4_5 
REMARK    3  A    between atoms: N1_11  and  C7_12 
REMARK    4  A    between atoms: C7_12  and  S1_13 
REMARK    5  A    between atoms: C7_12  and  C8_14 
ROOT
HETATM    1  C7  UNL     1      23.914   1.035  53.204  1.00  0.00     0.290 C 
ENDROOT
BRANCH   1   2
HETATM    2  N1  UNL     1      25.259   0.593  53.368  1.00  0.00     0.135 N 
HETATM    3  C1  UNL     1      25.406  -0.801  53.644  1.00  0.00     0.362 C 
HETATM    4  C2  UNL     1      26.790  -1.293  53.278  1.00  0.00     0.107 C 
HETATM    5  C3  UNL     1      27.783  -0.189  53.153  1.00  0.00     0.028 C 
HETATM    6  C5  UNL     1      27.420   0.965  52.556  1.00  0.00     0.015 C 
HETATM    7  C6  UNL     1      25.978   0.870  52.113  1.00  0.00     0.305 C 
BRANCH   3   8
HETATM    8  O1  UNL     1      25.114  -1.083  54.986  1.00  0.00    -0.367 OA
HETATM    9  H1  UNL     1      24.156  -0.963  55.190  1.00  0.00     0.212 HD
ENDBRANCH   3   8
BRANCH   5  10
HETATM   10  C4  UNL     1      29.160  -0.368  53.686  1.00  0.00     0.413 C 
HETATM   11  F1  UNL     1      30.067   0.499  53.135  1.00  0.00    -0.166 F 
HETATM   12  F2  UNL     1      29.099  -0.129  55.050  1.00  0.00    -0.166 F 
HETATM   13  F3  UNL     1      29.582  -1.657  53.473  1.00  0.00    -0.166 F 
ENDBRANCH   5  10
ENDBRANCH   1   2
BRANCH   1  14
HETATM   14  S1  UNL     1      23.843   2.750  52.662  1.00  0.00    -0.146 SA
HETATM   15  H9  UNL     1      25.085   3.391  52.758  1.00  0.00     0.103 HD
ENDBRANCH   1  14
BRANCH   1  16
HETATM   16  C8  UNL     1      23.093   0.196  52.277  1.00  0.00     0.049 C 
HETATM   17  C9  UNL     1      22.271   1.133  51.411  1.00  0.00     0.038 C 
HETATM   18  C10 UNL     1      20.848   1.010  51.875  1.00  0.00     0.108 C 
HETATM   19  C11 UNL     1      19.917   0.944  50.719  1.00  0.00     0.017 C 
HETATM   20  N3  UNL     1      20.792  -0.145  52.724  1.00  0.00    -0.381 N 
HETATM   21  C12 UNL     1      18.662   0.677  50.448  1.00  0.00     0.114 C 
HETATM   22  N2  UNL     1      17.522   0.290  51.241  1.00  0.00    -0.273 NA
HETATM   23  C13 UNL     1      17.427  -0.357  52.375  1.00  0.00     0.117 C 
HETATM   24  C14 UNL     1      18.404  -0.949  53.302  1.00  0.00     0.036 C 
HETATM   25  C15 UNL     1      19.728  -0.810  53.370  1.00  0.00     0.088 C 
HETATM   26  C16 UNL     1      22.117  -0.713  52.938  1.00  0.00     0.130 C 
ENDBRANCH   1  16
TORSDOF 5
ENDMDL
MODEL 2
REMARK VINA RESULT:      -7.7      4.424      5.382
REMARK  5 active torsions:
REMARK  status: ('A' for Active; 'I' for Inactive)
REMARK    1  A    between atoms: O1_1  and  C1_2 
REMARK    2  A    between atoms: C3_4  and  C4_5 
REMARK    3  A    between atoms: N1_11  and  C7_12 
REMARK    4  A    between atoms: C7_12  and  S1_13 
REMARK    5  A    between atoms: C7_12  and  C8_14 
ROOT
HETATM    1  C7  UNL     1      24.267   3.844  51.594  1.00  0.00     0.290 C 
ENDROOT
BRANCH   1   2
HETATM    2  N1  UNL     1      25.254   4.405  50.733  1.00  0.00     0.135 N 
HETATM    3  C1  UNL     1      26.264   3.492  50.299  1.00  0.00     0.362 C 
HETATM    4  C2  UNL     1      26.926   3.968  49.023  1.00  0.00     0.107 C 
HETATM    5  C3  UNL     1      26.717   5.422  48.770  1.00  0.00     0.028 C 
HETATM    6  C5  UNL     1      25.509   5.971  49.016  1.00  0.00     0.015 C 
HETATM    7  C6  UNL     1      24.568   4.907  49.531  1.00  0.00     0.305 C 
BRANCH   3   8
HETATM    8  O1  UNL     1      27.215   3.276  51.305  1.00  0.00    -0.367 OA
HETATM    9  H1  UNL     1      27.798   2.506  51.104  1.00  0.00     0.212 HD
ENDBRANCH   3   8
BRANCH   5  10
HETATM   10  C4  UNL     1      27.837   6.252  48.251  1.00  0.00     0.413 C 
HETATM   11  F1  UNL     1      27.543   6.869  47.062  1.00  0.00    -0.166 F 
HETATM   12  F2  UNL     1      28.090   7.228  49.201  1.00  0.00    -0.166 F 
HETATM   13  F3  UNL     1      28.959   5.478  48.091  1.00  0.00    -0.166 F 
ENDBRANCH   5  10
ENDBRANCH   1   2
BRANCH   1  14
HETATM   14  S1  UNL     1      22.927   5.004  51.908  1.00  0.00    -0.146 SA
HETATM   15  H9  UNL     1      21.769   4.366  52.372  1.00  0.00     0.103 HD
ENDBRANCH   1  14
BRANCH   1  16
HETATM   16  C8  UNL     1      23.690   2.548  51.117  1.00  0.00     0.049 C 
HETATM   17  C9  UNL     1      22.181   2.636  51.255  1.00  0.00     0.038 C 
HETATM   18  C10 UNL     1      21.800   1.736  52.395  1.00  0.00     0.108 C 
HETATM   19  C11 UNL     1      20.594   0.937  52.060  1.00  0.00     0.017 C 
HETATM   20  N3  UNL     1      22.955   0.938  52.690  1.00  0.00    -0.381 N 
HETATM   21  C12 UNL     1      19.902  -0.083  52.508  1.00  0.00     0.114 C 
HETATM   22  N2  UNL     1      20.030  -0.964  53.642  1.00  0.00    -0.273 NA
HETATM   23  C13 UNL     1      21.071  -1.351  54.335  1.00  0.00     0.117 C 
HETATM   24  C14 UNL     1      22.512  -1.066  54.263  1.00  0.00     0.036 C 
HETATM   25  C15 UNL     1      23.178  -0.134  53.582  1.00  0.00     0.088 C 
HETATM   26  C16 UNL     1      24.103   1.346  51.890  1.00  0.00     0.130 C 
ENDBRANCH   1  16
TORSDOF 5
ENDMDL
MODEL 3
REMARK VINA RESULT:      -7.4      3.664      4.613
REMARK  5 active torsions:
REMARK  status: ('A' for Active; 'I' for Inactive)
REMARK    1  A    between atoms: O1_1  and  C1_2 
REMARK    2  A    between atoms: C3_4  and  C4_5 
REMARK    3  A    between atoms: N1_11  and  C7_12 
REMARK    4  A    between atoms: C7_12  and  S1_13 
REMARK    5  A    between atoms: C7_12  and  C8_14 
ROOT
HETATM    1  C7  UNL     1      24.622   1.519  52.162  1.00  0.00     0.290 C 
ENDROOT
BRANCH   1   2
HETATM    2  N1  UNL     1      25.829   0.899  52.596  1.00  0.00     0.135 N 
HETATM    3  C1  UNL     1      26.285   1.305  53.888  1.00  0.00     0.362 C 
HETATM    4  C2  UNL     1      27.206   0.270  54.498  1.00  0.00     0.107 C 
HETATM    5  C3  UNL     1      27.772  -0.668  53.488  1.00  0.00     0.028 C 
HETATM    6  C5  UNL     1      26.981  -1.133  52.498  1.00  0.00     0.015 C 
HETATM    7  C6  UNL     1      25.594  -0.553  52.649  1.00  0.00     0.305 C 
BRANCH   3   8
HETATM    8  O1  UNL     1      26.908   2.560  53.832  1.00  0.00    -0.367 OA
HETATM    9  H1  UNL     1      27.856   2.515  54.101  1.00  0.00     0.212 HD
ENDBRANCH   3   8
BRANCH   5  10
HETATM   10  C4  UNL     1      29.198  -1.083  53.579  1.00  0.00     0.413 C 
HETATM   11  F1  UNL     1      30.001  -0.455  52.662  1.00  0.00    -0.166 F 
HETATM   12  F2  UNL     1      29.636  -0.743  54.849  1.00  0.00    -0.166 F 
HETATM   13  F3  UNL     1      29.303  -2.441  53.415  1.00  0.00    -0.166 F 
ENDBRANCH   5  10
ENDBRANCH   1   2
BRANCH   1  14
HETATM   14  S1  UNL     1      23.211   0.974  53.138  1.00  0.00    -0.146 SA
HETATM   15  H9  UNL     1      23.094   1.676  54.344  1.00  0.00     0.103 HD
ENDBRANCH   1  14
BRANCH   1  16
HETATM   16  C8  UNL     1      24.660   3.015  52.152  1.00  0.00     0.049 C 
HETATM   17  C9  UNL     1      23.263   3.514  52.476  1.00  0.00     0.038 C 
HETATM   18  C10 UNL     1      22.704   4.083  51.204  1.00  0.00     0.108 C 
HETATM   19  C11 UNL     1      22.003   5.367  51.460  1.00  0.00     0.017 C 
HETATM   20  N3  UNL     1      23.804   4.201  50.290  1.00  0.00    -0.381 N 
HETATM   21  C12 UNL     1      21.488   6.384  50.810  1.00  0.00     0.114 C 
HETATM   22  N2  UNL     1      21.369   6.729  49.415  1.00  0.00    -0.273 NA
HETATM   23  C13 UNL     1      22.097   6.416  48.373  1.00  0.00     0.117 C 
HETATM   24  C14 UNL     1      23.308   5.605  48.175  1.00  0.00     0.036 C 
HETATM   25  C15 UNL     1      23.919   4.747  48.993  1.00  0.00     0.088 C 
HETATM   26  C16 UNL     1      25.024   3.633  50.849  1.00  0.00     0.130 C 
ENDBRANCH   1  16
TORSDOF 5
ENDMDL
MODEL 4
REMARK VINA RESULT:      -7.3      2.482      2.648
REMARK  5 active torsions:
REMARK  status: ('A' for Active; 'I' for Inactive)
REMARK    1  A    between atoms: O1_1  and  C1_2 
REMARK    2  A    between atoms: C3_4  and  C4_5 
REMARK    3  A    between atoms: N1_11  and  C7_12 
REMARK    4  A    between atoms: C7_12  and  S1_13 
REMARK    5  A    between atoms: C7_12  and  C8_14 
ROOT
HETATM    1  C7  UNL     1      24.905   2.296  52.078  1.00  0.00     0.290 C 
ENDROOT
BRANCH   1   2
HETATM    2  N1  UNL     1      25.994   1.495  52.530  1.00  0.00     0.135 N 
HETATM    3  C1  UNL     1      26.371   1.704  53.892  1.00  0.00     0.362 C 
HETATM    4  C2  UNL     1      27.115   0.509  54.448  1.00  0.00     0.107 C 
HETATM    5  C3  UNL     1      27.665  -0.376  53.383  1.00  0.00     0.028 C 
HETATM    6  C5  UNL     1      26.923  -0.636  52.287  1.00  0.00     0.015 C 
HETATM    7  C6  UNL     1      25.598   0.084  52.395  1.00  0.00     0.305 C 
BRANCH   3   8
HETATM    8  O1  UNL     1      27.129   2.875  54.032  1.00  0.00    -0.367 OA
HETATM    9  H1  UNL     1      27.921   2.876  53.445  1.00  0.00     0.212 HD
ENDBRANCH   3   8
BRANCH   5  10
HETATM   10  C4  UNL     1      29.023  -0.964  53.537  1.00  0.00     0.413 C 
HETATM   11  F1  UNL     1      29.957  -0.383  52.718  1.00  0.00    -0.166 F 
HETATM   12  F2  UNL     1      29.406  -0.757  54.852  1.00  0.00    -0.166 F 
HETATM   13  F3  UNL     1      28.982  -2.313  53.287  1.00  0.00    -0.166 F 
ENDBRANCH   5  10
ENDBRANCH   1   2
BRANCH   1  14
HETATM   14  S1  UNL     1      25.398   3.385  50.733  1.00  0.00    -0.146 SA
HETATM   15  H9  UNL     1      24.361   4.234  50.327  1.00  0.00     0.103 HD
ENDBRANCH   1  14
BRANCH   1  16
HETATM   16  C8  UNL     1      23.695   1.521  51.660  1.00  0.00     0.049 C 
HETATM   17  C9  UNL     1      23.373   1.904  50.227  1.00  0.00     0.038 C 
HETATM   18  C10 UNL     1      22.126   2.739  50.275  1.00  0.00     0.108 C 
HETATM   19  C11 UNL     1      21.185   2.350  49.193  1.00  0.00     0.017 C 
HETATM   20  N3  UNL     1      21.581   2.586  51.593  1.00  0.00    -0.381 N 
HETATM   21  C12 UNL     1      19.945   2.546  48.815  1.00  0.00     0.114 C 
HETATM   22  N2  UNL     1      18.840   3.305  49.346  1.00  0.00    -0.273 NA
HETATM   23  C13 UNL     1      18.539   3.673  50.565  1.00  0.00     0.117 C 
HETATM   24  C14 UNL     1      19.172   3.481  51.879  1.00  0.00     0.036 C 
HETATM   25  C15 UNL     1      20.390   3.043  52.198  1.00  0.00     0.088 C 
HETATM   26  C16 UNL     1      22.461   1.796  52.445  1.00  0.00     0.130 C 
ENDBRANCH   1  16
TORSDOF 5
ENDMDL
MODEL 5
REMARK VINA RESULT:      -7.1      5.154      7.672
REMARK  5 active torsions:
REMARK  status: ('A' for Active; 'I' for Inactive)
REMARK    1  A    between atoms: O1_1  and  C1_2 
REMARK    2  A    between atoms: C3_4  and  C4_5 
REMARK    3  A    between atoms: N1_11  and  C7_12 
REMARK    4  A    between atoms: C7_12  and  S1_13 
REMARK    5  A    between atoms: C7_12  and  C8_14 
ROOT
HETATM    1  C7  UNL     1      22.568   3.416  51.183  1.00  0.00     0.290 C 
ENDROOT
BRANCH   1   2
HETATM    2  N1  UNL     1      22.158   2.331  52.011  1.00  0.00     0.135 N 
HETATM    3  C1  UNL     1      20.746   2.126  52.080  1.00  0.00     0.362 C 
HETATM    4  C2  UNL     1      20.414   0.709  52.497  1.00  0.00     0.107 C 
HETATM    5  C3  UNL     1      21.558   0.017  53.155  1.00  0.00     0.028 C 
HETATM    6  C5  UNL     1      22.804   0.181  52.664  1.00  0.00     0.015 C 
HETATM    7  C6  UNL     1      22.755   1.101  51.466  1.00  0.00     0.305 C 
BRANCH   3   8
HETATM    8  O1  UNL     1      20.143   3.055  52.939  1.00  0.00    -0.367 OA
HETATM    9  H1  UNL     1      20.712   3.264  53.717  1.00  0.00     0.212 HD
ENDBRANCH   3   8
BRANCH   5  10
HETATM   10  C4  UNL     1      21.317  -0.847  54.342  1.00  0.00     0.413 C 
HETATM   11  F1  UNL     1      22.355  -1.703  54.604  1.00  0.00    -0.166 F 
HETATM   12  F2  UNL     1      21.161  -0.003  55.430  1.00  0.00    -0.166 F 
HETATM   13  F3  UNL     1      20.166  -1.574  54.168  1.00  0.00    -0.166 F 
ENDBRANCH   5  10
ENDBRANCH   1   2
BRANCH   1  14
HETATM   14  S1  UNL     1      21.250   4.622  50.970  1.00  0.00    -0.146 SA
HETATM   15  H9  UNL     1      19.986   4.084  51.247  1.00  0.00     0.103 HD
ENDBRANCH   1  14
BRANCH   1  16
HETATM   16  C8  UNL     1      23.804   4.120  51.649  1.00  0.00     0.049 C 
HETATM   17  C9  UNL     1      23.680   5.580  51.252  1.00  0.00     0.038 C 
HETATM   18  C10 UNL     1      24.655   5.806  50.133  1.00  0.00     0.108 C 
HETATM   19  C11 UNL     1      25.388   7.085  50.317  1.00  0.00     0.017 C 
HETATM   20  N3  UNL     1      25.510   4.654  50.096  1.00  0.00    -0.381 N 
HETATM   21  C12 UNL     1      26.418   7.737  49.835  1.00  0.00     0.114 C 
HETATM   22  N2  UNL     1      27.389   7.462  48.805  1.00  0.00    -0.273 NA
HETATM   23  C13 UNL     1      27.862   6.339  48.328  1.00  0.00     0.117 C 
HETATM   24  C14 UNL     1      27.618   4.918  48.621  1.00  0.00     0.036 C 
HETATM   25  C15 UNL     1      26.655   4.334  49.336  1.00  0.00     0.088 C 
HETATM   26  C16 UNL     1      25.076   3.638  51.046  1.00  0.00     0.130 C 
ENDBRANCH   1  16
TORSDOF 5
ENDMDL
MODEL 6
REMARK VINA RESULT:      -6.9      8.213      9.780
REMARK  5 active torsions:
REMARK  status: ('A' for Active; 'I' for Inactive)
REMARK    1  A    between atoms: O1_1  and  C1_2 
REMARK    2  A    between atoms: C3_4  and  C4_5 
REMARK    3  A    between atoms: N1_11  and  C7_12 
REMARK    4  A    between atoms: C7_12  and  S1_13 
REMARK    5  A    between atoms: C7_12  and  C8_14 
ROOT
HETATM    1  C7  UNL     1      29.967   7.619  48.934  1.00  0.00     0.290 C 
ENDROOT
BRANCH   1   2
HETATM    2  N1  UNL     1      31.286   7.085  48.852  1.00  0.00     0.135 N 
HETATM    3  C1  UNL     1      31.388   5.687  49.127  1.00  0.00     0.362 C 
HETATM    4  C2  UNL     1      32.641   5.095  48.519  1.00  0.00     0.107 C 
HETATM    5  C3  UNL     1      33.665   6.126  48.186  1.00  0.00     0.028 C 
HETATM    6  C5  UNL     1      33.275   7.297  47.641  1.00  0.00     0.015 C 
HETATM    7  C6  UNL     1      31.772   7.300  47.480  1.00  0.00     0.305 C 
BRANCH   3   8
HETATM    8  O1  UNL     1      31.336   5.439  50.506  1.00  0.00    -0.367 OA
HETATM    9  H1  UNL     1      30.985   4.540  50.708  1.00  0.00     0.212 HD
ENDBRANCH   3   8
BRANCH   5  10
HETATM   10  C4  UNL     1      35.103   5.855  48.455  1.00  0.00     0.413 C 
HETATM   11  F1  UNL     1      35.329   5.348  49.708  1.00  0.00    -0.166 F 
HETATM   12  F2  UNL     1      35.518   4.918  47.522  1.00  0.00    -0.166 F 
HETATM   13  F3  UNL     1      35.835   7.005  48.295  1.00  0.00    -0.166 F 
ENDBRANCH   5  10
ENDBRANCH   1   2
BRANCH   1  14
HETATM   14  S1  UNL     1      29.971   9.414  48.804  1.00  0.00    -0.146 SA
HETATM   15  H9  UNL     1      31.175   9.908  48.287  1.00  0.00     0.103 HD
ENDBRANCH   1  14
BRANCH   1  16
HETATM   16  C8  UNL     1      29.007   7.060  47.932  1.00  0.00     0.049 C 
HETATM   17  C9  UNL     1      27.851   8.035  47.806  1.00  0.00     0.038 C 
HETATM   18  C10 UNL     1      26.666   7.386  48.463  1.00  0.00     0.108 C 
HETATM   19  C11 UNL     1      25.439   7.572  47.647  1.00  0.00     0.017 C 
HETATM   20  N3  UNL     1      27.016   6.010  48.669  1.00  0.00    -0.381 N 
HETATM   21  C12 UNL     1      24.203   7.139  47.569  1.00  0.00     0.114 C 
HETATM   22  N2  UNL     1      23.421   6.192  48.323  1.00  0.00    -0.273 NA
HETATM   23  C13 UNL     1      23.759   5.136  49.018  1.00  0.00     0.117 C 
HETATM   24  C14 UNL     1      25.039   4.477  49.322  1.00  0.00     0.036 C 
HETATM   25  C15 UNL     1      26.292   4.898  49.151  1.00  0.00     0.088 C 
HETATM   26  C16 UNL     1      28.401   5.750  48.295  1.00  0.00     0.130 C 
ENDBRANCH   1  16
TORSDOF 5
ENDMDL
MODEL 7
REMARK VINA RESULT:      -6.8      2.416      3.780
REMARK  5 active torsions:
REMARK  status: ('A' for Active; 'I' for Inactive)
REMARK    1  A    between atoms: O1_1  and  C1_2 
REMARK    2  A    between atoms: C3_4  and  C4_5 
REMARK    3  A    between atoms: N1_11  and  C7_12 
REMARK    4  A    between atoms: C7_12  and  S1_13 
REMARK    5  A    between atoms: C7_12  and  C8_14 
ROOT
HETATM    1  C7  UNL     1      20.152   0.938  52.960  1.00  0.00     0.290 C 
ENDROOT
BRANCH   1   2
HETATM    2  N1  UNL     1      21.465   0.526  53.331  1.00  0.00     0.135 N 
HETATM    3  C1  UNL     1      21.580  -0.845  53.716  1.00  0.00     0.362 C 
HETATM    4  C2  UNL     1      23.003  -1.341  53.571  1.00  0.00     0.107 C 
HETATM    5  C3  UNL     1      23.998  -0.234  53.508  1.00  0.00     0.028 C 
HETATM    6  C5  UNL     1      23.713   0.874  52.793  1.00  0.00     0.015 C 
HETATM    7  C6  UNL     1      22.344   0.731  52.169  1.00  0.00     0.305 C 
BRANCH   3   8
HETATM    8  O1  UNL     1      21.111  -1.044  55.022  1.00  0.00    -0.367 OA
HETATM    9  H1  UNL     1      21.785  -0.798  55.699  1.00  0.00     0.212 HD
ENDBRANCH   3   8
BRANCH   5  10
HETATM   10  C4  UNL     1      25.292  -0.359  54.231  1.00  0.00     0.413 C 
HETATM   11  F1  UNL     1      25.899   0.849  54.461  1.00  0.00    -0.166 F 
HETATM   12  F2  UNL     1      25.015  -0.949  55.454  1.00  0.00    -0.166 F 
HETATM   13  F3  UNL     1      26.148  -1.166  53.525  1.00  0.00    -0.166 F 
ENDBRANCH   5  10
ENDBRANCH   1   2
BRANCH   1  14
HETATM   14  S1  UNL     1      20.164   2.557  52.175  1.00  0.00    -0.146 SA
HETATM   15  H9  UNL     1      21.170   2.673  51.207  1.00  0.00     0.103 HD
ENDBRANCH   1  14
BRANCH   1  16
HETATM   16  C8  UNL     1      19.424  -0.027  52.078  1.00  0.00     0.049 C 
HETATM   17  C9  UNL     1      18.897   0.747  50.883  1.00  0.00     0.038 C 
HETATM   18  C10 UNL     1      17.408   0.842  51.054  1.00  0.00     0.108 C 
HETATM   19  C11 UNL     1      16.709   0.583  49.769  1.00  0.00     0.017 C 
HETATM   20  N3  UNL     1      17.056  -0.081  52.095  1.00  0.00    -0.381 N 
HETATM   21  C12 UNL     1      15.505   0.357  49.302  1.00  0.00     0.114 C 
HETATM   22  N2  UNL     1      14.198   0.249  49.903  1.00  0.00    -0.273 NA
HETATM   23  C13 UNL     1      13.815  -0.113  51.101  1.00  0.00     0.117 C 
HETATM   24  C14 UNL     1      14.523  -0.548  52.315  1.00  0.00     0.036 C 
HETATM   25  C15 UNL     1      15.818  -0.498  52.628  1.00  0.00     0.088 C 
HETATM   26  C16 UNL     1      18.240  -0.684  52.695  1.00  0.00     0.130 C 
ENDBRANCH   1  16
TORSDOF 5
ENDMDL
MODEL 8
REMARK VINA RESULT:      -6.8      4.933      5.741
REMARK  5 active torsions:
REMARK  status: ('A' for Active; 'I' for Inactive)
REMARK    1  A    between atoms: O1_1  and  C1_2 
REMARK    2  A    between atoms: C3_4  and  C4_5 
REMARK    3  A    between atoms: N1_11  and  C7_12 
REMARK    4  A    between atoms: C7_12  and  S1_13 
REMARK    5  A    between atoms: C7_12  and  C8_14 
ROOT
HETATM    1  C7  UNL     1      24.372   4.781  50.600  1.00  0.00     0.290 C 
ENDROOT
BRANCH   1   2
HETATM    2  N1  UNL     1      25.611   5.168  50.011  1.00  0.00     0.135 N 
HETATM    3  C1  UNL     1      26.491   4.089  49.695  1.00  0.00     0.362 C 
HETATM    4  C2  UNL     1      27.491   4.487  48.629  1.00  0.00     0.107 C 
HETATM    5  C3  UNL     1      27.628   5.964  48.488  1.00  0.00     0.028 C 
HETATM    6  C5  UNL     1      26.527   6.741  48.544  1.00  0.00     0.015 C 
HETATM    7  C6  UNL     1      25.309   5.872  48.754  1.00  0.00     0.305 C 
BRANCH   3   8
HETATM    8  O1  UNL     1      27.145   3.618  50.843  1.00  0.00    -0.367 OA
HETATM    9  H1  UNL     1      27.595   2.755  50.684  1.00  0.00     0.212 HD
ENDBRANCH   3   8
BRANCH   5  10
HETATM   10  C4  UNL     1      28.974   6.566  48.286  1.00  0.00     0.413 C 
HETATM   11  F1  UNL     1      29.268   6.796  46.967  1.00  0.00    -0.166 F 
HETATM   12  F2  UNL     1      28.977   7.780  48.953  1.00  0.00    -0.166 F 
HETATM   13  F3  UNL     1      29.938   5.752  48.827  1.00  0.00    -0.166 F 
ENDBRANCH   5  10
ENDBRANCH   1   2
BRANCH   1  14
HETATM   14  S1  UNL     1      23.333   6.207  50.956  1.00  0.00    -0.146 SA
HETATM   15  H9  UNL     1      23.647   6.801  52.185  1.00  0.00     0.103 HD
ENDBRANCH   1  14
BRANCH   1  16
HETATM   16  C8  UNL     1      23.585   3.792  49.798  1.00  0.00     0.049 C 
HETATM   17  C9  UNL     1      22.140   4.256  49.782  1.00  0.00     0.038 C 
HETATM   18  C10 UNL     1      21.374   3.305  50.656  1.00  0.00     0.108 C 
HETATM   19  C11 UNL     1      20.081   2.930  50.026  1.00  0.00     0.017 C 
HETATM   20  N3  UNL     1      22.239   2.187  50.901  1.00  0.00    -0.381 N 
HETATM   21  C12 UNL     1      19.101   2.071  50.168  1.00  0.00     0.114 C 
HETATM   22  N2  UNL     1      18.827   1.003  51.097  1.00  0.00    -0.273 NA
HETATM   23  C13 UNL     1      19.617   0.235  51.804  1.00  0.00     0.117 C 
HETATM   24  C14 UNL     1      21.077   0.131  51.955  1.00  0.00     0.036 C 
HETATM   25  C15 UNL     1      22.049   0.956  51.565  1.00  0.00     0.088 C 
HETATM   26  C16 UNL     1      23.565   2.406  50.339  1.00  0.00     0.130 C 
ENDBRANCH   1  16
TORSDOF 5
ENDMDL
MODEL 9
REMARK VINA RESULT:      -6.7      5.407      7.401
REMARK  5 active torsions:
REMARK  status: ('A' for Active; 'I' for Inactive)
REMARK    1  A    between atoms: O1_1  and  C1_2 
REMARK    2  A    between atoms: C3_4  and  C4_5 
REMARK    3  A    between atoms: N1_11  and  C7_12 
REMARK    4  A    between atoms: C7_12  and  S1_13 
REMARK    5  A    between atoms: C7_12  and  C8_14 
ROOT
HETATM    1  C7  UNL     1      24.601   2.886  52.184  1.00  0.00     0.290 C 
ENDROOT
BRANCH   1   2
HETATM    2  N1  UNL     1      23.691   1.893  52.649  1.00  0.00     0.135 N 
HETATM    3  C1  UNL     1      22.472   1.799  51.909  1.00  0.00     0.362 C 
HETATM    4  C2  UNL     1      21.824   0.443  52.083  1.00  0.00     0.107 C 
HETATM    5  C3  UNL     1      22.324  -0.288  53.282  1.00  0.00     0.028 C 
HETATM    6  C5  UNL     1      23.640  -0.251  53.580  1.00  0.00     0.015 C 
HETATM    7  C6  UNL     1      24.365   0.588  52.553  1.00  0.00     0.305 C 
BRANCH   3   8
HETATM    8  O1  UNL     1      21.586   2.827  52.264  1.00  0.00    -0.367 OA
HETATM    9  H1  UNL     1      21.022   3.108  51.505  1.00  0.00     0.212 HD
ENDBRANCH   3   8
BRANCH   5  10
HETATM   10  C4  UNL     1      21.373  -1.050  54.135  1.00  0.00     0.413 C 
HETATM   11  F1  UNL     1      20.142  -1.214  53.554  1.00  0.00    -0.166 F 
HETATM   12  F2  UNL     1      21.929  -2.301  54.342  1.00  0.00    -0.166 F 
HETATM   13  F3  UNL     1      21.220  -0.420  55.345  1.00  0.00    -0.166 F 
ENDBRANCH   5  10
ENDBRANCH   1   2
BRANCH   1  14
HETATM   14  S1  UNL     1      26.262   2.222  51.989  1.00  0.00    -0.146 SA
HETATM   15  H9  UNL     1      26.701   1.540  53.131  1.00  0.00     0.103 HD
ENDBRANCH   1  14
BRANCH   1  16
HETATM   16  C8  UNL     1      24.191   3.559  50.912  1.00  0.00     0.049 C 
HETATM   17  C9  UNL     1      25.438   3.746  50.066  1.00  0.00     0.038 C 
HETATM   18  C10 UNL     1      25.750   5.215  50.080  1.00  0.00     0.108 C 
HETATM   19  C11 UNL     1      26.126   5.690  48.724  1.00  0.00     0.017 C 
HETATM   20  N3  UNL     1      24.596   5.874  50.621  1.00  0.00    -0.381 N 
HETATM   21  C12 UNL     1      26.326   6.806  48.064  1.00  0.00     0.114 C 
HETATM   22  N2  UNL     1      26.260   8.204  48.411  1.00  0.00    -0.273 NA
HETATM   23  C13 UNL     1      25.564   8.848  49.313  1.00  0.00     0.117 C 
HETATM   24  C14 UNL     1      24.583   8.443  50.332  1.00  0.00     0.036 C 
HETATM   25  C15 UNL     1      24.261   7.234  50.792  1.00  0.00     0.088 C 
HETATM   26  C16 UNL     1      23.597   4.914  51.072  1.00  0.00     0.130 C 
ENDBRANCH   1  16
TORSDOF 5
ENDMDL
