MODEL 1
REMARK VINA RESULT:      -7.7      0.000      0.000
REMARK  2 active torsions:
REMARK  status: ('A' for Active; 'I' for Inactive)
REMARK    1  A    between atoms: C2_2  and  C3_3 
REMARK    2  A    between atoms: C15_19  and  N4_20 
ROOT
HETATM    1  C3  UNL     1      22.562  -0.013  52.682  1.00  0.00     0.083 C 
HETATM    2  C4  UNL     1      22.648   0.988  51.554  1.00  0.00     0.008 C 
HETATM    3  C5  UNL     1      23.343   1.908  50.800  1.00  0.00    -0.004 C 
HETATM    4  C6  UNL     1      24.756   2.528  50.757  1.00  0.00    -0.018 C 
HETATM    5  C7  UNL     1      26.066   2.901  50.978  1.00  0.00     0.030 C 
HETATM    6  C8  UNL     1      27.037   2.525  52.009  1.00  0.00    -0.002 A 
HETATM    7  N1  UNL     1      27.657   1.959  53.061  1.00  0.00     0.000 N 
HETATM    8  C9  UNL     1      28.720   2.499  53.666  1.00  0.00     0.092 A 
HETATM    9  N2  UNL     1      28.381   1.343  54.261  1.00  0.00    -0.203 NA
HETATM   10  C10 UNL     1      27.358   0.568  53.884  1.00  0.00     0.121 A 
HETATM   11  C11 UNL     1      27.032   1.419  52.882  1.00  0.00     0.031 A 
HETATM   12  C12 UNL     1      26.304   0.462  51.944  1.00  0.00     0.005 C 
HETATM   13  C13 UNL     1      26.109  -0.827  52.170  1.00  0.00     0.093 C 
HETATM   14  N3  UNL     1      25.303  -0.490  53.351  1.00  0.00    -0.295 N 
HETATM   15  C14 UNL     1      23.919  -0.194  53.279  1.00  0.00     0.230 C 
HETATM   16  O1  UNL     1      24.147   0.008  54.479  1.00  0.00    -0.273 OA
HETATM   17  C15 UNL     1      26.532  -0.609  54.204  1.00  0.00     0.353 C 
ENDROOT
BRANCH  17  18
HETATM   18  N4  UNL     1      26.151  -0.610  55.609  1.00  0.00     0.104 N 
HETATM   19  H15 UNL     1      25.620   0.229  55.841  1.00  0.00     0.315 HD
HETATM   20  H16 UNL     1      25.799  -1.516  55.930  1.00  0.00     0.315 HD
ENDBRANCH  17  18
BRANCH   1  21
HETATM   21  C2  UNL     1      21.631   0.541  53.714  1.00  0.00     0.010 C 
HETATM   22  C1  UNL     1      20.503  -0.423  53.886  1.00  0.00     0.006 C 
ENDBRANCH   1  21
TORSDOF 2
ENDMDL
MODEL 2
REMARK VINA RESULT:      -7.2      2.353      3.906
REMARK  2 active torsions:
REMARK  status: ('A' for Active; 'I' for Inactive)
REMARK    1  A    between atoms: C2_2  and  C3_3 
REMARK    2  A    between atoms: C15_19  and  N4_20 
ROOT
HETATM    1  C3  UNL     1      22.829  -0.140  53.995  1.00  0.00     0.083 C 
HETATM    2  C4  UNL     1      24.218  -0.646  54.306  1.00  0.00     0.008 C 
HETATM    3  C5  UNL     1      25.584  -0.625  54.127  1.00  0.00    -0.004 C 
HETATM    4  C6  UNL     1      26.621   0.136  53.273  1.00  0.00    -0.018 C 
HETATM    5  C7  UNL     1      27.288   0.957  52.386  1.00  0.00     0.030 C 
HETATM    6  C8  UNL     1      26.816   1.936  51.404  1.00  0.00    -0.002 A 
HETATM    7  N1  UNL     1      26.058   2.748  50.645  1.00  0.00     0.000 N 
HETATM    8  C9  UNL     1      26.468   3.263  49.482  1.00  0.00     0.092 A 
HETATM    9  N2  UNL     1      25.218   3.671  49.758  1.00  0.00    -0.203 NA
HETATM   10  C10 UNL     1      24.533   3.325  50.852  1.00  0.00     0.121 A 
HETATM   11  C11 UNL     1      25.564   2.576  51.309  1.00  0.00     0.031 A 
HETATM   12  C12 UNL     1      25.262   2.587  52.804  1.00  0.00     0.005 C 
HETATM   13  C13 UNL     1      24.233   3.198  53.370  1.00  0.00     0.093 C 
HETATM   14  N3  UNL     1      23.315   2.325  52.626  1.00  0.00    -0.295 N 
HETATM   15  C14 UNL     1      22.930   1.042  53.088  1.00  0.00     0.230 C 
HETATM   16  O1  UNL     1      22.376   1.077  51.982  1.00  0.00    -0.273 OA
HETATM   17  C15 UNL     1      23.232   3.362  51.545  1.00  0.00     0.353 C 
ENDROOT
BRANCH  17  18
HETATM   18  N4  UNL     1      22.148   3.027  50.633  1.00  0.00     0.104 N 
HETATM   19  H15 UNL     1      22.358   2.171  50.119  1.00  0.00     0.315 HD
HETATM   20  H16 UNL     1      21.221   3.130  51.053  1.00  0.00     0.315 HD
ENDBRANCH  17  18
BRANCH   1  21
HETATM   21  C2  UNL     1      22.086  -1.239  53.305  1.00  0.00     0.010 C 
HETATM   22  C1  UNL     1      20.927  -1.627  54.163  1.00  0.00     0.006 C 
ENDBRANCH   1  21
TORSDOF 2
ENDMDL
MODEL 3
REMARK VINA RESULT:      -7.2      3.485      5.649
REMARK  2 active torsions:
REMARK  status: ('A' for Active; 'I' for Inactive)
REMARK    1  A    between atoms: C2_2  and  C3_3 
REMARK    2  A    between atoms: C15_19  and  N4_20 
ROOT
HETATM    1  C3  UNL     1      26.184   1.201  51.617  1.00  0.00     0.083 C 
HETATM    2  C4  UNL     1      24.924   1.250  52.449  1.00  0.00     0.008 C 
HETATM    3  C5  UNL     1      23.802   1.901  52.912  1.00  0.00    -0.004 C 
HETATM    4  C6  UNL     1      23.126   3.280  52.759  1.00  0.00    -0.018 C 
HETATM    5  C7  UNL     1      22.778   4.578  52.440  1.00  0.00     0.030 C 
HETATM    6  C8  UNL     1      23.442   5.605  51.633  1.00  0.00    -0.002 A 
HETATM    7  N1  UNL     1      24.288   6.279  50.833  1.00  0.00     0.000 N 
HETATM    8  C9  UNL     1      24.346   7.613  50.780  1.00  0.00     0.092 A 
HETATM    9  N2  UNL     1      25.242   7.073  49.937  1.00  0.00    -0.203 NA
HETATM   10  C10 UNL     1      25.425   5.760  49.765  1.00  0.00     0.121 A 
HETATM   11  C11 UNL     1      24.460   5.468  50.669  1.00  0.00     0.031 A 
HETATM   12  C12 UNL     1      24.062   4.074  50.195  1.00  0.00     0.005 C 
HETATM   13  C13 UNL     1      24.598   3.435  49.168  1.00  0.00     0.093 C 
HETATM   14  N3  UNL     1      25.897   3.436  49.853  1.00  0.00    -0.295 N 
HETATM   15  C14 UNL     1      26.273   2.442  50.791  1.00  0.00     0.230 C 
HETATM   16  O1  UNL     1      27.241   3.210  50.852  1.00  0.00    -0.273 OA
HETATM   17  C15 UNL     1      26.252   4.710  49.144  1.00  0.00     0.353 C 
ENDROOT
BRANCH  17  18
HETATM   18  N4  UNL     1      27.669   4.989  49.326  1.00  0.00     0.104 N 
HETATM   19  H15 UNL     1      28.064   4.398  50.059  1.00  0.00     0.315 HD
HETATM   20  H16 UNL     1      28.178   5.080  48.444  1.00  0.00     0.315 HD
ENDBRANCH  17  18
BRANCH   1  21
HETATM   21  C2  UNL     1      27.348   1.138  52.553  1.00  0.00     0.010 C 
HETATM   22  C1  UNL     1      27.457  -0.260  53.067  1.00  0.00     0.006 C 
ENDBRANCH   1  21
TORSDOF 2
ENDMDL
MODEL 4
REMARK VINA RESULT:      -7.0      2.206      5.067
REMARK  2 active torsions:
REMARK  status: ('A' for Active; 'I' for Inactive)
REMARK    1  A    between atoms: C2_2  and  C3_3 
REMARK    2  A    between atoms: C15_19  and  N4_20 
ROOT
HETATM    1  C3  UNL     1      26.658   1.073  53.004  1.00  0.00     0.083 C 
HETATM    2  C4  UNL     1      27.007   2.106  51.959  1.00  0.00     0.008 C 
HETATM    3  C5  UNL     1      26.678   2.899  50.882  1.00  0.00    -0.004 C 
HETATM    4  C6  UNL     1      25.454   3.166  49.980  1.00  0.00    -0.018 C 
HETATM    5  C7  UNL     1      24.224   3.175  49.352  1.00  0.00     0.030 C 
HETATM    6  C8  UNL     1      23.005   2.390  49.563  1.00  0.00    -0.002 A 
HETATM    7  N1  UNL     1      22.080   1.534  50.034  1.00  0.00     0.000 N 
HETATM    8  C9  UNL     1      21.040   1.105  49.312  1.00  0.00     0.092 A 
HETATM    9  N2  UNL     1      21.015   0.557  50.539  1.00  0.00    -0.203 NA
HETATM   10  C10 UNL     1      21.923   0.791  51.492  1.00  0.00     0.121 A 
HETATM   11  C11 UNL     1      22.611   1.632  50.684  1.00  0.00     0.031 A 
HETATM   12  C12 UNL     1      23.319   2.488  51.729  1.00  0.00     0.005 C 
HETATM   13  C13 UNL     1      23.209   2.339  53.039  1.00  0.00     0.093 C 
HETATM   14  N3  UNL     1      23.798   0.998  52.930  1.00  0.00    -0.295 N 
HETATM   15  C14 UNL     1      25.197   0.772  52.926  1.00  0.00     0.230 C 
HETATM   16  O1  UNL     1      24.767  -0.372  52.733  1.00  0.00    -0.273 OA
HETATM   17  C15 UNL     1      22.419   0.418  52.829  1.00  0.00     0.353 C 
ENDROOT
BRANCH  17  18
HETATM   18  N4  UNL     1      22.489  -1.029  52.971  1.00  0.00     0.104 N 
HETATM   19  H15 UNL     1      22.260  -1.311  53.925  1.00  0.00     0.315 HD
HETATM   20  H16 UNL     1      22.053  -1.532  52.194  1.00  0.00     0.315 HD
ENDBRANCH  17  18
BRANCH   1  21
HETATM   21  C2  UNL     1      27.441  -0.165  52.703  1.00  0.00     0.010 C 
HETATM   22  C1  UNL     1      28.589  -0.233  53.656  1.00  0.00     0.006 C 
ENDBRANCH   1  21
TORSDOF 2
ENDMDL
MODEL 5
REMARK VINA RESULT:      -7.0      2.200      5.005
REMARK  2 active torsions:
REMARK  status: ('A' for Active; 'I' for Inactive)
REMARK    1  A    between atoms: C2_2  and  C3_3 
REMARK    2  A    between atoms: C15_19  and  N4_20 
ROOT
HETATM    1  C3  UNL     1      25.780   4.142  50.016  1.00  0.00     0.083 C 
HETATM    2  C4  UNL     1      24.467   4.091  49.272  1.00  0.00     0.008 C 
HETATM    3  C5  UNL     1      23.200   3.584  49.082  1.00  0.00    -0.004 C 
HETATM    4  C6  UNL     1      22.278   2.523  49.719  1.00  0.00    -0.018 C 
HETATM    5  C7  UNL     1      21.707   1.521  50.478  1.00  0.00     0.030 C 
HETATM    6  C8  UNL     1      22.220   0.709  51.585  1.00  0.00    -0.002 A 
HETATM    7  N1  UNL     1      22.982   0.180  52.559  1.00  0.00     0.000 N 
HETATM    8  C9  UNL     1      22.776  -1.035  53.076  1.00  0.00     0.092 A 
HETATM    9  N2  UNL     1      23.834  -0.452  53.663  1.00  0.00    -0.203 NA
HETATM   10  C10 UNL     1      24.291   0.768  53.360  1.00  0.00     0.121 A 
HETATM   11  C11 UNL     1      23.327   0.939  52.425  1.00  0.00     0.031 A 
HETATM   12  C12 UNL     1      23.261   2.462  52.385  1.00  0.00     0.005 C 
HETATM   13  C13 UNL     1      24.005   3.278  53.115  1.00  0.00     0.093 C 
HETATM   14  N3  UNL     1      25.210   2.759  52.456  1.00  0.00    -0.295 N 
HETATM   15  C14 UNL     1      25.692   3.268  51.224  1.00  0.00     0.230 C 
HETATM   16  O1  UNL     1      26.477   2.332  51.423  1.00  0.00    -0.273 OA
HETATM   17  C15 UNL     1      25.364   1.758  53.562  1.00  0.00     0.353 C 
ENDROOT
BRANCH  17  18
HETATM   18  N4  UNL     1      26.674   1.130  53.470  1.00  0.00     0.104 N 
HETATM   19  H15 UNL     1      26.828   0.746  52.537  1.00  0.00     0.315 HD
HETATM   20  H16 UNL     1      27.418   1.685  53.898  1.00  0.00     0.315 HD
ENDBRANCH  17  18
BRANCH   1  21
HETATM   21  C2  UNL     1      26.845   3.626  49.102  1.00  0.00     0.010 C 
HETATM   22  C1  UNL     1      27.670   4.785  48.648  1.00  0.00     0.006 C 
ENDBRANCH   1  21
TORSDOF 2
ENDMDL
MODEL 6
REMARK VINA RESULT:      -6.9      2.352      4.001
REMARK  2 active torsions:
REMARK  status: ('A' for Active; 'I' for Inactive)
REMARK    1  A    between atoms: C2_2  and  C3_3 
REMARK    2  A    between atoms: C15_19  and  N4_20 
ROOT
HETATM    1  C3  UNL     1      21.553   1.725  50.429  1.00  0.00     0.083 C 
HETATM    2  C4  UNL     1      21.338   0.620  51.436  1.00  0.00     0.008 C 
HETATM    3  C5  UNL     1      21.786  -0.205  52.444  1.00  0.00    -0.004 C 
HETATM    4  C6  UNL     1      23.093  -0.464  53.223  1.00  0.00    -0.018 C 
HETATM    5  C7  UNL     1      24.379  -0.472  53.724  1.00  0.00     0.030 C 
HETATM    6  C8  UNL     1      25.584   0.275  53.355  1.00  0.00    -0.002 A 
HETATM    7  N1  UNL     1      26.460   1.123  52.785  1.00  0.00     0.000 N 
HETATM    8  C9  UNL     1      27.785   0.951  52.828  1.00  0.00     0.092 A 
HETATM    9  N2  UNL     1      27.481   2.066  52.143  1.00  0.00    -0.203 NA
HETATM   10  C10 UNL     1      26.237   2.506  51.925  1.00  0.00     0.121 A 
HETATM   11  C11 UNL     1      25.707   1.463  52.608  1.00  0.00     0.031 A 
HETATM   12  C12 UNL     1      24.369   2.067  53.022  1.00  0.00     0.005 C 
HETATM   13  C13 UNL     1      23.958   3.289  52.725  1.00  0.00     0.093 C 
HETATM   14  N3  UNL     1      23.992   2.945  51.297  1.00  0.00    -0.295 N 
HETATM   15  C14 UNL     1      22.910   2.316  50.633  1.00  0.00     0.230 C 
HETATM   16  O1  UNL     1      23.758   2.353  49.732  1.00  0.00    -0.273 OA
HETATM   17  C15 UNL     1      25.390   3.482  51.217  1.00  0.00     0.353 C 
ENDROOT
BRANCH  17  18
HETATM   18  N4  UNL     1      25.787   3.598  49.821  1.00  0.00     0.104 N 
HETATM   19  H15 UNL     1      24.995   3.877  49.241  1.00  0.00     0.315 HD
HETATM   20  H16 UNL     1      26.679   4.082  49.695  1.00  0.00     0.315 HD
ENDBRANCH  17  18
BRANCH   1  21
HETATM   21  C2  UNL     1      21.470   1.122  49.063  1.00  0.00     0.010 C 
HETATM   22  C1  UNL     1      20.680   2.044  48.194  1.00  0.00     0.006 C 
ENDBRANCH   1  21
TORSDOF 2
ENDMDL
MODEL 7
REMARK VINA RESULT:      -6.6      3.222      5.438
REMARK  2 active torsions:
REMARK  status: ('A' for Active; 'I' for Inactive)
REMARK    1  A    between atoms: C2_2  and  C3_3 
REMARK    2  A    between atoms: C15_19  and  N4_20 
ROOT
HETATM    1  C3  UNL     1      24.441   0.352  52.602  1.00  0.00     0.083 C 
HETATM    2  C4  UNL     1      23.019   0.153  53.070  1.00  0.00     0.008 C 
HETATM    3  C5  UNL     1      21.715   0.579  53.202  1.00  0.00    -0.004 C 
HETATM    4  C6  UNL     1      20.867   1.816  52.839  1.00  0.00    -0.018 C 
HETATM    5  C7  UNL     1      20.388   3.037  52.406  1.00  0.00     0.030 C 
HETATM    6  C8  UNL     1      21.044   4.186  51.778  1.00  0.00    -0.002 A 
HETATM    7  N1  UNL     1      21.936   5.020  51.213  1.00  0.00     0.000 N 
HETATM    8  C9  UNL     1      21.764   6.343  51.142  1.00  0.00     0.092 A 
HETATM    9  N2  UNL     1      22.934   5.994  50.581  1.00  0.00    -0.203 NA
HETATM   10  C10 UNL     1      23.390   4.740  50.498  1.00  0.00     0.121 A 
HETATM   11  C11 UNL     1      22.289   4.257  51.122  1.00  0.00     0.031 A 
HETATM   12  C12 UNL     1      22.290   2.826  50.596  1.00  0.00     0.005 C 
HETATM   13  C13 UNL     1      23.185   2.319  49.764  1.00  0.00     0.093 C 
HETATM   14  N3  UNL     1      24.233   2.539  50.769  1.00  0.00    -0.295 N 
HETATM   15  C14 UNL     1      24.520   1.608  51.797  1.00  0.00     0.230 C 
HETATM   16  O1  UNL     1      25.282   2.537  52.093  1.00  0.00    -0.273 OA
HETATM   17  C15 UNL     1      24.527   3.872  50.146  1.00  0.00     0.353 C 
ENDROOT
BRANCH  17  18
HETATM   18  N4  UNL     1      25.771   4.398  50.689  1.00  0.00     0.104 N 
HETATM   19  H15 UNL     1      26.410   4.664  49.940  1.00  0.00     0.315 HD
HETATM   20  H16 UNL     1      25.627   5.051  51.464  1.00  0.00     0.315 HD
ENDBRANCH  17  18
BRANCH   1  21
HETATM   21  C2  UNL     1      25.307   0.480  53.815  1.00  0.00     0.010 C 
HETATM   22  C1  UNL     1      26.493  -0.411  53.635  1.00  0.00     0.006 C 
ENDBRANCH   1  21
TORSDOF 2
ENDMDL
MODEL 8
REMARK VINA RESULT:      -6.6      3.255      5.297
REMARK  2 active torsions:
REMARK  status: ('A' for Active; 'I' for Inactive)
REMARK    1  A    between atoms: C2_2  and  C3_3 
REMARK    2  A    between atoms: C15_19  and  N4_20 
ROOT
HETATM    1  C3  UNL     1      25.206   1.135  53.300  1.00  0.00     0.083 C 
HETATM    2  C4  UNL     1      26.372   1.602  52.460  1.00  0.00     0.008 C 
HETATM    3  C5  UNL     1      26.900   2.331  51.418  1.00  0.00    -0.004 C 
HETATM    4  C6  UNL     1      26.397   3.267  50.298  1.00  0.00    -0.018 C 
HETATM    5  C7  UNL     1      25.660   4.034  49.419  1.00  0.00     0.030 C 
HETATM    6  C8  UNL     1      24.219   4.263  49.280  1.00  0.00    -0.002 A 
HETATM    7  N1  UNL     1      22.884   4.264  49.451  1.00  0.00     0.000 N 
HETATM    8  C9  UNL     1      22.018   4.571  48.481  1.00  0.00     0.092 A 
HETATM    9  N2  UNL     1      21.362   4.270  49.614  1.00  0.00    -0.203 NA
HETATM   10  C10 UNL     1      21.953   3.921  50.761  1.00  0.00     0.121 A 
HETATM   11  C11 UNL     1      23.184   4.038  50.208  1.00  0.00     0.031 A 
HETATM   12  C12 UNL     1      24.016   4.294  51.461  1.00  0.00     0.005 C 
HETATM   13  C13 UNL     1      23.540   4.355  52.694  1.00  0.00     0.093 C 
HETATM   14  N3  UNL     1      23.113   2.953  52.591  1.00  0.00    -0.295 N 
HETATM   15  C14 UNL     1      23.973   1.864  52.873  1.00  0.00     0.230 C 
HETATM   16  O1  UNL     1      22.958   1.274  52.482  1.00  0.00    -0.273 OA
HETATM   17  C15 UNL     1      21.761   3.416  52.133  1.00  0.00     0.353 C 
ENDROOT
BRANCH  17  18
HETATM   18  N4  UNL     1      20.832   2.296  52.149  1.00  0.00     0.104 N 
HETATM   19  H15 UNL     1      20.766   1.893  53.084  1.00  0.00     0.315 HD
HETATM   20  H16 UNL     1      19.968   2.482  51.634  1.00  0.00     0.315 HD
ENDBRANCH  17  18
BRANCH   1  21
HETATM   21  C2  UNL     1      25.029  -0.330  53.062  1.00  0.00     0.010 C 
HETATM   22  C1  UNL     1      26.383  -0.952  52.964  1.00  0.00     0.006 C 
ENDBRANCH   1  21
TORSDOF 2
ENDMDL
MODEL 9
REMARK VINA RESULT:      -6.5      3.200      5.150
REMARK  2 active torsions:
REMARK  status: ('A' for Active; 'I' for Inactive)
REMARK    1  A    between atoms: C2_2  and  C3_3 
REMARK    2  A    between atoms: C15_19  and  N4_20 
ROOT
HETATM    1  C3  UNL     1      22.283  -0.339  52.708  1.00  0.00     0.083 C 
HETATM    2  C4  UNL     1      20.787  -0.142  52.626  1.00  0.00     0.008 C 
HETATM    3  C5  UNL     1      19.679   0.632  52.361  1.00  0.00    -0.004 C 
HETATM    4  C6  UNL     1      19.364   2.073  51.908  1.00  0.00    -0.018 C 
HETATM    5  C7  UNL     1      19.402   3.396  51.513  1.00  0.00     0.030 C 
HETATM    6  C8  UNL     1      20.509   4.334  51.317  1.00  0.00    -0.002 A 
HETATM    7  N1  UNL     1      21.726   4.901  51.216  1.00  0.00     0.000 N 
HETATM    8  C9  UNL     1      21.930   6.220  51.278  1.00  0.00     0.092 A 
HETATM    9  N2  UNL     1      23.096   5.575  51.109  1.00  0.00    -0.203 NA
HETATM   10  C10 UNL     1      23.220   4.247  51.011  1.00  0.00     0.121 A 
HETATM   11  C11 UNL     1      21.883   4.074  51.145  1.00  0.00     0.031 A 
HETATM   12  C12 UNL     1      21.718   2.724  50.454  1.00  0.00     0.005 C 
HETATM   13  C13 UNL     1      22.699   2.016  49.917  1.00  0.00     0.093 C 
HETATM   14  N3  UNL     1      23.322   1.888  51.241  1.00  0.00    -0.295 N 
HETATM   15  C14 UNL     1      22.966   0.873  52.164  1.00  0.00     0.230 C 
HETATM   16  O1  UNL     1      23.772   1.534  52.831  1.00  0.00    -0.273 OA
HETATM   17  C15 UNL     1      24.150   3.105  50.952  1.00  0.00     0.353 C 
ENDROOT
BRANCH  17  18
HETATM   18  N4  UNL     1      25.195   3.233  51.958  1.00  0.00     0.104 N 
HETATM   19  H15 UNL     1      25.831   2.436  51.922  1.00  0.00     0.315 HD
HETATM   20  H16 UNL     1      25.591   4.174  52.008  1.00  0.00     0.315 HD
ENDBRANCH  17  18
BRANCH   1  21
HETATM   21  C2  UNL     1      22.643  -0.513  54.149  1.00  0.00     0.010 C 
HETATM   22  C1  UNL     1      21.831  -1.639  54.698  1.00  0.00     0.006 C 
ENDBRANCH   1  21
TORSDOF 2
ENDMDL
