MODEL 1
REMARK VINA RESULT:      -8.2      0.000      0.000
REMARK  9 active torsions:
REMARK  status: ('A' for Active; 'I' for Inactive)
REMARK    1  A    between atoms: N1_2  and  C2_3 
REMARK    2  A    between atoms: C2_3  and  C3_4 
REMARK    3  A    between atoms: C3_4  and  C4_5 
REMARK       I    between atoms: C4_5  and  N2_7 
REMARK    4  A    between atoms: N2_7  and  C5_8 
REMARK    5  A    between atoms: C8_11  and  N3_12 
REMARK    6  A    between atoms: C9_13  and  C10_14 
REMARK    7  A    between atoms: C12_17  and  C13_18 
REMARK    8  A    between atoms: C13_18  and  C14_19 
REMARK    9  A    between atoms: C14_19  and  C15_20 
ROOT
HETATM    1  C10 UNL     1      20.735  -1.034  54.005  1.00  0.00     0.170 C 
HETATM    2  C11 UNL     1      21.921  -1.276  54.856  1.00  0.00     0.064 C 
HETATM    3  N4  UNL     1      22.850  -1.465  55.518  1.00  0.00    -0.197 NA
ENDROOT
BRANCH   1   4
HETATM    4  C9  UNL     1      21.074   0.050  53.052  1.00  0.00     0.104 C 
HETATM    5  N3  UNL     1      22.166   0.023  52.368  1.00  0.00    -0.264 NA
BRANCH   5   6
HETATM    6  C8  UNL     1      22.525   1.043  51.447  1.00  0.00     0.062 A 
HETATM    7  C7  UNL     1      21.773   1.465  50.373  1.00  0.00     0.034 A 
HETATM    8  C6  UNL     1      22.257   2.471  49.570  1.00  0.00     0.032 A 
HETATM    9  C5  UNL     1      23.455   3.113  49.745  1.00  0.00     0.035 A 
HETATM   10  C21 UNL     1      24.165   2.668  50.817  1.00  0.00     0.039 A 
HETATM   11  C12 UNL     1      23.723   1.660  51.652  1.00  0.00    -0.027 A 
BRANCH   9  12
HETATM   12  N2  UNL     1      24.008   4.141  48.951  1.00  0.00    -0.327 N 
HETATM   13  C4  UNL     1      24.247   5.484  49.319  1.00  0.00     0.223 C 
HETATM   14  O1  UNL     1      23.965   5.903  50.468  1.00  0.00    -0.273 OA
HETATM   15  H9  UNL     1      24.289   3.953  47.984  1.00  0.00     0.169 HD
BRANCH  13  16
HETATM   16  C3  UNL     1      24.832   6.477  48.397  1.00  0.00     0.133 C 
BRANCH  16  17
HETATM   17  C2  UNL     1      26.286   6.695  48.590  1.00  0.00     0.278 C 
BRANCH  17  18
HETATM   18  N1  UNL     1      26.947   5.665  49.337  1.00  0.00     0.079 N 
HETATM   19  C1  UNL     1      27.984   4.991  48.592  1.00  0.00     0.306 C 
HETATM   20  H4  UNL     1      27.226   5.926  50.287  1.00  0.00     0.315 HD
ENDBRANCH  17  18
ENDBRANCH  16  17
ENDBRANCH  13  16
ENDBRANCH   9  12
BRANCH  11  21
HETATM   21  C13 UNL     1      24.649   1.282  52.779  1.00  0.00     0.045 C 
BRANCH  21  22
HETATM   22  C14 UNL     1      25.923   2.112  52.692  1.00  0.00     0.043 C 
BRANCH  22  23
HETATM   23  C15 UNL     1      27.112   1.310  53.072  1.00  0.00    -0.056 A 
HETATM   24  C16 UNL     1      28.275   1.774  53.643  1.00  0.00     0.010 A 
HETATM   25  C17 UNL     1      29.271   0.865  53.924  1.00  0.00     0.044 A 
HETATM   26  C18 UNL     1      29.174  -0.482  53.668  1.00  0.00     0.138 A 
HETATM   27  F1  UNL     1      30.202  -1.316  53.974  1.00  0.00    -0.204 F 
HETATM   28  C19 UNL     1      28.023  -0.956  53.100  1.00  0.00     0.073 A 
HETATM   29 CL1  UNL     1      27.842  -2.655  52.751  1.00  0.00    -0.081 Cl
HETATM   30  C20 UNL     1      27.017  -0.061  52.812  1.00  0.00     0.034 A 
ENDBRANCH  22  23
ENDBRANCH  21  22
ENDBRANCH  11  21
ENDBRANCH   5   6
ENDBRANCH   1   4
TORSDOF 9
ENDMDL
MODEL 2
REMARK VINA RESULT:      -8.1      1.806      2.311
REMARK  9 active torsions:
REMARK  status: ('A' for Active; 'I' for Inactive)
REMARK    1  A    between atoms: N1_2  and  C2_3 
REMARK    2  A    between atoms: C2_3  and  C3_4 
REMARK    3  A    between atoms: C3_4  and  C4_5 
REMARK       I    between atoms: C4_5  and  N2_7 
REMARK    4  A    between atoms: N2_7  and  C5_8 
REMARK    5  A    between atoms: C8_11  and  N3_12 
REMARK    6  A    between atoms: C9_13  and  C10_14 
REMARK    7  A    between atoms: C12_17  and  C13_18 
REMARK    8  A    between atoms: C13_18  and  C14_19 
REMARK    9  A    between atoms: C14_19  and  C15_20 
ROOT
HETATM    1  C10 UNL     1      20.775  -0.099  53.237  1.00  0.00     0.170 C 
HETATM    2  C11 UNL     1      21.443  -0.979  54.222  1.00  0.00     0.064 C 
HETATM    3  N4  UNL     1      21.967  -1.668  54.988  1.00  0.00    -0.197 NA
ENDROOT
BRANCH   1   4
HETATM    4  C9  UNL     1      21.812   0.413  52.309  1.00  0.00     0.104 C 
HETATM    5  N3  UNL     1      22.287   1.605  52.427  1.00  0.00    -0.264 NA
BRANCH   5   6
HETATM    6  C8  UNL     1      23.280   2.130  51.557  1.00  0.00     0.062 A 
HETATM    7  C7  UNL     1      23.072   2.592  50.277  1.00  0.00     0.034 A 
HETATM    8  C6  UNL     1      24.139   3.077  49.558  1.00  0.00     0.032 A 
HETATM    9  C5  UNL     1      25.430   3.144  50.011  1.00  0.00     0.035 A 
HETATM   10  C21 UNL     1      25.592   2.679  51.279  1.00  0.00     0.039 A 
HETATM   11  C12 UNL     1      24.554   2.182  52.042  1.00  0.00    -0.027 A 
BRANCH   9  12
HETATM   12  N2  UNL     1      26.565   3.619  49.318  1.00  0.00    -0.327 N 
HETATM   13  C4  UNL     1      26.923   4.961  49.062  1.00  0.00     0.223 C 
HETATM   14  O1  UNL     1      26.208   5.912  49.461  1.00  0.00    -0.273 OA
HETATM   15  H9  UNL     1      27.247   2.960  48.930  1.00  0.00     0.169 HD
BRANCH  13  16
HETATM   16  C3  UNL     1      28.142   5.340  48.320  1.00  0.00     0.133 C 
BRANCH  16  17
HETATM   17  C2  UNL     1      28.400   6.799  48.292  1.00  0.00     0.278 C 
BRANCH  17  18
HETATM   18  N1  UNL     1      29.663   7.191  48.846  1.00  0.00     0.079 N 
HETATM   19  C1  UNL     1      29.787   8.616  49.043  1.00  0.00     0.306 C 
HETATM   20  H4  UNL     1      29.980   6.635  49.645  1.00  0.00     0.315 HD
ENDBRANCH  17  18
ENDBRANCH  16  17
ENDBRANCH  13  16
ENDBRANCH   9  12
BRANCH  11  21
HETATM   21  C13 UNL     1      24.919   1.692  53.418  1.00  0.00     0.045 C 
BRANCH  21  22
HETATM   22  C14 UNL     1      25.171   0.191  53.374  1.00  0.00     0.043 C 
BRANCH  22  23
HETATM   23  C15 UNL     1      26.623  -0.111  53.421  1.00  0.00    -0.056 A 
HETATM   24  C16 UNL     1      27.243  -1.262  52.993  1.00  0.00     0.010 A 
HETATM   25  C17 UNL     1      28.612  -1.352  53.123  1.00  0.00     0.044 A 
HETATM   26  C18 UNL     1      29.399  -0.358  53.655  1.00  0.00     0.138 A 
HETATM   27  F1  UNL     1      30.744  -0.523  53.748  1.00  0.00    -0.204 F 
HETATM   28  C19 UNL     1      28.794   0.792  54.085  1.00  0.00     0.073 A 
HETATM   29 CL1  UNL     1      29.740   2.086  54.769  1.00  0.00    -0.081 Cl
HETATM   30  C20 UNL     1      27.427   0.897  53.963  1.00  0.00     0.034 A 
ENDBRANCH  22  23
ENDBRANCH  21  22
ENDBRANCH  11  21
ENDBRANCH   5   6
ENDBRANCH   1   4
TORSDOF 9
ENDMDL
MODEL 3
REMARK VINA RESULT:      -7.8      3.767      7.483
REMARK  9 active torsions:
REMARK  status: ('A' for Active; 'I' for Inactive)
REMARK    1  A    between atoms: N1_2  and  C2_3 
REMARK    2  A    between atoms: C2_3  and  C3_4 
REMARK    3  A    between atoms: C3_4  and  C4_5 
REMARK       I    between atoms: C4_5  and  N2_7 
REMARK    4  A    between atoms: N2_7  and  C5_8 
REMARK    5  A    between atoms: C8_11  and  N3_12 
REMARK    6  A    between atoms: C9_13  and  C10_14 
REMARK    7  A    between atoms: C12_17  and  C13_18 
REMARK    8  A    between atoms: C13_18  and  C14_19 
REMARK    9  A    between atoms: C14_19  and  C15_20 
ROOT
HETATM    1  C10 UNL     1      28.774  -0.041  53.752  1.00  0.00     0.170 C 
HETATM    2  C11 UNL     1      28.910   1.419  53.955  1.00  0.00     0.064 C 
HETATM    3  N4  UNL     1      29.014   2.560  54.110  1.00  0.00    -0.197 NA
ENDROOT
BRANCH   1   4
HETATM    4  C9  UNL     1      27.365  -0.318  53.383  1.00  0.00     0.104 C 
HETATM    5  N3  UNL     1      26.420   0.506  53.681  1.00  0.00    -0.264 NA
BRANCH   5   6
HETATM    6  C8  UNL     1      25.060   0.275  53.345  1.00  0.00     0.062 A 
HETATM    7  C7  UNL     1      24.255  -0.715  53.862  1.00  0.00     0.034 A 
HETATM    8  C6  UNL     1      22.950  -0.809  53.438  1.00  0.00     0.032 A 
HETATM    9  C5  UNL     1      22.358   0.017  52.519  1.00  0.00     0.035 A 
HETATM   10  C21 UNL     1      23.186   0.981  52.034  1.00  0.00     0.039 A 
HETATM   11  C12 UNL     1      24.503   1.117  52.427  1.00  0.00    -0.027 A 
BRANCH   9  12
HETATM   12  N2  UNL     1      21.032  -0.037  52.038  1.00  0.00    -0.327 N 
HETATM   13  C4  UNL     1      19.838   0.141  52.771  1.00  0.00     0.223 C 
HETATM   14  O1  UNL     1      19.861   0.379  54.003  1.00  0.00    -0.273 OA
HETATM   15  H9  UNL     1      20.848  -0.224  51.047  1.00  0.00     0.169 HD
BRANCH  13  16
HETATM   16  C3  UNL     1      18.498   0.060  52.156  1.00  0.00     0.133 C 
BRANCH  16  17
HETATM   17  C2  UNL     1      17.556  -0.826  52.882  1.00  0.00     0.278 C 
BRANCH  17  18
HETATM   18  N1  UNL     1      18.185  -1.839  53.677  1.00  0.00     0.079 N 
HETATM   19  C1  UNL     1      17.567  -3.138  53.546  1.00  0.00     0.306 C 
HETATM   20  H4  UNL     1      19.206  -1.862  53.626  1.00  0.00     0.315 HD
ENDBRANCH  17  18
ENDBRANCH  16  17
ENDBRANCH  13  16
ENDBRANCH   9  12
BRANCH  11  21
HETATM   21  C13 UNL     1      25.278   2.229  51.771  1.00  0.00     0.045 C 
BRANCH  21  22
HETATM   22  C14 UNL     1      24.744   2.462  50.364  1.00  0.00     0.043 C 
BRANCH  22  23
HETATM   23  C15 UNL     1      25.170   3.783  49.840  1.00  0.00    -0.056 A 
HETATM   24  C16 UNL     1      24.407   4.924  49.753  1.00  0.00     0.010 A 
HETATM   25  C17 UNL     1      24.990   6.059  49.232  1.00  0.00     0.044 A 
HETATM   26  C18 UNL     1      26.291   6.121  48.794  1.00  0.00     0.138 A 
HETATM   27  F1  UNL     1      26.793   7.280  48.293  1.00  0.00    -0.204 F 
HETATM   28  C19 UNL     1      27.060   4.993  48.875  1.00  0.00     0.073 A 
HETATM   29 CL1  UNL     1      28.718   5.011  48.334  1.00  0.00    -0.081 Cl
HETATM   30  C20 UNL     1      26.494   3.850  49.392  1.00  0.00     0.034 A 
ENDBRANCH  22  23
ENDBRANCH  21  22
ENDBRANCH  11  21
ENDBRANCH   5   6
ENDBRANCH   1   4
TORSDOF 9
ENDMDL
MODEL 4
REMARK VINA RESULT:      -7.8      0.884      1.411
REMARK  9 active torsions:
REMARK  status: ('A' for Active; 'I' for Inactive)
REMARK    1  A    between atoms: N1_2  and  C2_3 
REMARK    2  A    between atoms: C2_3  and  C3_4 
REMARK    3  A    between atoms: C3_4  and  C4_5 
REMARK       I    between atoms: C4_5  and  N2_7 
REMARK    4  A    between atoms: N2_7  and  C5_8 
REMARK    5  A    between atoms: C8_11  and  N3_12 
REMARK    6  A    between atoms: C9_13  and  C10_14 
REMARK    7  A    between atoms: C12_17  and  C13_18 
REMARK    8  A    between atoms: C13_18  and  C14_19 
REMARK    9  A    between atoms: C14_19  and  C15_20 
ROOT
HETATM    1  C10 UNL     1      20.756  -0.782  54.006  1.00  0.00     0.170 C 
HETATM    2  C11 UNL     1      21.851  -1.240  54.891  1.00  0.00     0.064 C 
HETATM    3  N4  UNL     1      22.708  -1.597  55.578  1.00  0.00    -0.197 NA
ENDROOT
BRANCH   1   4
HETATM    4  C9  UNL     1      21.297   0.283  53.128  1.00  0.00     0.104 C 
HETATM    5  N3  UNL     1      22.263   0.047  52.308  1.00  0.00    -0.264 NA
BRANCH   5   6
HETATM    6  C8  UNL     1      22.808   1.040  51.451  1.00  0.00     0.062 A 
HETATM    7  C7  UNL     1      22.228   1.524  50.300  1.00  0.00     0.034 A 
HETATM    8  C6  UNL     1      22.881   2.494  49.576  1.00  0.00     0.032 A 
HETATM    9  C5  UNL     1      24.094   3.039  49.903  1.00  0.00     0.035 A 
HETATM   10  C21 UNL     1      24.633   2.535  51.046  1.00  0.00     0.039 A 
HETATM   11  C12 UNL     1      24.017   1.561  51.808  1.00  0.00    -0.027 A 
BRANCH   9  12
HETATM   12  N2  UNL     1      24.816   4.025  49.197  1.00  0.00    -0.327 N 
HETATM   13  C4  UNL     1      24.965   5.391  49.525  1.00  0.00     0.223 C 
HETATM   14  O1  UNL     1      24.426   5.875  50.550  1.00  0.00    -0.273 OA
HETATM   15  H9  UNL     1      25.314   3.783  48.334  1.00  0.00     0.169 HD
BRANCH  13  16
HETATM   16  C3  UNL     1      25.749   6.334  48.704  1.00  0.00     0.133 C 
BRANCH  16  17
HETATM   17  C2  UNL     1      24.920   7.274  47.912  1.00  0.00     0.278 C 
BRANCH  17  18
HETATM   18  N1  UNL     1      23.508   7.148  48.125  1.00  0.00     0.079 N 
HETATM   19  C1  UNL     1      22.797   6.634  46.978  1.00  0.00     0.306 C 
HETATM   20  H4  UNL     1      23.238   6.707  49.008  1.00  0.00     0.315 HD
ENDBRANCH  17  18
ENDBRANCH  16  17
ENDBRANCH  13  16
ENDBRANCH   9  12
BRANCH  11  21
HETATM   21  C13 UNL     1      24.767   1.107  53.032  1.00  0.00     0.045 C 
BRANCH  21  22
HETATM   22  C14 UNL     1      25.947   2.037  53.282  1.00  0.00     0.043 C 
BRANCH  22  23
HETATM   23  C15 UNL     1      27.208   1.273  53.446  1.00  0.00    -0.056 A 
HETATM   24  C16 UNL     1      28.422   1.761  53.869  1.00  0.00     0.010 A 
HETATM   25  C17 UNL     1      29.482   0.885  53.956  1.00  0.00     0.044 A 
HETATM   26  C18 UNL     1      29.400  -0.452  53.645  1.00  0.00     0.138 A 
HETATM   27  F1  UNL     1      30.492  -1.252  53.757  1.00  0.00    -0.204 F 
HETATM   28  C19 UNL     1      28.198  -0.949  53.222  1.00  0.00     0.073 A 
HETATM   29 CL1  UNL     1      28.033  -2.636  52.813  1.00  0.00    -0.081 Cl
HETATM   30  C20 UNL     1      27.128  -0.088  53.129  1.00  0.00     0.034 A 
ENDBRANCH  22  23
ENDBRANCH  21  22
ENDBRANCH  11  21
ENDBRANCH   5   6
ENDBRANCH   1   4
TORSDOF 9
ENDMDL
MODEL 5
REMARK VINA RESULT:      -7.6      1.799      2.319
REMARK  9 active torsions:
REMARK  status: ('A' for Active; 'I' for Inactive)
REMARK    1  A    between atoms: N1_2  and  C2_3 
REMARK    2  A    between atoms: C2_3  and  C3_4 
REMARK    3  A    between atoms: C3_4  and  C4_5 
REMARK       I    between atoms: C4_5  and  N2_7 
REMARK    4  A    between atoms: N2_7  and  C5_8 
REMARK    5  A    between atoms: C8_11  and  N3_12 
REMARK    6  A    between atoms: C9_13  and  C10_14 
REMARK    7  A    between atoms: C12_17  and  C13_18 
REMARK    8  A    between atoms: C13_18  and  C14_19 
REMARK    9  A    between atoms: C14_19  and  C15_20 
ROOT
HETATM    1  C10 UNL     1      19.799  -0.250  52.149  1.00  0.00     0.170 C 
HETATM    2  C11 UNL     1      18.358   0.025  51.955  1.00  0.00     0.064 C 
HETATM    3  N4  UNL     1      17.233   0.243  51.804  1.00  0.00    -0.197 NA
ENDROOT
BRANCH   1   4
HETATM    4  C9  UNL     1      20.560   0.863  51.532  1.00  0.00     0.104 C 
HETATM    5  N3  UNL     1      21.785   0.713  51.161  1.00  0.00    -0.264 NA
BRANCH   5   6
HETATM    6  C8  UNL     1      22.546   1.755  50.568  1.00  0.00     0.062 A 
HETATM    7  C7  UNL     1      22.243   2.412  49.396  1.00  0.00     0.034 A 
HETATM    8  C6  UNL     1      23.080   3.407  48.950  1.00  0.00     0.032 A 
HETATM    9  C5  UNL     1      24.224   3.818  49.582  1.00  0.00     0.035 A 
HETATM   10  C21 UNL     1      24.487   3.145  50.735  1.00  0.00     0.039 A 
HETATM   11  C12 UNL     1      23.678   2.138  51.225  1.00  0.00    -0.027 A 
BRANCH   9  12
HETATM   12  N2  UNL     1      25.126   4.822  49.169  1.00  0.00    -0.327 N 
HETATM   13  C4  UNL     1      26.529   4.725  49.041  1.00  0.00     0.223 C 
HETATM   14  O1  UNL     1      27.133   3.657  49.306  1.00  0.00    -0.273 OA
HETATM   15  H9  UNL     1      24.783   5.755  48.917  1.00  0.00     0.169 HD
BRANCH  13  16
HETATM   16  C3  UNL     1      27.376   5.851  48.599  1.00  0.00     0.133 C 
BRANCH  16  17
HETATM   17  C2  UNL     1      28.748   5.452  48.203  1.00  0.00     0.278 C 
BRANCH  17  18
HETATM   18  N1  UNL     1      29.765   5.791  49.155  1.00  0.00     0.079 N 
HETATM   19  C1  UNL     1      30.965   6.319  48.551  1.00  0.00     0.306 C 
HETATM   20  H4  UNL     1      29.442   6.326  49.966  1.00  0.00     0.315 HD
ENDBRANCH  17  18
ENDBRANCH  16  17
ENDBRANCH  13  16
ENDBRANCH   9  12
BRANCH  11  21
HETATM   21  C13 UNL     1      24.132   1.489  52.505  1.00  0.00     0.045 C 
BRANCH  21  22
HETATM   22  C14 UNL     1      25.240   2.323  53.135  1.00  0.00     0.043 C 
BRANCH  22  23
HETATM   23  C15 UNL     1      26.508   1.556  53.219  1.00  0.00    -0.056 A 
HETATM   24  C16 UNL     1      27.752   2.047  53.540  1.00  0.00     0.010 A 
HETATM   25  C17 UNL     1      28.813   1.168  53.566  1.00  0.00     0.044 A 
HETATM   26  C18 UNL     1      28.703  -0.174  53.288  1.00  0.00     0.138 A 
HETATM   27  F1  UNL     1      29.798  -0.976  53.335  1.00  0.00    -0.204 F 
HETATM   28  C19 UNL     1      27.471  -0.674  52.967  1.00  0.00     0.073 A 
HETATM   29 CL1  UNL     1      27.271  -2.368  52.605  1.00  0.00    -0.081 Cl
HETATM   30  C20 UNL     1      26.400   0.190  52.937  1.00  0.00     0.034 A 
ENDBRANCH  22  23
ENDBRANCH  21  22
ENDBRANCH  11  21
ENDBRANCH   5   6
ENDBRANCH   1   4
TORSDOF 9
ENDMDL
MODEL 6
REMARK VINA RESULT:      -7.6      3.536      6.409
REMARK  9 active torsions:
REMARK  status: ('A' for Active; 'I' for Inactive)
REMARK    1  A    between atoms: N1_2  and  C2_3 
REMARK    2  A    between atoms: C2_3  and  C3_4 
REMARK    3  A    between atoms: C3_4  and  C4_5 
REMARK       I    between atoms: C4_5  and  N2_7 
REMARK    4  A    between atoms: N2_7  and  C5_8 
REMARK    5  A    between atoms: C8_11  and  N3_12 
REMARK    6  A    between atoms: C9_13  and  C10_14 
REMARK    7  A    between atoms: C12_17  and  C13_18 
REMARK    8  A    between atoms: C13_18  and  C14_19 
REMARK    9  A    between atoms: C14_19  and  C15_20 
ROOT
HETATM    1  C10 UNL     1      22.933   7.767  50.454  1.00  0.00     0.170 C 
HETATM    2  C11 UNL     1      22.437   6.492  51.019  1.00  0.00     0.064 C 
HETATM    3  N4  UNL     1      22.052   5.494  51.458  1.00  0.00    -0.197 NA
ENDROOT
BRANCH   1   4
HETATM    4  C9  UNL     1      24.351   7.571  50.068  1.00  0.00     0.104 C 
HETATM    5  N3  UNL     1      24.704   6.616  49.279  1.00  0.00    -0.264 NA
BRANCH   5   6
HETATM    6  C8  UNL     1      26.052   6.396  48.887  1.00  0.00     0.062 A 
HETATM    7  C7  UNL     1      26.916   7.347  48.390  1.00  0.00     0.034 A 
HETATM    8  C6  UNL     1      28.198   6.979  48.058  1.00  0.00     0.032 A 
HETATM    9  C5  UNL     1      28.712   5.715  48.178  1.00  0.00     0.035 A 
HETATM   10  C21 UNL     1      27.828   4.807  48.672  1.00  0.00     0.039 A 
HETATM   11  C12 UNL     1      26.530   5.126  49.021  1.00  0.00    -0.027 A 
BRANCH   9  12
HETATM   12  N2  UNL     1      30.012   5.276  47.843  1.00  0.00    -0.327 N 
HETATM   13  C4  UNL     1      31.237   5.684  48.415  1.00  0.00     0.223 C 
HETATM   14  O1  UNL     1      31.272   6.536  49.337  1.00  0.00    -0.273 OA
HETATM   15  H9  UNL     1      30.148   4.578  47.105  1.00  0.00     0.169 HD
BRANCH  13  16
HETATM   16  C3  UNL     1      32.544   5.154  47.980  1.00  0.00     0.133 C 
BRANCH  16  17
HETATM   17  C2  UNL     1      33.692   5.661  48.769  1.00  0.00     0.278 C 
BRANCH  17  18
HETATM   18  N1  UNL     1      34.872   4.852  48.691  1.00  0.00     0.079 N 
HETATM   19  C1  UNL     1      34.665   3.597  48.006  1.00  0.00     0.306 C 
HETATM   20  H4  UNL     1      35.721   5.344  48.399  1.00  0.00     0.315 HD
ENDBRANCH  17  18
ENDBRANCH  16  17
ENDBRANCH  13  16
ENDBRANCH   9  12
BRANCH  11  21
HETATM   21  C13 UNL     1      25.685   3.990  49.534  1.00  0.00     0.045 C 
BRANCH  21  22
HETATM   22  C14 UNL     1      26.577   2.954  50.204  1.00  0.00     0.043 C 
BRANCH  22  23
HETATM   23  C15 UNL     1      25.826   2.180  51.224  1.00  0.00    -0.056 A 
HETATM   24  C16 UNL     1      24.617   2.511  51.790  1.00  0.00     0.010 A 
HETATM   25  C17 UNL     1      24.079   1.655  52.726  1.00  0.00     0.044 A 
HETATM   26  C18 UNL     1      24.679   0.487  53.132  1.00  0.00     0.138 A 
HETATM   27  F1  UNL     1      24.084  -0.304  54.062  1.00  0.00    -0.204 F 
HETATM   28  C19 UNL     1      25.883   0.147  52.578  1.00  0.00     0.073 A 
HETATM   29 CL1  UNL     1      26.692  -1.322  53.053  1.00  0.00    -0.081 Cl
HETATM   30  C20 UNL     1      26.435   0.991  51.640  1.00  0.00     0.034 A 
ENDBRANCH  22  23
ENDBRANCH  21  22
ENDBRANCH  11  21
ENDBRANCH   5   6
ENDBRANCH   1   4
TORSDOF 9
ENDMDL
MODEL 7
REMARK VINA RESULT:      -7.4      3.029      4.400
REMARK  9 active torsions:
REMARK  status: ('A' for Active; 'I' for Inactive)
REMARK    1  A    between atoms: N1_2  and  C2_3 
REMARK    2  A    between atoms: C2_3  and  C3_4 
REMARK    3  A    between atoms: C3_4  and  C4_5 
REMARK       I    between atoms: C4_5  and  N2_7 
REMARK    4  A    between atoms: N2_7  and  C5_8 
REMARK    5  A    between atoms: C8_11  and  N3_12 
REMARK    6  A    between atoms: C9_13  and  C10_14 
REMARK    7  A    between atoms: C12_17  and  C13_18 
REMARK    8  A    between atoms: C13_18  and  C14_19 
REMARK    9  A    between atoms: C14_19  and  C15_20 
ROOT
HETATM    1  C10 UNL     1      20.282   2.955  50.765  1.00  0.00     0.170 C 
HETATM    2  C11 UNL     1      19.021   3.362  51.425  1.00  0.00     0.064 C 
HETATM    3  N4  UNL     1      18.039   3.682  51.942  1.00  0.00    -0.197 NA
ENDROOT
BRANCH   1   4
HETATM    4  C9  UNL     1      21.264   4.051  50.947  1.00  0.00     0.104 C 
HETATM    5  N3  UNL     1      22.274   4.183  50.158  1.00  0.00    -0.264 NA
BRANCH   5   6
HETATM    6  C8  UNL     1      23.235   5.219  50.300  1.00  0.00     0.062 A 
HETATM    7  C7  UNL     1      22.982   6.506  50.720  1.00  0.00     0.034 A 
HETATM    8  C6  UNL     1      24.023   7.399  50.811  1.00  0.00     0.032 A 
HETATM    9  C5  UNL     1      25.331   7.119  50.513  1.00  0.00     0.035 A 
HETATM   10  C21 UNL     1      25.539   5.838  50.104  1.00  0.00     0.039 A 
HETATM   11  C12 UNL     1      24.527   4.904  49.996  1.00  0.00    -0.027 A 
BRANCH   9  12
HETATM   12  N2  UNL     1      26.437   7.993  50.576  1.00  0.00    -0.327 N 
HETATM   13  C4  UNL     1      27.014   8.736  49.522  1.00  0.00     0.223 C 
HETATM   14  O1  UNL     1      26.553   8.675  48.356  1.00  0.00    -0.273 OA
HETATM   15  H9  UNL     1      26.924   8.149  51.465  1.00  0.00     0.169 HD
BRANCH  13  16
HETATM   16  C3  UNL     1      28.179   9.623  49.708  1.00  0.00     0.133 C 
BRANCH  16  17
HETATM   17  C2  UNL     1      29.471   9.007  49.319  1.00  0.00     0.278 C 
BRANCH  17  18
HETATM   18  N1  UNL     1      29.363   7.678  48.795  1.00  0.00     0.079 N 
HETATM   19  C1  UNL     1      29.961   7.524  47.490  1.00  0.00     0.306 C 
HETATM   20  H4  UNL     1      29.607   6.930  49.450  1.00  0.00     0.315 HD
ENDBRANCH  17  18
ENDBRANCH  16  17
ENDBRANCH  13  16
ENDBRANCH   9  12
BRANCH  11  21
HETATM   21  C13 UNL     1      24.936   3.539  49.508  1.00  0.00     0.045 C 
BRANCH  21  22
HETATM   22  C14 UNL     1      26.119   3.039  50.327  1.00  0.00     0.043 C 
BRANCH  22  23
HETATM   23  C15 UNL     1      25.693   2.020  51.318  1.00  0.00    -0.056 A 
HETATM   24  C16 UNL     1      24.436   1.861  51.853  1.00  0.00     0.010 A 
HETATM   25  C17 UNL     1      24.240   0.847  52.766  1.00  0.00     0.044 A 
HETATM   26  C18 UNL     1      25.227  -0.017  53.176  1.00  0.00     0.138 A 
HETATM   27  F1  UNL     1      24.954  -0.993  54.081  1.00  0.00    -0.204 F 
HETATM   28  C19 UNL     1      26.482   0.131  52.651  1.00  0.00     0.073 A 
HETATM   29 CL1  UNL     1      27.774  -0.935  53.134  1.00  0.00    -0.081 Cl
HETATM   30  C20 UNL     1      26.696   1.139  51.738  1.00  0.00     0.034 A 
ENDBRANCH  22  23
ENDBRANCH  21  22
ENDBRANCH  11  21
ENDBRANCH   5   6
ENDBRANCH   1   4
TORSDOF 9
ENDMDL
MODEL 8
REMARK VINA RESULT:      -7.3      3.755      6.499
REMARK  9 active torsions:
REMARK  status: ('A' for Active; 'I' for Inactive)
REMARK    1  A    between atoms: N1_2  and  C2_3 
REMARK    2  A    between atoms: C2_3  and  C3_4 
REMARK    3  A    between atoms: C3_4  and  C4_5 
REMARK       I    between atoms: C4_5  and  N2_7 
REMARK    4  A    between atoms: N2_7  and  C5_8 
REMARK    5  A    between atoms: C8_11  and  N3_12 
REMARK    6  A    between atoms: C9_13  and  C10_14 
REMARK    7  A    between atoms: C12_17  and  C13_18 
REMARK    8  A    between atoms: C13_18  and  C14_19 
REMARK    9  A    between atoms: C14_19  and  C15_20 
ROOT
HETATM    1  C10 UNL     1      28.441  -0.105  54.534  1.00  0.00     0.170 C 
HETATM    2  C11 UNL     1      28.931   1.291  54.497  1.00  0.00     0.064 C 
HETATM    3  N4  UNL     1      29.311   2.382  54.466  1.00  0.00    -0.197 NA
ENDROOT
BRANCH   1   4
HETATM    4  C9  UNL     1      27.006  -0.093  54.161  1.00  0.00     0.104 C 
HETATM    5  N3  UNL     1      26.545   0.747  53.299  1.00  0.00    -0.264 NA
BRANCH   5   6
HETATM    6  C8  UNL     1      25.178   0.790  52.917  1.00  0.00     0.062 A 
HETATM    7  C7  UNL     1      24.169   0.006  53.431  1.00  0.00     0.034 A 
HETATM    8  C6  UNL     1      22.888   0.168  52.959  1.00  0.00     0.032 A 
HETATM    9  C5  UNL     1      22.510   1.065  51.995  1.00  0.00     0.035 A 
HETATM   10  C21 UNL     1      23.535   1.820  51.515  1.00  0.00     0.039 A 
HETATM   11  C12 UNL     1      24.838   1.695  51.955  1.00  0.00    -0.027 A 
BRANCH   9  12
HETATM   12  N2  UNL     1      21.218   1.269  51.464  1.00  0.00    -0.327 N 
HETATM   13  C4  UNL     1      20.216   2.144  51.939  1.00  0.00     0.223 C 
HETATM   14  O1  UNL     1      20.407   2.864  52.949  1.00  0.00    -0.273 OA
HETATM   15  H9  UNL     1      20.911   0.750  50.635  1.00  0.00     0.169 HD
BRANCH  13  16
HETATM   16  C3  UNL     1      18.891   2.272  51.299  1.00  0.00     0.133 C 
BRANCH  16  17
HETATM   17  C2  UNL     1      18.949   2.671  49.872  1.00  0.00     0.278 C 
BRANCH  17  18
HETATM   18  N1  UNL     1      19.339   4.032  49.650  1.00  0.00     0.079 N 
HETATM   19  C1  UNL     1      19.072   4.494  48.308  1.00  0.00     0.306 C 
HETATM   20  H4  UNL     1      19.053   4.692  50.377  1.00  0.00     0.315 HD
ENDBRANCH  17  18
ENDBRANCH  16  17
ENDBRANCH  13  16
ENDBRANCH   9  12
BRANCH  11  21
HETATM   21  C13 UNL     1      25.848   2.599  51.298  1.00  0.00     0.045 C 
BRANCH  21  22
HETATM   22  C14 UNL     1      25.428   2.873  49.860  1.00  0.00     0.043 C 
BRANCH  22  23
HETATM   23  C15 UNL     1      25.897   4.206  49.409  1.00  0.00    -0.056 A 
HETATM   24  C16 UNL     1      25.165   5.370  49.365  1.00  0.00     0.010 A 
HETATM   25  C17 UNL     1      25.785   6.514  48.911  1.00  0.00     0.044 A 
HETATM   26  C18 UNL     1      27.095   6.563  48.499  1.00  0.00     0.138 A 
HETATM   27  F1  UNL     1      27.635   7.732  48.065  1.00  0.00    -0.204 F 
HETATM   28  C19 UNL     1      27.834   5.412  48.538  1.00  0.00     0.073 A 
HETATM   29 CL1  UNL     1      29.501   5.414  48.027  1.00  0.00    -0.081 Cl
HETATM   30  C20 UNL     1      27.230   4.261  48.988  1.00  0.00     0.034 A 
ENDBRANCH  22  23
ENDBRANCH  21  22
ENDBRANCH  11  21
ENDBRANCH   5   6
ENDBRANCH   1   4
TORSDOF 9
ENDMDL
MODEL 9
REMARK VINA RESULT:      -7.2      3.886      6.463
REMARK  9 active torsions:
REMARK  status: ('A' for Active; 'I' for Inactive)
REMARK    1  A    between atoms: N1_2  and  C2_3 
REMARK    2  A    between atoms: C2_3  and  C3_4 
REMARK    3  A    between atoms: C3_4  and  C4_5 
REMARK       I    between atoms: C4_5  and  N2_7 
REMARK    4  A    between atoms: N2_7  and  C5_8 
REMARK    5  A    between atoms: C8_11  and  N3_12 
REMARK    6  A    between atoms: C9_13  and  C10_14 
REMARK    7  A    between atoms: C12_17  and  C13_18 
REMARK    8  A    between atoms: C13_18  and  C14_19 
REMARK    9  A    between atoms: C14_19  and  C15_20 
ROOT
HETATM    1  C10 UNL     1      18.937   0.695  51.540  1.00  0.00     0.170 C 
HETATM    2  C11 UNL     1      18.822   2.160  51.721  1.00  0.00     0.064 C 
HETATM    3  N4  UNL     1      18.735   3.303  51.865  1.00  0.00    -0.197 NA
ENDROOT
BRANCH   1   4
HETATM    4  C9  UNL     1      20.335   0.309  51.846  1.00  0.00     0.104 C 
HETATM    5  N3  UNL     1      21.084   1.041  52.597  1.00  0.00    -0.264 NA
BRANCH   5   6
HETATM    6  C8  UNL     1      22.427   0.705  52.912  1.00  0.00     0.062 A 
HETATM    7  C7  UNL     1      22.832  -0.293  53.769  1.00  0.00     0.034 A 
HETATM    8  C6  UNL     1      24.176  -0.501  53.969  1.00  0.00     0.032 A 
HETATM    9  C5  UNL     1      25.182   0.215  53.376  1.00  0.00     0.035 A 
HETATM   10  C21 UNL     1      24.741   1.190  52.537  1.00  0.00     0.039 A 
HETATM   11  C12 UNL     1      23.402   1.439  52.303  1.00  0.00    -0.027 A 
BRANCH   9  12
HETATM   12  N2  UNL     1      26.574   0.057  53.550  1.00  0.00    -0.327 N 
HETATM   13  C4  UNL     1      27.376  -1.039  53.159  1.00  0.00     0.223 C 
HETATM   14  O1  UNL     1      26.877  -2.035  52.580  1.00  0.00    -0.273 OA
HETATM   15  H9  UNL     1      27.125   0.789  54.009  1.00  0.00     0.169 HD
BRANCH  13  16
HETATM   16  C3  UNL     1      28.831  -1.095  53.397  1.00  0.00     0.133 C 
BRANCH  16  17
HETATM   17  C2  UNL     1      29.554   0.136  52.997  1.00  0.00     0.278 C 
BRANCH  17  18
HETATM   18  N1  UNL     1      29.817   1.048  54.071  1.00  0.00     0.079 N 
HETATM   19  C1  UNL     1      29.072   2.281  53.973  1.00  0.00     0.306 C 
HETATM   20  H4  UNL     1      29.807   0.634  55.007  1.00  0.00     0.315 HD
ENDBRANCH  17  18
ENDBRANCH  16  17
ENDBRANCH  13  16
ENDBRANCH   9  12
BRANCH  11  21
HETATM   21  C13 UNL     1      23.095   2.571  51.357  1.00  0.00     0.045 C 
BRANCH  21  22
HETATM   22  C14 UNL     1      23.737   3.852  51.871  1.00  0.00     0.043 C 
BRANCH  22  23
HETATM   23  C15 UNL     1      24.185   4.715  50.750  1.00  0.00    -0.056 A 
HETATM   24  C16 UNL     1      23.473   5.729  50.151  1.00  0.00     0.010 A 
HETATM   25  C17 UNL     1      24.068   6.419  49.117  1.00  0.00     0.044 A 
HETATM   26  C18 UNL     1      25.332   6.156  48.646  1.00  0.00     0.138 A 
HETATM   27  F1  UNL     1      25.849   6.883  47.621  1.00  0.00    -0.204 F 
HETATM   28  C19 UNL     1      26.050   5.150  49.233  1.00  0.00     0.073 A 
HETATM   29 CL1  UNL     1      27.658   4.770  48.679  1.00  0.00    -0.081 Cl
HETATM   30  C20 UNL     1      25.471   4.450  50.267  1.00  0.00     0.034 A 
ENDBRANCH  22  23
ENDBRANCH  21  22
ENDBRANCH  11  21
ENDBRANCH   5   6
ENDBRANCH   1   4
TORSDOF 9
ENDMDL
