MODEL 1
REMARK VINA RESULT:      -6.7      0.000      0.000
REMARK  9 active torsions:
REMARK  status: ('A' for Active; 'I' for Inactive)
REMARK    1  A    between atoms: C2_2  and  C3_3 
REMARK    2  A    between atoms: C2_2  and  C6_8 
REMARK    3  A    between atoms: C4_4  and  N1_5 
REMARK    4  A    between atoms: N1_5  and  C5_6 
REMARK    5  A    between atoms: C11_15  and  N4_16 
REMARK    6  A    between atoms: N4_16  and  C12_17 
REMARK    7  A    between atoms: C12_17  and  C13_18 
REMARK    8  A    between atoms: C14_19  and  C15_20 
REMARK    9  A    between atoms: N5_21  and  C16_22 
ROOT
HETATM    1  C6  UNL     1      24.773   0.778  52.371  1.00  0.00     0.057 A 
HETATM    2  C7  UNL     1      24.265  -0.165  53.227  1.00  0.00     0.125 A 
HETATM    3  N2  UNL     1      23.028  -0.201  53.738  1.00  0.00    -0.311 N 
HETATM    4  C8  UNL     1      22.472  -1.090  54.573  1.00  0.00     0.117 A 
HETATM    5  C9  UNL     1      21.197  -0.605  54.741  1.00  0.00     0.136 A 
HETATM    6  N3  UNL     1      21.044   0.510  54.026  1.00  0.00    -0.238 NA
HETATM    7  C10 UNL     1      22.195   0.816  53.361  1.00  0.00     0.179 A 
HETATM    8  C11 UNL     1      22.685   1.806  52.481  1.00  0.00     0.171 A 
HETATM    9  N6  UNL     1      23.938   1.764  52.017  1.00  0.00    -0.231 NA
ENDROOT
BRANCH   8  10
HETATM   10  N4  UNL     1      21.614   2.697  52.282  1.00  0.00    -0.368 N 
HETATM   11  H10 UNL     1      22.211   3.415  51.746  1.00  0.00     0.161 HD
BRANCH  10  12
HETATM   12  C12 UNL     1      20.549   3.582  52.083  1.00  0.00     0.148 C 
BRANCH  12  13
HETATM   13  C13 UNL     1      20.611   4.203  50.698  1.00  0.00    -0.006 C 
HETATM   14  C14 UNL     1      21.197   5.309  50.314  1.00  0.00     0.017 C 
BRANCH  14  15
HETATM   15  C15 UNL     1      21.951   6.242  51.126  1.00  0.00     0.115 C 
HETATM   16  N5  UNL     1      23.234   6.470  51.011  1.00  0.00    -0.276 NA
BRANCH  16  17
HETATM   17  C16 UNL     1      23.972   5.749  50.006  1.00  0.00     0.106 C 
HETATM   18  C17 UNL     1      24.933   4.970  50.528  1.00  0.00     0.225 C 
HETATM   19 BR1  UNL     1      26.097   3.876  49.478  1.00  0.00    -0.192 Br
ENDBRANCH  16  17
ENDBRANCH  14  15
ENDBRANCH  12  13
ENDBRANCH  10  12
ENDBRANCH   8  10
BRANCH   1  20
HETATM   20  C2  UNL     1      26.144   0.816  51.806  1.00  0.00     0.042 C 
HETATM   21  C1  UNL     1      26.846  -0.507  52.064  1.00  0.00     0.017 C 
BRANCH  20  22
HETATM   22  C3  UNL     1      26.978   1.837  52.541  1.00  0.00     0.029 C 
HETATM   23  C4  UNL     1      27.837   2.333  53.389  1.00  0.00     0.142 C 
BRANCH  23  24
HETATM   24  N1  UNL     1      28.739   1.991  54.422  1.00  0.00    -0.240 NA
BRANCH  24  25
HETATM   25  C5  UNL     1      28.956   0.761  54.691  1.00  0.00     0.332 C 
HETATM   26  O1  UNL     1      28.656  -0.397  55.029  1.00  0.00    -0.260 OA
ENDBRANCH  24  25
ENDBRANCH  23  24
ENDBRANCH  20  22
ENDBRANCH   1  20
TORSDOF 9
ENDMDL
MODEL 2
REMARK VINA RESULT:      -6.7      3.363      4.701
REMARK  9 active torsions:
REMARK  status: ('A' for Active; 'I' for Inactive)
REMARK    1  A    between atoms: C2_2  and  C3_3 
REMARK    2  A    between atoms: C2_2  and  C6_8 
REMARK    3  A    between atoms: C4_4  and  N1_5 
REMARK    4  A    between atoms: N1_5  and  C5_6 
REMARK    5  A    between atoms: C11_15  and  N4_16 
REMARK    6  A    between atoms: N4_16  and  C12_17 
REMARK    7  A    between atoms: C12_17  and  C13_18 
REMARK    8  A    between atoms: C14_19  and  C15_20 
REMARK    9  A    between atoms: N5_21  and  C16_22 
ROOT
HETATM    1  C6  UNL     1      27.332   1.058  53.865  1.00  0.00     0.057 A 
HETATM    2  C7  UNL     1      26.120   0.438  54.035  1.00  0.00     0.125 A 
HETATM    3  N2  UNL     1      25.004   0.652  53.327  1.00  0.00    -0.311 N 
HETATM    4  C8  UNL     1      23.796   0.084  53.441  1.00  0.00     0.117 A 
HETATM    5  C9  UNL     1      23.066   0.702  52.454  1.00  0.00     0.136 A 
HETATM    6  N3  UNL     1      23.835   1.581  51.812  1.00  0.00    -0.238 NA
HETATM    7  C10 UNL     1      25.095   1.589  52.335  1.00  0.00     0.179 A 
HETATM    8  C11 UNL     1      26.328   2.248  52.132  1.00  0.00     0.171 A 
HETATM    9  N6  UNL     1      27.394   1.971  52.887  1.00  0.00    -0.231 NA
ENDROOT
BRANCH   8  10
HETATM   10  N4  UNL     1      26.109   3.135  51.060  1.00  0.00    -0.368 N 
HETATM   11  H10 UNL     1      26.998   3.710  51.256  1.00  0.00     0.161 HD
BRANCH  10  12
HETATM   12  C12 UNL     1      25.892   4.015  49.995  1.00  0.00     0.148 C 
BRANCH  12  13
HETATM   13  C13 UNL     1      27.144   4.156  49.145  1.00  0.00    -0.006 C 
HETATM   14  C14 UNL     1      27.614   5.216  48.537  1.00  0.00     0.017 C 
BRANCH  14  15
HETATM   15  C15 UNL     1      27.052   6.550  48.518  1.00  0.00     0.115 C 
HETATM   16  N5  UNL     1      27.580   7.578  47.902  1.00  0.00    -0.276 NA
BRANCH  16  17
HETATM   17  C16 UNL     1      28.814   7.387  47.184  1.00  0.00     0.106 C 
HETATM   18  C17 UNL     1      28.956   8.245  46.160  1.00  0.00     0.225 C 
HETATM   19 BR1  UNL     1      30.475   8.269  45.001  1.00  0.00    -0.192 Br
ENDBRANCH  16  17
ENDBRANCH  14  15
ENDBRANCH  12  13
ENDBRANCH  10  12
ENDBRANCH   8  10
BRANCH   1  20
HETATM   20  C2  UNL     1      28.567   0.820  54.650  1.00  0.00     0.042 C 
HETATM   21  C1  UNL     1      29.522   1.990  54.478  1.00  0.00     0.017 C 
BRANCH  20  22
HETATM   22  C3  UNL     1      29.315  -0.366  54.090  1.00  0.00     0.029 C 
HETATM   23  C4  UNL     1      29.527  -1.543  53.568  1.00  0.00     0.142 C 
BRANCH  23  24
HETATM   24  N1  UNL     1      28.881  -2.712  53.102  1.00  0.00    -0.240 NA
BRANCH  24  25
HETATM   25  C5  UNL     1      27.665  -2.650  52.716  1.00  0.00     0.332 C 
HETATM   26  O1  UNL     1      26.730  -2.697  51.898  1.00  0.00    -0.260 OA
ENDBRANCH  24  25
ENDBRANCH  23  24
ENDBRANCH  20  22
ENDBRANCH   1  20
TORSDOF 9
ENDMDL
MODEL 3
REMARK VINA RESULT:      -6.7      2.699      5.712
REMARK  9 active torsions:
REMARK  status: ('A' for Active; 'I' for Inactive)
REMARK    1  A    between atoms: C2_2  and  C3_3 
REMARK    2  A    between atoms: C2_2  and  C6_8 
REMARK    3  A    between atoms: C4_4  and  N1_5 
REMARK    4  A    between atoms: N1_5  and  C5_6 
REMARK    5  A    between atoms: C11_15  and  N4_16 
REMARK    6  A    between atoms: N4_16  and  C12_17 
REMARK    7  A    between atoms: C12_17  and  C13_18 
REMARK    8  A    between atoms: C14_19  and  C15_20 
REMARK    9  A    between atoms: N5_21  and  C16_22 
ROOT
HETATM    1  C6  UNL     1      25.347   1.899  51.782  1.00  0.00     0.057 A 
HETATM    2  C7  UNL     1      26.652   1.773  52.185  1.00  0.00     0.125 A 
HETATM    3  N2  UNL     1      27.111   1.017  53.190  1.00  0.00    -0.311 N 
HETATM    4  C8  UNL     1      28.365   0.850  53.632  1.00  0.00     0.117 A 
HETATM    5  C9  UNL     1      28.214  -0.031  54.676  1.00  0.00     0.136 A 
HETATM    6  N3  UNL     1      26.926  -0.346  54.813  1.00  0.00    -0.238 NA
HETATM    7  C10 UNL     1      26.171   0.302  53.880  1.00  0.00     0.179 A 
HETATM    8  C11 UNL     1      24.816   0.409  53.493  1.00  0.00     0.171 A 
HETATM    9  N6  UNL     1      24.445   1.189  52.474  1.00  0.00    -0.231 NA
ENDROOT
BRANCH   8  10
HETATM   10  N4  UNL     1      24.106  -0.430  54.373  1.00  0.00    -0.368 N 
HETATM   11  H10 UNL     1      23.477  -0.835  53.599  1.00  0.00     0.161 HD
BRANCH  10  12
HETATM   12  C12 UNL     1      23.401  -1.263  55.247  1.00  0.00     0.148 C 
BRANCH  12  13
HETATM   13  C13 UNL     1      22.137  -1.793  54.590  1.00  0.00    -0.006 C 
HETATM   14  C14 UNL     1      21.072  -1.139  54.202  1.00  0.00     0.017 C 
BRANCH  14  15
HETATM   15  C15 UNL     1      20.819   0.284  54.300  1.00  0.00     0.115 C 
HETATM   16  N5  UNL     1      20.738   1.104  53.282  1.00  0.00    -0.276 NA
BRANCH  16  17
HETATM   17  C16 UNL     1      20.911   0.569  51.956  1.00  0.00     0.106 C 
HETATM   18  C17 UNL     1      21.129   1.524  51.037  1.00  0.00     0.225 C 
HETATM   19 BR1  UNL     1      21.401   1.165  49.180  1.00  0.00    -0.192 Br
ENDBRANCH  16  17
ENDBRANCH  14  15
ENDBRANCH  12  13
ENDBRANCH  10  12
ENDBRANCH   8  10
BRANCH   1  20
HETATM   20  C2  UNL     1      24.840   2.736  50.669  1.00  0.00     0.042 C 
HETATM   21  C1  UNL     1      26.002   3.410  49.958  1.00  0.00     0.017 C 
BRANCH  20  22
HETATM   22  C3  UNL     1      24.016   3.878  51.213  1.00  0.00     0.029 C 
HETATM   23  C4  UNL     1      23.659   5.100  51.503  1.00  0.00     0.142 C 
BRANCH  23  24
HETATM   24  N1  UNL     1      24.047   6.454  51.385  1.00  0.00    -0.240 NA
BRANCH  24  25
HETATM   25  C5  UNL     1      24.935   6.785  50.529  1.00  0.00     0.332 C 
HETATM   26  O1  UNL     1      26.039   7.206  50.142  1.00  0.00    -0.260 OA
ENDBRANCH  24  25
ENDBRANCH  23  24
ENDBRANCH  20  22
ENDBRANCH   1  20
TORSDOF 9
ENDMDL
MODEL 4
REMARK VINA RESULT:      -6.6      2.967      5.308
REMARK  9 active torsions:
REMARK  status: ('A' for Active; 'I' for Inactive)
REMARK    1  A    between atoms: C2_2  and  C3_3 
REMARK    2  A    between atoms: C2_2  and  C6_8 
REMARK    3  A    between atoms: C4_4  and  N1_5 
REMARK    4  A    between atoms: N1_5  and  C5_6 
REMARK    5  A    between atoms: C11_15  and  N4_16 
REMARK    6  A    between atoms: N4_16  and  C12_17 
REMARK    7  A    between atoms: C12_17  and  C13_18 
REMARK    8  A    between atoms: C14_19  and  C15_20 
REMARK    9  A    between atoms: N5_21  and  C16_22 
ROOT
HETATM    1  C6  UNL     1      25.406   2.504  51.431  1.00  0.00     0.057 A 
HETATM    2  C7  UNL     1      26.608   2.230  52.031  1.00  0.00     0.125 A 
HETATM    3  N2  UNL     1      26.847   1.290  52.955  1.00  0.00    -0.311 N 
HETATM    4  C8  UNL     1      27.991   0.972  53.577  1.00  0.00     0.117 A 
HETATM    5  C9  UNL     1      27.619  -0.058  54.407  1.00  0.00     0.136 A 
HETATM    6  N3  UNL     1      26.319  -0.308  54.255  1.00  0.00    -0.238 NA
HETATM    7  C10 UNL     1      25.772   0.533  53.330  1.00  0.00     0.179 A 
HETATM    8  C11 UNL     1      24.518   0.788  52.733  1.00  0.00     0.171 A 
HETATM    9  N6  UNL     1      24.369   1.749  51.816  1.00  0.00    -0.231 NA
ENDROOT
BRANCH   8  10
HETATM   10  N4  UNL     1      23.629  -0.137  53.312  1.00  0.00    -0.368 N 
HETATM   11  H10 UNL     1      22.761   0.476  53.143  1.00  0.00     0.161 HD
BRANCH  10  12
HETATM   12  C12 UNL     1      22.746  -1.057  53.887  1.00  0.00     0.148 C 
BRANCH  12  13
HETATM   13  C13 UNL     1      21.658  -0.345  54.674  1.00  0.00    -0.006 C 
HETATM   14  C14 UNL     1      20.533   0.170  54.246  1.00  0.00     0.017 C 
BRANCH  14  15
HETATM   15  C15 UNL     1      20.027   0.195  52.890  1.00  0.00     0.115 C 
HETATM   16  N5  UNL     1      20.081   1.228  52.088  1.00  0.00    -0.276 NA
BRANCH  16  17
HETATM   17  C16 UNL     1      20.685   2.443  52.573  1.00  0.00     0.106 C 
HETATM   18  C17 UNL     1      21.039   3.277  51.582  1.00  0.00     0.225 C 
HETATM   19 BR1  UNL     1      21.865   4.976  51.872  1.00  0.00    -0.192 Br
ENDBRANCH  16  17
ENDBRANCH  14  15
ENDBRANCH  12  13
ENDBRANCH  10  12
ENDBRANCH   8  10
BRANCH   1  20
HETATM   20  C2  UNL     1      25.143   3.545  50.408  1.00  0.00     0.042 C 
HETATM   21  C1  UNL     1      24.049   3.076  49.463  1.00  0.00     0.017 C 
BRANCH  20  22
HETATM   22  C3  UNL     1      26.356   3.722  49.527  1.00  0.00     0.029 C 
HETATM   23  C4  UNL     1      27.303   4.317  48.855  1.00  0.00     0.142 C 
BRANCH  23  24
HETATM   24  N1  UNL     1      27.832   5.584  48.517  1.00  0.00    -0.240 NA
BRANCH  24  25
HETATM   25  C5  UNL     1      29.089   5.714  48.326  1.00  0.00     0.332 C 
HETATM   26  O1  UNL     1      30.284   5.373  48.360  1.00  0.00    -0.260 OA
ENDBRANCH  24  25
ENDBRANCH  23  24
ENDBRANCH  20  22
ENDBRANCH   1  20
TORSDOF 9
ENDMDL
MODEL 5
REMARK VINA RESULT:      -6.6      1.940      2.183
REMARK  9 active torsions:
REMARK  status: ('A' for Active; 'I' for Inactive)
REMARK    1  A    between atoms: C2_2  and  C3_3 
REMARK    2  A    between atoms: C2_2  and  C6_8 
REMARK    3  A    between atoms: C4_4  and  N1_5 
REMARK    4  A    between atoms: N1_5  and  C5_6 
REMARK    5  A    between atoms: C11_15  and  N4_16 
REMARK    6  A    between atoms: N4_16  and  C12_17 
REMARK    7  A    between atoms: C12_17  and  C13_18 
REMARK    8  A    between atoms: C14_19  and  C15_20 
REMARK    9  A    between atoms: N5_21  and  C16_22 
ROOT
HETATM    1  C6  UNL     1      25.089   1.030  53.268  1.00  0.00     0.057 A 
HETATM    2  C7  UNL     1      24.537   0.162  54.176  1.00  0.00     0.125 A 
HETATM    3  N2  UNL     1      23.341  -0.432  54.091  1.00  0.00    -0.311 N 
HETATM    4  C8  UNL     1      22.747  -1.285  54.938  1.00  0.00     0.117 A 
HETATM    5  C9  UNL     1      21.546  -1.548  54.324  1.00  0.00     0.136 A 
HETATM    6  N3  UNL     1      21.470  -0.871  53.179  1.00  0.00    -0.238 NA
HETATM    7  C10 UNL     1      22.601  -0.135  52.980  1.00  0.00     0.179 A 
HETATM    8  C11 UNL     1      23.138   0.757  52.025  1.00  0.00     0.171 A 
HETATM    9  N6  UNL     1      24.345   1.306  52.189  1.00  0.00    -0.231 NA
ENDROOT
BRANCH   8  10
HETATM   10  N4  UNL     1      22.162   0.859  51.015  1.00  0.00    -0.368 N 
HETATM   11  H10 UNL     1      22.879   0.824  50.213  1.00  0.00     0.161 HD
BRANCH  10  12
HETATM   12  C12 UNL     1      21.192   0.961  50.013  1.00  0.00     0.148 C 
BRANCH  12  13
HETATM   13  C13 UNL     1      21.801   1.478  48.720  1.00  0.00    -0.006 C 
HETATM   14  C14 UNL     1      22.101   2.706  48.382  1.00  0.00     0.017 C 
BRANCH  14  15
HETATM   15  C15 UNL     1      21.926   3.911  49.167  1.00  0.00     0.115 C 
HETATM   16  N5  UNL     1      22.880   4.526  49.819  1.00  0.00    -0.276 NA
BRANCH  16  17
HETATM   17  C16 UNL     1      24.211   3.978  49.765  1.00  0.00     0.106 C 
HETATM   18  C17 UNL     1      25.112   4.854  49.291  1.00  0.00     0.225 C 
HETATM   19 BR1  UNL     1      26.971   4.456  49.088  1.00  0.00    -0.192 Br
ENDBRANCH  16  17
ENDBRANCH  14  15
ENDBRANCH  12  13
ENDBRANCH  10  12
ENDBRANCH   8  10
BRANCH   1  20
HETATM   20  C2  UNL     1      26.415   1.688  53.363  1.00  0.00     0.042 C 
HETATM   21  C1  UNL     1      26.989   1.897  51.972  1.00  0.00     0.017 C 
BRANCH  20  22
HETATM   22  C3  UNL     1      27.400   0.770  54.046  1.00  0.00     0.029 C 
HETATM   23  C4  UNL     1      28.394  -0.062  54.197  1.00  0.00     0.142 C 
BRANCH  23  24
HETATM   24  N1  UNL     1      29.408  -0.759  53.501  1.00  0.00    -0.240 NA
BRANCH  24  25
HETATM   25  C5  UNL     1      29.330  -2.027  53.373  1.00  0.00     0.332 C 
HETATM   26  O1  UNL     1      28.821  -3.154  53.511  1.00  0.00    -0.260 OA
ENDBRANCH  24  25
ENDBRANCH  23  24
ENDBRANCH  20  22
ENDBRANCH   1  20
TORSDOF 9
ENDMDL
MODEL 6
REMARK VINA RESULT:      -6.5      4.453      6.039
REMARK  9 active torsions:
REMARK  status: ('A' for Active; 'I' for Inactive)
REMARK    1  A    between atoms: C2_2  and  C3_3 
REMARK    2  A    between atoms: C2_2  and  C6_8 
REMARK    3  A    between atoms: C4_4  and  N1_5 
REMARK    4  A    between atoms: N1_5  and  C5_6 
REMARK    5  A    between atoms: C11_15  and  N4_16 
REMARK    6  A    between atoms: N4_16  and  C12_17 
REMARK    7  A    between atoms: C12_17  and  C13_18 
REMARK    8  A    between atoms: C14_19  and  C15_20 
REMARK    9  A    between atoms: N5_21  and  C16_22 
ROOT
HETATM    1  C6  UNL     1      25.930   1.767  51.568  1.00  0.00     0.057 A 
HETATM    2  C7  UNL     1      24.648   2.213  51.766  1.00  0.00     0.125 A 
HETATM    3  N2  UNL     1      24.111   3.344  51.291  1.00  0.00    -0.311 N 
HETATM    4  C8  UNL     1      22.874   3.835  51.446  1.00  0.00     0.117 A 
HETATM    5  C9  UNL     1      22.915   5.013  50.739  1.00  0.00     0.136 A 
HETATM    6  N3  UNL     1      24.127   5.175  50.208  1.00  0.00    -0.238 NA
HETATM    7  C10 UNL     1      24.938   4.128  50.534  1.00  0.00     0.179 A 
HETATM    8  C11 UNL     1      26.265   3.699  50.311  1.00  0.00     0.171 A 
HETATM    9  N6  UNL     1      26.719   2.552  50.824  1.00  0.00    -0.231 NA
ENDROOT
BRANCH   8  10
HETATM   10  N4  UNL     1      26.854   4.696  49.510  1.00  0.00    -0.368 N 
HETATM   11  H10 UNL     1      26.276   5.493  49.946  1.00  0.00     0.161 HD
BRANCH  10  12
HETATM   12  C12 UNL     1      27.439   5.687  48.715  1.00  0.00     0.148 C 
BRANCH  12  13
HETATM   13  C13 UNL     1      28.818   5.258  48.242  1.00  0.00    -0.006 C 
HETATM   14  C14 UNL     1      29.886   5.987  48.043  1.00  0.00     0.017 C 
BRANCH  14  15
HETATM   15  C15 UNL     1      30.032   7.416  48.224  1.00  0.00     0.115 C 
HETATM   16  N5  UNL     1      31.167   8.068  48.174  1.00  0.00    -0.276 NA
BRANCH  16  17
HETATM   17  C16 UNL     1      32.373   7.323  47.919  1.00  0.00     0.106 C 
HETATM   18  C17 UNL     1      33.445   7.847  48.537  1.00  0.00     0.225 C 
HETATM   19 BR1  UNL     1      35.204   7.110  48.414  1.00  0.00    -0.192 Br
ENDBRANCH  16  17
ENDBRANCH  14  15
ENDBRANCH  12  13
ENDBRANCH  10  12
ENDBRANCH   8  10
BRANCH   1  20
HETATM   20  C2  UNL     1      26.522   0.513  52.094  1.00  0.00     0.042 C 
HETATM   21  C1  UNL     1      25.557  -0.148  53.065  1.00  0.00     0.017 C 
BRANCH  20  22
HETATM   22  C3  UNL     1      27.741   0.827  52.927  1.00  0.00     0.029 C 
HETATM   23  C4  UNL     1      28.893   0.665  53.519  1.00  0.00     0.142 C 
BRANCH  23  24
HETATM   24  N1  UNL     1      29.943  -0.259  53.728  1.00  0.00    -0.240 NA
BRANCH  24  25
HETATM   25  C5  UNL     1      29.723  -1.509  53.580  1.00  0.00     0.332 C 
HETATM   26  O1  UNL     1      29.030  -2.531  53.434  1.00  0.00    -0.260 OA
ENDBRANCH  24  25
ENDBRANCH  23  24
ENDBRANCH  20  22
ENDBRANCH   1  20
TORSDOF 9
ENDMDL
MODEL 7
REMARK VINA RESULT:      -6.5      4.068      5.648
REMARK  9 active torsions:
REMARK  status: ('A' for Active; 'I' for Inactive)
REMARK    1  A    between atoms: C2_2  and  C3_3 
REMARK    2  A    between atoms: C2_2  and  C6_8 
REMARK    3  A    between atoms: C4_4  and  N1_5 
REMARK    4  A    between atoms: N1_5  and  C5_6 
REMARK    5  A    between atoms: C11_15  and  N4_16 
REMARK    6  A    between atoms: N4_16  and  C12_17 
REMARK    7  A    between atoms: C12_17  and  C13_18 
REMARK    8  A    between atoms: C14_19  and  C15_20 
REMARK    9  A    between atoms: N5_21  and  C16_22 
ROOT
HETATM    1  C6  UNL     1      25.975   1.626  51.701  1.00  0.00     0.057 A 
HETATM    2  C7  UNL     1      24.802   2.280  51.981  1.00  0.00     0.125 A 
HETATM    3  N2  UNL     1      24.405   3.459  51.488  1.00  0.00    -0.311 N 
HETATM    4  C8  UNL     1      23.279   4.148  51.719  1.00  0.00     0.117 A 
HETATM    5  C9  UNL     1      23.436   5.271  50.943  1.00  0.00     0.136 A 
HETATM    6  N3  UNL     1      24.603   5.214  50.301  1.00  0.00    -0.238 NA
HETATM    7  C10 UNL     1      25.268   4.066  50.618  1.00  0.00     0.179 A 
HETATM    8  C11 UNL     1      26.486   3.421  50.307  1.00  0.00     0.171 A 
HETATM    9  N6  UNL     1      26.803   2.240  50.846  1.00  0.00    -0.231 NA
ENDROOT
BRANCH   8  10
HETATM   10  N4  UNL     1      27.144   4.274  49.401  1.00  0.00    -0.368 N 
HETATM   11  H10 UNL     1      26.323   4.968  49.342  1.00  0.00     0.161 HD
BRANCH  10  12
HETATM   12  C12 UNL     1      27.798   5.122  48.501  1.00  0.00     0.148 C 
BRANCH  12  13
HETATM   13  C13 UNL     1      27.164   6.503  48.499  1.00  0.00    -0.006 C 
HETATM   14  C14 UNL     1      27.741   7.677  48.539  1.00  0.00     0.017 C 
BRANCH  14  15
HETATM   15  C15 UNL     1      29.159   7.968  48.596  1.00  0.00     0.115 C 
HETATM   16  N5  UNL     1      29.674   9.145  48.842  1.00  0.00    -0.276 NA
BRANCH  16  17
HETATM   17  C16 UNL     1      28.780  10.250  49.076  1.00  0.00     0.106 C 
HETATM   18  C17 UNL     1      29.240  11.405  48.569  1.00  0.00     0.225 C 
HETATM   19 BR1  UNL     1      28.304  13.067  48.700  1.00  0.00    -0.192 Br
ENDBRANCH  16  17
ENDBRANCH  14  15
ENDBRANCH  12  13
ENDBRANCH  10  12
ENDBRANCH   8  10
BRANCH   1  20
HETATM   20  C2  UNL     1      26.413   0.318  52.248  1.00  0.00     0.042 C 
HETATM   21  C1  UNL     1      25.427  -0.158  53.302  1.00  0.00     0.017 C 
BRANCH  20  22
HETATM   22  C3  UNL     1      27.716   0.480  52.992  1.00  0.00     0.029 C 
HETATM   23  C4  UNL     1      28.856   0.166  53.546  1.00  0.00     0.142 C 
BRANCH  23  24
HETATM   24  N1  UNL     1      29.740  -0.909  53.792  1.00  0.00    -0.240 NA
BRANCH  24  25
HETATM   25  C5  UNL     1      29.419  -2.089  53.424  1.00  0.00     0.332 C 
HETATM   26  O1  UNL     1      28.771  -3.150  53.449  1.00  0.00    -0.260 OA
ENDBRANCH  24  25
ENDBRANCH  23  24
ENDBRANCH  20  22
ENDBRANCH   1  20
TORSDOF 9
ENDMDL
MODEL 8
REMARK VINA RESULT:      -6.5      3.391      4.907
REMARK  9 active torsions:
REMARK  status: ('A' for Active; 'I' for Inactive)
REMARK    1  A    between atoms: C2_2  and  C3_3 
REMARK    2  A    between atoms: C2_2  and  C6_8 
REMARK    3  A    between atoms: C4_4  and  N1_5 
REMARK    4  A    between atoms: N1_5  and  C5_6 
REMARK    5  A    between atoms: C11_15  and  N4_16 
REMARK    6  A    between atoms: N4_16  and  C12_17 
REMARK    7  A    between atoms: C12_17  and  C13_18 
REMARK    8  A    between atoms: C14_19  and  C15_20 
REMARK    9  A    between atoms: N5_21  and  C16_22 
ROOT
HETATM    1  C6  UNL     1      24.017   1.331  52.344  1.00  0.00     0.057 A 
HETATM    2  C7  UNL     1      22.774   1.886  52.515  1.00  0.00     0.125 A 
HETATM    3  N2  UNL     1      22.344   3.055  52.024  1.00  0.00    -0.311 N 
HETATM    4  C8  UNL     1      21.150   3.650  52.154  1.00  0.00     0.117 A 
HETATM    5  C9  UNL     1      21.303   4.815  51.441  1.00  0.00     0.136 A 
HETATM    6  N3  UNL     1      22.534   4.870  50.931  1.00  0.00    -0.238 NA
HETATM    7  C10 UNL     1      23.247   3.760  51.278  1.00  0.00     0.179 A 
HETATM    8  C11 UNL     1      24.537   3.218  51.082  1.00  0.00     0.171 A 
HETATM    9  N6  UNL     1      24.883   2.041  51.609  1.00  0.00    -0.231 NA
ENDROOT
BRANCH   8  10
HETATM   10  N4  UNL     1      25.222   4.156  50.286  1.00  0.00    -0.368 N 
HETATM   11  H10 UNL     1      24.563   4.968  50.542  1.00  0.00     0.161 HD
BRANCH  10  12
HETATM   12  C12 UNL     1      25.903   5.088  49.496  1.00  0.00     0.148 C 
BRANCH  12  13
HETATM   13  C13 UNL     1      27.183   4.490  48.935  1.00  0.00    -0.006 C 
HETATM   14  C14 UNL     1      28.228   5.099  48.433  1.00  0.00     0.017 C 
BRANCH  14  15
HETATM   15  C15 UNL     1      28.437   6.523  48.280  1.00  0.00     0.115 C 
HETATM   16  N5  UNL     1      29.593   7.128  48.385  1.00  0.00    -0.276 NA
BRANCH  16  17
HETATM   17  C16 UNL     1      30.759   6.332  48.674  1.00  0.00     0.106 C 
HETATM   18  C17 UNL     1      31.543   6.152  47.599  1.00  0.00     0.225 C 
HETATM   19 BR1  UNL     1      33.169   5.148  47.630  1.00  0.00    -0.192 Br
ENDBRANCH  16  17
ENDBRANCH  14  15
ENDBRANCH  12  13
ENDBRANCH  10  12
ENDBRANCH   8  10
BRANCH   1  20
HETATM   20  C2  UNL     1      24.492   0.036  52.888  1.00  0.00     0.042 C 
HETATM   21  C1  UNL     1      23.321  -0.743  53.466  1.00  0.00     0.017 C 
BRANCH  20  22
HETATM   22  C3  UNL     1      25.407   0.273  54.065  1.00  0.00     0.029 C 
HETATM   23  C4  UNL     1      26.480   0.237  54.807  1.00  0.00     0.142 C 
BRANCH  23  24
HETATM   24  N1  UNL     1      27.812  -0.235  54.855  1.00  0.00    -0.240 NA
BRANCH  24  25
HETATM   25  C5  UNL     1      28.780   0.593  54.763  1.00  0.00     0.332 C 
HETATM   26  O1  UNL     1      29.340   1.700  54.850  1.00  0.00    -0.260 OA
ENDBRANCH  24  25
ENDBRANCH  23  24
ENDBRANCH  20  22
ENDBRANCH   1  20
TORSDOF 9
ENDMDL
MODEL 9
REMARK VINA RESULT:      -6.4      4.437      6.843
REMARK  9 active torsions:
REMARK  status: ('A' for Active; 'I' for Inactive)
REMARK    1  A    between atoms: C2_2  and  C3_3 
REMARK    2  A    between atoms: C2_2  and  C6_8 
REMARK    3  A    between atoms: C4_4  and  N1_5 
REMARK    4  A    between atoms: N1_5  and  C5_6 
REMARK    5  A    between atoms: C11_15  and  N4_16 
REMARK    6  A    between atoms: N4_16  and  C12_17 
REMARK    7  A    between atoms: C12_17  and  C13_18 
REMARK    8  A    between atoms: C14_19  and  C15_20 
REMARK    9  A    between atoms: N5_21  and  C16_22 
ROOT
HETATM    1  C6  UNL     1      26.070   2.971  50.570  1.00  0.00     0.057 A 
HETATM    2  C7  UNL     1      24.789   3.274  50.187  1.00  0.00     0.125 A 
HETATM    3  N2  UNL     1      24.393   4.345  49.489  1.00  0.00    -0.311 N 
HETATM    4  C8  UNL     1      23.164   4.697  49.084  1.00  0.00     0.117 A 
HETATM    5  C9  UNL     1      23.382   5.879  48.419  1.00  0.00     0.136 A 
HETATM    6  N3  UNL     1      24.681   6.178  48.448  1.00  0.00    -0.238 NA
HETATM    7  C10 UNL     1      25.378   5.221  49.126  1.00  0.00     0.179 A 
HETATM    8  C11 UNL     1      26.710   4.941  49.505  1.00  0.00     0.171 A 
HETATM    9  N6  UNL     1      27.017   3.845  50.204  1.00  0.00    -0.231 NA
ENDROOT
BRANCH   8  10
HETATM   10  N4  UNL     1      27.478   6.005  48.994  1.00  0.00    -0.368 N 
HETATM   11  H10 UNL     1      26.743   6.281  48.257  1.00  0.00     0.161 HD
BRANCH  10  12
HETATM   12  C12 UNL     1      28.241   7.062  48.487  1.00  0.00     0.148 C 
BRANCH  12  13
HETATM   13  C13 UNL     1      29.271   6.557  47.490  1.00  0.00    -0.006 C 
HETATM   14  C14 UNL     1      30.481   6.107  47.709  1.00  0.00     0.017 C 
BRANCH  14  15
HETATM   15  C15 UNL     1      31.161   5.972  48.981  1.00  0.00     0.115 C 
HETATM   16  N5  UNL     1      32.431   5.689  49.126  1.00  0.00    -0.276 NA
BRANCH  16  17
HETATM   17  C16 UNL     1      33.229   5.493  47.944  1.00  0.00     0.106 C 
HETATM   18  C17 UNL     1      33.641   4.223  47.802  1.00  0.00     0.225 C 
HETATM   19 BR1  UNL     1      34.718   3.614  46.344  1.00  0.00    -0.192 Br
ENDBRANCH  16  17
ENDBRANCH  14  15
ENDBRANCH  12  13
ENDBRANCH  10  12
ENDBRANCH   8  10
BRANCH   1  20
HETATM   20  C2  UNL     1      26.507   1.784  51.344  1.00  0.00     0.042 C 
HETATM   21  C1  UNL     1      25.331   1.208  52.116  1.00  0.00     0.017 C 
BRANCH  20  22
HETATM   22  C3  UNL     1      27.494   2.195  52.409  1.00  0.00     0.029 C 
HETATM   23  C4  UNL     1      28.227   2.133  53.488  1.00  0.00     0.142 C 
BRANCH  23  24
HETATM   24  N1  UNL     1      28.557   1.313  54.591  1.00  0.00    -0.240 NA
BRANCH  24  25
HETATM   25  C5  UNL     1      27.923   0.220  54.777  1.00  0.00     0.332 C 
HETATM   26  O1  UNL     1      27.363  -0.839  54.445  1.00  0.00    -0.260 OA
ENDBRANCH  24  25
ENDBRANCH  23  24
ENDBRANCH  20  22
ENDBRANCH   1  20
TORSDOF 9
ENDMDL
