MODEL 1
REMARK VINA RESULT:      -8.1      0.000      0.000
REMARK  5 active torsions:
REMARK  status: ('A' for Active; 'I' for Inactive)
REMARK    1  A    between atoms: O1_2  and  C2_3 
REMARK    2  A    between atoms: C3_4  and  O2_5 
REMARK    3  A    between atoms: C7_10  and  C8_11 
REMARK    4  A    between atoms: C11_14  and  O4_15 
REMARK    5  A    between atoms: C16_21  and  O6_22 
ROOT
HETATM    1  C2  UNL     1      20.646   0.025  52.536  1.00  0.00     0.135 A 
HETATM    2  C3  UNL     1      20.205  -0.709  53.624  1.00  0.00     0.104 A 
HETATM    3  C4  UNL     1      21.038  -1.211  54.605  1.00  0.00     0.077 A 
HETATM    4  C5  UNL     1      22.386  -0.948  54.465  1.00  0.00     0.094 A 
HETATM    5  O3  UNL     1      23.202  -1.420  55.398  1.00  0.00    -0.321 OA
HETATM    6  C6  UNL     1      24.495  -1.223  55.352  1.00  0.00     0.159 A 
HETATM    7  C7  UNL     1      25.078  -0.508  54.326  1.00  0.00     0.048 A 
HETATM    8  C14 UNL     1      24.224  -0.008  53.342  1.00  0.00     0.200 A 
HETATM    9  O5  UNL     1      24.686   0.647  52.387  1.00  0.00    -0.286 OA
HETATM   10  C15 UNL     1      22.864  -0.219  53.396  1.00  0.00     0.085 A 
HETATM   11  C16 UNL     1      22.004   0.257  52.448  1.00  0.00     0.119 A 
ENDROOT
BRANCH   7  12
HETATM   12  C8  UNL     1      26.496  -0.228  54.174  1.00  0.00    -0.020 A 
HETATM   13  C9  UNL     1      27.219   0.786  54.736  1.00  0.00     0.015 A 
HETATM   14  C10 UNL     1      28.573   0.871  54.459  1.00  0.00     0.037 A 
HETATM   15  C11 UNL     1      29.183  -0.065  53.621  1.00  0.00     0.065 A 
HETATM   16  C12 UNL     1      28.468  -1.088  53.051  1.00  0.00     0.037 A 
HETATM   17  C13 UNL     1      27.101  -1.167  53.336  1.00  0.00     0.015 A 
BRANCH  15  18
HETATM   18  O4  UNL     1      30.544   0.021  53.342  1.00  0.00    -0.361 OA
HETATM   19  H9  UNL     1      30.917  -0.255  52.454  1.00  0.00     0.217 HD
ENDBRANCH  15  18
ENDBRANCH   7  12
BRANCH  11  20
HETATM   20  O6  UNL     1      22.485   0.991  51.368  1.00  0.00    -0.357 OA
HETATM   21  H12 UNL     1      22.357   0.538  50.450  1.00  0.00     0.218 HD
ENDBRANCH  11  20
BRANCH   1  22
HETATM   22  O1  UNL     1      19.719   0.467  51.629  1.00  0.00    -0.351 OA
HETATM   23  C1  UNL     1      19.122   1.729  51.579  1.00  0.00     0.210 C 
ENDBRANCH   1  22
BRANCH   2  24
HETATM   24  O2  UNL     1      18.838  -0.975  53.761  1.00  0.00    -0.358 OA
HETATM   25  H4  UNL     1      18.134  -0.366  53.417  1.00  0.00     0.217 HD
ENDBRANCH   2  24
TORSDOF 5
ENDMDL
MODEL 2
REMARK VINA RESULT:      -8.0      1.698      7.271
REMARK  5 active torsions:
REMARK  status: ('A' for Active; 'I' for Inactive)
REMARK    1  A    between atoms: O1_2  and  C2_3 
REMARK    2  A    between atoms: C3_4  and  O2_5 
REMARK    3  A    between atoms: C7_10  and  C8_11 
REMARK    4  A    between atoms: C11_14  and  O4_15 
REMARK    5  A    between atoms: C16_21  and  O6_22 
ROOT
HETATM    1  C2  UNL     1      28.028   0.050  53.982  1.00  0.00     0.135 A 
HETATM    2  C3  UNL     1      28.337   1.397  53.891  1.00  0.00     0.104 A 
HETATM    3  C4  UNL     1      27.415   2.383  53.597  1.00  0.00     0.077 A 
HETATM    4  C5  UNL     1      26.116   1.969  53.386  1.00  0.00     0.094 A 
HETATM    5  O3  UNL     1      25.215   2.901  53.103  1.00  0.00    -0.321 OA
HETATM    6  C6  UNL     1      23.958   2.607  52.887  1.00  0.00     0.159 A 
HETATM    7  C7  UNL     1      23.503   1.306  52.944  1.00  0.00     0.048 A 
HETATM    8  C14 UNL     1      24.446   0.321  53.242  1.00  0.00     0.200 A 
HETATM    9  O5  UNL     1      24.101  -0.875  53.308  1.00  0.00    -0.286 OA
HETATM   10  C15 UNL     1      25.768   0.637  53.468  1.00  0.00     0.085 A 
HETATM   11  C16 UNL     1      26.713  -0.305  53.761  1.00  0.00     0.119 A 
ENDROOT
BRANCH   7  12
HETATM   12  C8  UNL     1      22.135   0.866  52.722  1.00  0.00    -0.020 A 
HETATM   13  C9  UNL     1      21.212   0.487  53.655  1.00  0.00     0.015 A 
HETATM   14  C10 UNL     1      19.954   0.099  53.226  1.00  0.00     0.037 A 
HETATM   15  C11 UNL     1      19.639   0.099  51.865  1.00  0.00     0.065 A 
HETATM   16  C12 UNL     1      20.558   0.478  50.919  1.00  0.00     0.037 A 
HETATM   17  C13 UNL     1      21.827   0.868  51.361  1.00  0.00     0.015 A 
BRANCH  15  18
HETATM   18  O4  UNL     1      18.375  -0.291  51.434  1.00  0.00    -0.361 OA
HETATM   19  H9  UNL     1      17.961   0.092  50.605  1.00  0.00     0.217 HD
ENDBRANCH  15  18
ENDBRANCH   7  12
BRANCH  11  20
HETATM   20  O6  UNL     1      26.363  -1.650  53.843  1.00  0.00    -0.357 OA
HETATM   21  H12 UNL     1      26.177  -1.986  54.800  1.00  0.00     0.218 HD
ENDBRANCH  11  20
BRANCH   1  22
HETATM   22  O1  UNL     1      29.034  -0.832  54.280  1.00  0.00    -0.351 OA
HETATM   23  C1  UNL     1      29.768  -1.610  53.382  1.00  0.00     0.210 C 
ENDBRANCH   1  22
BRANCH   2  24
HETATM   24  O2  UNL     1      29.657   1.811  54.105  1.00  0.00    -0.358 OA
HETATM   25  H4  UNL     1      29.896   2.740  54.358  1.00  0.00     0.217 HD
ENDBRANCH   2  24
TORSDOF 5
ENDMDL
MODEL 3
REMARK VINA RESULT:      -7.7      2.339      2.833
REMARK  5 active torsions:
REMARK  status: ('A' for Active; 'I' for Inactive)
REMARK    1  A    between atoms: O1_2  and  C2_3 
REMARK    2  A    between atoms: C3_4  and  O2_5 
REMARK    3  A    between atoms: C7_10  and  C8_11 
REMARK    4  A    between atoms: C11_14  and  O4_15 
REMARK    5  A    between atoms: C16_21  and  O6_22 
ROOT
HETATM    1  C2  UNL     1      21.795   3.878  52.122  1.00  0.00     0.135 A 
HETATM    2  C3  UNL     1      20.788   2.955  52.352  1.00  0.00     0.104 A 
HETATM    3  C4  UNL     1      21.009   1.664  52.792  1.00  0.00     0.077 A 
HETATM    4  C5  UNL     1      22.323   1.303  53.006  1.00  0.00     0.094 A 
HETATM    5  O3  UNL     1      22.557   0.067  53.430  1.00  0.00    -0.321 OA
HETATM    6  C6  UNL     1      23.769  -0.369  53.661  1.00  0.00     0.159 A 
HETATM    7  C7  UNL     1      24.871   0.439  53.477  1.00  0.00     0.048 A 
HETATM    8  C14 UNL     1      24.633   1.740  53.032  1.00  0.00     0.200 A 
HETATM    9  O5  UNL     1      25.585   2.522  52.844  1.00  0.00    -0.286 OA
HETATM   10  C15 UNL     1      23.354   2.193  52.790  1.00  0.00     0.085 A 
HETATM   11  C16 UNL     1      23.089   3.460  52.354  1.00  0.00     0.119 A 
ENDROOT
BRANCH   7  12
HETATM   12  C8  UNL     1      26.257   0.062  53.701  1.00  0.00    -0.020 A 
HETATM   13  C9  UNL     1      27.099   0.497  54.684  1.00  0.00     0.015 A 
HETATM   14  C10 UNL     1      28.393   0.007  54.718  1.00  0.00     0.037 A 
HETATM   15  C11 UNL     1      28.825  -0.917  53.763  1.00  0.00     0.065 A 
HETATM   16  C12 UNL     1      27.988  -1.362  52.771  1.00  0.00     0.037 A 
HETATM   17  C13 UNL     1      26.682  -0.862  52.744  1.00  0.00     0.015 A 
BRANCH  15  18
HETATM   18  O4  UNL     1      30.126  -1.410  53.797  1.00  0.00    -0.361 OA
HETATM   19  H9  UNL     1      30.595  -1.594  54.663  1.00  0.00     0.217 HD
ENDBRANCH  15  18
ENDBRANCH   7  12
BRANCH  11  20
HETATM   20  O6  UNL     1      24.128   4.359  52.134  1.00  0.00    -0.357 OA
HETATM   21  H12 UNL     1      25.035   4.073  52.531  1.00  0.00     0.218 HD
ENDBRANCH  11  20
BRANCH   1  22
HETATM   22  O1  UNL     1      21.445   5.129  51.685  1.00  0.00    -0.351 OA
HETATM   23  C1  UNL     1      21.406   5.581  50.365  1.00  0.00     0.210 C 
ENDBRANCH   1  22
BRANCH   2  24
HETATM   24  O2  UNL     1      19.457   3.327  52.132  1.00  0.00    -0.358 OA
HETATM   25  H4  UNL     1      18.970   3.120  51.292  1.00  0.00     0.217 HD
ENDBRANCH   2  24
TORSDOF 5
ENDMDL
MODEL 4
REMARK VINA RESULT:      -7.6      2.155      6.986
REMARK  5 active torsions:
REMARK  status: ('A' for Active; 'I' for Inactive)
REMARK    1  A    between atoms: O1_2  and  C2_3 
REMARK    2  A    between atoms: C3_4  and  O2_5 
REMARK    3  A    between atoms: C7_10  and  C8_11 
REMARK    4  A    between atoms: C11_14  and  O4_15 
REMARK    5  A    between atoms: C16_21  and  O6_22 
ROOT
HETATM    1  C2  UNL     1      26.447   1.544  54.040  1.00  0.00     0.135 A 
HETATM    2  C3  UNL     1      26.457   0.257  54.551  1.00  0.00     0.104 A 
HETATM    3  C4  UNL     1      25.430  -0.651  54.378  1.00  0.00     0.077 A 
HETATM    4  C5  UNL     1      24.342  -0.219  53.647  1.00  0.00     0.094 A 
HETATM    5  O3  UNL     1      23.345  -1.076  53.468  1.00  0.00    -0.321 OA
HETATM    6  C6  UNL     1      22.271  -0.759  52.791  1.00  0.00     0.159 A 
HETATM    7  C7  UNL     1      22.121   0.489  52.223  1.00  0.00     0.048 A 
HETATM    8  C14 UNL     1      23.166   1.395  52.407  1.00  0.00     0.200 A 
HETATM    9  O5  UNL     1      23.094   2.541  51.920  1.00  0.00    -0.286 OA
HETATM   10  C15 UNL     1      24.294   1.056  53.122  1.00  0.00     0.085 A 
HETATM   11  C16 UNL     1      25.333   1.920  53.319  1.00  0.00     0.119 A 
ENDROOT
BRANCH   7  12
HETATM   12  C8  UNL     1      20.977   0.948  51.453  1.00  0.00    -0.020 A 
HETATM   13  C9  UNL     1      19.770   1.385  51.919  1.00  0.00     0.015 A 
HETATM   14  C10 UNL     1      18.807   1.781  51.006  1.00  0.00     0.037 A 
HETATM   15  C11 UNL     1      19.070   1.734  49.636  1.00  0.00     0.065 A 
HETATM   16  C12 UNL     1      20.279   1.298  49.155  1.00  0.00     0.037 A 
HETATM   17  C13 UNL     1      21.246   0.899  50.084  1.00  0.00     0.015 A 
BRANCH  15  18
HETATM   18  O4  UNL     1      18.103   2.132  48.718  1.00  0.00    -0.361 OA
HETATM   19  H9  UNL     1      17.264   1.603  48.576  1.00  0.00     0.217 HD
ENDBRANCH  15  18
ENDBRANCH   7  12
BRANCH  11  20
HETATM   20  O6  UNL     1      25.286   3.207  52.790  1.00  0.00    -0.357 OA
HETATM   21  H12 UNL     1      26.089   3.803  53.040  1.00  0.00     0.218 HD
ENDBRANCH  11  20
BRANCH   1  22
HETATM   22  O1  UNL     1      27.528   2.350  54.282  1.00  0.00    -0.351 OA
HETATM   23  C1  UNL     1      28.692   2.453  53.517  1.00  0.00     0.210 C 
ENDBRANCH   1  22
BRANCH   2  24
HETATM   24  O2  UNL     1      27.562  -0.176  55.292  1.00  0.00    -0.358 OA
HETATM   25  H4  UNL     1      28.462  -0.306  54.893  1.00  0.00     0.217 HD
ENDBRANCH   2  24
TORSDOF 5
ENDMDL
MODEL 5
REMARK VINA RESULT:      -7.4      3.752      4.730
REMARK  5 active torsions:
REMARK  status: ('A' for Active; 'I' for Inactive)
REMARK    1  A    between atoms: O1_2  and  C2_3 
REMARK    2  A    between atoms: C3_4  and  O2_5 
REMARK    3  A    between atoms: C7_10  and  C8_11 
REMARK    4  A    between atoms: C11_14  and  O4_15 
REMARK    5  A    between atoms: C16_21  and  O6_22 
ROOT
HETATM    1  C2  UNL     1      24.266   5.179  50.489  1.00  0.00     0.135 A 
HETATM    2  C3  UNL     1      23.019   4.986  51.059  1.00  0.00     0.104 A 
HETATM    3  C4  UNL     1      22.698   3.915  51.870  1.00  0.00     0.077 A 
HETATM    4  C5  UNL     1      23.703   3.000  52.109  1.00  0.00     0.094 A 
HETATM    5  O3  UNL     1      23.415   1.965  52.888  1.00  0.00    -0.321 OA
HETATM    6  C6  UNL     1      24.301   1.044  53.172  1.00  0.00     0.159 A 
HETATM    7  C7  UNL     1      25.586   1.105  52.675  1.00  0.00     0.048 A 
HETATM    8  C14 UNL     1      25.895   2.191  51.856  1.00  0.00     0.200 A 
HETATM    9  O5  UNL     1      27.039   2.306  51.374  1.00  0.00    -0.286 OA
HETATM   10  C15 UNL     1      24.958   3.157  51.560  1.00  0.00     0.085 A 
HETATM   11  C16 UNL     1      25.231   4.231  50.762  1.00  0.00     0.119 A 
ENDROOT
BRANCH   7  12
HETATM   12  C8  UNL     1      26.647   0.142  52.924  1.00  0.00    -0.020 A 
HETATM   13  C9  UNL     1      27.848   0.354  53.540  1.00  0.00     0.015 A 
HETATM   14  C10 UNL     1      28.723  -0.710  53.676  1.00  0.00     0.037 A 
HETATM   15  C11 UNL     1      28.380  -1.975  53.192  1.00  0.00     0.065 A 
HETATM   16  C12 UNL     1      27.177  -2.200  52.572  1.00  0.00     0.037 A 
HETATM   17  C13 UNL     1      26.298  -1.119  52.438  1.00  0.00     0.015 A 
BRANCH  15  18
HETATM   18  O4  UNL     1      29.259  -3.044  53.328  1.00  0.00    -0.361 OA
HETATM   19  H9  UNL     1      29.644  -3.297  54.218  1.00  0.00     0.217 HD
ENDBRANCH  15  18
ENDBRANCH   7  12
BRANCH  11  20
HETATM   20  O6  UNL     1      26.497   4.391  50.207  1.00  0.00    -0.357 OA
HETATM   21  H12 UNL     1      26.782   3.636  49.566  1.00  0.00     0.218 HD
ENDBRANCH  11  20
BRANCH   1  22
HETATM   22  O1  UNL     1      24.458   6.283  49.700  1.00  0.00    -0.351 OA
HETATM   23  C1  UNL     1      24.324   6.363  48.312  1.00  0.00     0.210 C 
ENDBRANCH   1  22
BRANCH   2  24
HETATM   24  O2  UNL     1      22.003   5.917  50.813  1.00  0.00    -0.358 OA
HETATM   25  H4  UNL     1      21.150   5.932  51.320  1.00  0.00     0.217 HD
ENDBRANCH   2  24
TORSDOF 5
ENDMDL
MODEL 6
REMARK VINA RESULT:      -7.3      1.471      2.101
REMARK  5 active torsions:
REMARK  status: ('A' for Active; 'I' for Inactive)
REMARK    1  A    between atoms: O1_2  and  C2_3 
REMARK    2  A    between atoms: C3_4  and  O2_5 
REMARK    3  A    between atoms: C7_10  and  C8_11 
REMARK    4  A    between atoms: C11_14  and  O4_15 
REMARK    5  A    between atoms: C16_21  and  O6_22 
ROOT
HETATM    1  C2  UNL     1      19.368   0.428  51.336  1.00  0.00     0.135 A 
HETATM    2  C3  UNL     1      18.902  -0.275  52.434  1.00  0.00     0.104 A 
HETATM    3  C4  UNL     1      19.709  -0.732  53.457  1.00  0.00     0.077 A 
HETATM    4  C5  UNL     1      21.057  -0.454  53.351  1.00  0.00     0.094 A 
HETATM    5  O3  UNL     1      21.849  -0.883  54.325  1.00  0.00    -0.321 OA
HETATM    6  C6  UNL     1      23.140  -0.669  54.313  1.00  0.00     0.159 A 
HETATM    7  C7  UNL     1      23.746   0.019  53.282  1.00  0.00     0.048 A 
HETATM    8  C14 UNL     1      22.918   0.474  52.255  1.00  0.00     0.200 A 
HETATM    9  O5  UNL     1      23.401   1.102  51.294  1.00  0.00    -0.286 OA
HETATM   10  C15 UNL     1      21.559   0.245  52.273  1.00  0.00     0.085 A 
HETATM   11  C16 UNL     1      20.724   0.676  51.283  1.00  0.00     0.119 A 
ENDROOT
BRANCH   7  12
HETATM   12  C8  UNL     1      25.165   0.314  53.166  1.00  0.00    -0.020 A 
HETATM   13  C9  UNL     1      26.159  -0.504  52.710  1.00  0.00     0.015 A 
HETATM   14  C10 UNL     1      27.456  -0.022  52.682  1.00  0.00     0.037 A 
HETATM   15  C11 UNL     1      27.738   1.277  53.111  1.00  0.00     0.065 A 
HETATM   16  C12 UNL     1      26.748   2.108  53.571  1.00  0.00     0.037 A 
HETATM   17  C13 UNL     1      25.440   1.613  53.597  1.00  0.00     0.015 A 
BRANCH  15  18
HETATM   18  O4  UNL     1      29.042   1.761  53.082  1.00  0.00    -0.361 OA
HETATM   19  H9  UNL     1      29.249   2.696  52.786  1.00  0.00     0.217 HD
ENDBRANCH  15  18
ENDBRANCH   7  12
BRANCH  11  20
HETATM   20  O6  UNL     1      21.229   1.381  50.194  1.00  0.00    -0.357 OA
HETATM   21  H12 UNL     1      21.391   0.810  49.351  1.00  0.00     0.218 HD
ENDBRANCH  11  20
BRANCH   1  22
HETATM   22  O1  UNL     1      18.464   0.826  50.385  1.00  0.00    -0.351 OA
HETATM   23  C1  UNL     1      17.835   2.070  50.287  1.00  0.00     0.210 C 
ENDBRANCH   1  22
BRANCH   2  24
HETATM   24  O2  UNL     1      17.534  -0.555  52.536  1.00  0.00    -0.358 OA
HETATM   25  H4  UNL     1      17.115  -0.898  53.368  1.00  0.00     0.217 HD
ENDBRANCH   2  24
TORSDOF 5
ENDMDL
MODEL 7
REMARK VINA RESULT:      -7.2      3.742      7.167
REMARK  5 active torsions:
REMARK  status: ('A' for Active; 'I' for Inactive)
REMARK    1  A    between atoms: O1_2  and  C2_3 
REMARK    2  A    between atoms: C3_4  and  O2_5 
REMARK    3  A    between atoms: C7_10  and  C8_11 
REMARK    4  A    between atoms: C11_14  and  O4_15 
REMARK    5  A    between atoms: C16_21  and  O6_22 
ROOT
HETATM    1  C2  UNL     1      27.042   1.246  53.646  1.00  0.00     0.135 A 
HETATM    2  C3  UNL     1      26.150   0.349  54.211  1.00  0.00     0.104 A 
HETATM    3  C4  UNL     1      24.861   0.152  53.755  1.00  0.00     0.077 A 
HETATM    4  C5  UNL     1      24.468   0.909  52.670  1.00  0.00     0.094 A 
HETATM    5  O3  UNL     1      23.234   0.733  52.216  1.00  0.00    -0.321 OA
HETATM    6  C6  UNL     1      22.769   1.404  51.194  1.00  0.00     0.159 A 
HETATM    7  C7  UNL     1      23.544   2.332  50.529  1.00  0.00     0.048 A 
HETATM    8  C14 UNL     1      24.844   2.521  51.001  1.00  0.00     0.200 A 
HETATM    9  O5  UNL     1      25.597   3.345  50.447  1.00  0.00    -0.286 OA
HETATM   10  C15 UNL     1      25.327   1.812  52.079  1.00  0.00     0.085 A 
HETATM   11  C16 UNL     1      26.593   1.975  52.564  1.00  0.00     0.119 A 
ENDROOT
BRANCH   7  12
HETATM   12  C8  UNL     1      23.134   3.131  49.387  1.00  0.00    -0.020 A 
HETATM   13  C9  UNL     1      23.179   4.490  49.250  1.00  0.00     0.015 A 
HETATM   14  C10 UNL     1      22.735   5.055  48.067  1.00  0.00     0.037 A 
HETATM   15  C11 UNL     1      22.251   4.247  47.035  1.00  0.00     0.065 A 
HETATM   16  C12 UNL     1      22.202   2.882  47.160  1.00  0.00     0.037 A 
HETATM   17  C13 UNL     1      22.652   2.318  48.359  1.00  0.00     0.015 A 
BRANCH  15  18
HETATM   18  O4  UNL     1      21.805   4.815  45.846  1.00  0.00    -0.361 OA
HETATM   19  H9  UNL     1      21.671   4.265  45.019  1.00  0.00     0.217 HD
ENDBRANCH  15  18
ENDBRANCH   7  12
BRANCH  11  20
HETATM   20  O6  UNL     1      27.462   2.886  51.970  1.00  0.00    -0.357 OA
HETATM   21  H12 UNL     1      27.079   3.364  51.140  1.00  0.00     0.218 HD
ENDBRANCH  11  20
BRANCH   1  22
HETATM   22  O1  UNL     1      28.295   1.350  54.191  1.00  0.00    -0.351 OA
HETATM   23  C1  UNL     1      29.433   0.622  53.836  1.00  0.00     0.210 C 
ENDBRANCH   1  22
BRANCH   2  24
HETATM   24  O2  UNL     1      26.554  -0.415  55.311  1.00  0.00    -0.358 OA
HETATM   25  H4  UNL     1      26.127  -1.277  55.555  1.00  0.00     0.217 HD
ENDBRANCH   2  24
TORSDOF 5
ENDMDL
MODEL 8
REMARK VINA RESULT:      -7.0      4.496      6.556
REMARK  5 active torsions:
REMARK  status: ('A' for Active; 'I' for Inactive)
REMARK    1  A    between atoms: O1_2  and  C2_3 
REMARK    2  A    between atoms: C3_4  and  O2_5 
REMARK    3  A    between atoms: C7_10  and  C8_11 
REMARK    4  A    between atoms: C11_14  and  O4_15 
REMARK    5  A    between atoms: C16_21  and  O6_22 
ROOT
HETATM    1  C2  UNL     1      25.065   5.755  49.772  1.00  0.00     0.135 A 
HETATM    2  C3  UNL     1      26.264   5.364  49.199  1.00  0.00     0.104 A 
HETATM    3  C4  UNL     1      26.884   4.156  49.455  1.00  0.00     0.077 A 
HETATM    4  C5  UNL     1      26.245   3.311  50.339  1.00  0.00     0.094 A 
HETATM    5  O3  UNL     1      26.824   2.145  50.598  1.00  0.00    -0.321 OA
HETATM    6  C6  UNL     1      26.296   1.277  51.422  1.00  0.00     0.159 A 
HETATM    7  C7  UNL     1      25.103   1.530  52.067  1.00  0.00     0.048 A 
HETATM    8  C14 UNL     1      24.489   2.754  51.799  1.00  0.00     0.200 A 
HETATM    9  O5  UNL     1      23.409   3.045  52.348  1.00  0.00    -0.286 OA
HETATM   10  C15 UNL     1      25.050   3.664  50.930  1.00  0.00     0.085 A 
HETATM   11  C16 UNL     1      24.473   4.869  50.648  1.00  0.00     0.119 A 
ENDROOT
BRANCH   7  12
HETATM   12  C8  UNL     1      24.427   0.642  52.999  1.00  0.00    -0.020 A 
HETATM   13  C9  UNL     1      23.099   0.328  53.050  1.00  0.00     0.015 A 
HETATM   14  C10 UNL     1      22.659  -0.548  54.027  1.00  0.00     0.037 A 
HETATM   15  C11 UNL     1      23.560  -1.098  54.942  1.00  0.00     0.065 A 
HETATM   16  C12 UNL     1      24.897  -0.791  54.900  1.00  0.00     0.037 A 
HETATM   17  C13 UNL     1      25.334   0.095  53.910  1.00  0.00     0.015 A 
BRANCH  15  18
HETATM   18  O4  UNL     1      23.118  -1.979  55.924  1.00  0.00    -0.361 OA
HETATM   19  H9  UNL     1      22.525  -2.756  55.704  1.00  0.00     0.217 HD
ENDBRANCH  15  18
ENDBRANCH   7  12
BRANCH  11  20
HETATM   20  O6  UNL     1      23.267   5.228  51.244  1.00  0.00    -0.357 OA
HETATM   21  H12 UNL     1      23.354   5.582  52.208  1.00  0.00     0.218 HD
ENDBRANCH  11  20
BRANCH   1  22
HETATM   22  O1  UNL     1      24.552   6.981  49.436  1.00  0.00    -0.351 OA
HETATM   23  C1  UNL     1      24.689   8.176  50.146  1.00  0.00     0.210 C 
ENDBRANCH   1  22
BRANCH   2  24
HETATM   24  O2  UNL     1      26.907   6.226  48.303  1.00  0.00    -0.358 OA
HETATM   25  H4  UNL     1      27.894   6.259  48.202  1.00  0.00     0.217 HD
ENDBRANCH   2  24
TORSDOF 5
ENDMDL
MODEL 9
REMARK VINA RESULT:      -7.0      3.777      7.111
REMARK  5 active torsions:
REMARK  status: ('A' for Active; 'I' for Inactive)
REMARK    1  A    between atoms: O1_2  and  C2_3 
REMARK    2  A    between atoms: C3_4  and  O2_5 
REMARK    3  A    between atoms: C7_10  and  C8_11 
REMARK    4  A    between atoms: C11_14  and  O4_15 
REMARK    5  A    between atoms: C16_21  and  O6_22 
ROOT
HETATM    1  C2  UNL     1      25.845  -0.223  53.998  1.00  0.00     0.135 A 
HETATM    2  C3  UNL     1      27.170   0.173  53.931  1.00  0.00     0.104 A 
HETATM    3  C4  UNL     1      27.649   1.123  53.050  1.00  0.00     0.077 A 
HETATM    4  C5  UNL     1      26.726   1.694  52.197  1.00  0.00     0.094 A 
HETATM    5  O3  UNL     1      27.165   2.610  51.344  1.00  0.00    -0.321 OA
HETATM    6  C6  UNL     1      26.367   3.207  50.496  1.00  0.00     0.159 A 
HETATM    7  C7  UNL     1      25.020   2.915  50.448  1.00  0.00     0.048 A 
HETATM    8  C14 UNL     1      24.551   1.953  51.344  1.00  0.00     0.200 A 
HETATM    9  O5  UNL     1      23.344   1.642  51.353  1.00  0.00    -0.286 OA
HETATM   10  C15 UNL     1      25.397   1.327  52.234  1.00  0.00     0.085 A 
HETATM   11  C16 UNL     1      24.968   0.382  53.121  1.00  0.00     0.119 A 
ENDROOT
BRANCH   7  12
HETATM   12  C8  UNL     1      24.044   3.514  49.552  1.00  0.00    -0.020 A 
HETATM   13  C9  UNL     1      23.276   2.893  48.609  1.00  0.00     0.015 A 
HETATM   14  C10 UNL     1      22.402   3.657  47.854  1.00  0.00     0.037 A 
HETATM   15  C11 UNL     1      22.310   5.035  48.059  1.00  0.00     0.065 A 
HETATM   16  C12 UNL     1      23.076   5.670  49.004  1.00  0.00     0.037 A 
HETATM   17  C13 UNL     1      23.957   4.891  49.761  1.00  0.00     0.015 A 
BRANCH  15  18
HETATM   18  O4  UNL     1      21.431   5.803  47.301  1.00  0.00    -0.361 OA
HETATM   19  H9  UNL     1      21.626   6.036  46.346  1.00  0.00     0.217 HD
ENDBRANCH  15  18
ENDBRANCH   7  12
BRANCH  11  20
HETATM   20  O6  UNL     1      23.627   0.010  53.159  1.00  0.00    -0.357 OA
HETATM   21  H12 UNL     1      23.438  -0.860  53.678  1.00  0.00     0.218 HD
ENDBRANCH  11  20
BRANCH   1  22
HETATM   22  O1  UNL     1      25.495  -1.177  54.917  1.00  0.00    -0.351 OA
HETATM   23  C1  UNL     1      24.955  -0.967  56.188  1.00  0.00     0.210 C 
ENDBRANCH   1  22
BRANCH   2  24
HETATM   24  O2  UNL     1      28.102  -0.410  54.797  1.00  0.00    -0.358 OA
HETATM   25  H4  UNL     1      29.011  -0.039  54.940  1.00  0.00     0.217 HD
ENDBRANCH   2  24
TORSDOF 5
ENDMDL
