MODEL 1
REMARK VINA RESULT:      -8.9      0.000      0.000
REMARK  5 active torsions:
REMARK  status: ('A' for Active; 'I' for Inactive)
REMARK    1  A    between atoms: C2_2  and  C3_4 
REMARK    2  A    between atoms: N4_23  and  C17_24 
REMARK    3  A    between atoms: C17_24  and  C18_25 
REMARK    4  A    between atoms: C18_25  and  C19_26 
REMARK    5  A    between atoms: C19_26  and  N5_27 
ROOT
HETATM    1  C3  UNL     1      20.492   4.503  50.034  1.00  0.00    -0.048 C 
HETATM    2  C4  UNL     1      21.557   4.657  50.845  1.00  0.00     0.052 C 
HETATM    3  C5  UNL     1      22.465   5.666  51.465  1.00  0.00     0.000 C 
HETATM    4  C6  UNL     1      23.397   5.126  52.223  1.00  0.00     0.082 C 
HETATM    5  N1  UNL     1      23.976   3.910  52.761  1.00  0.00    -0.374 N 
HETATM    6  C7  UNL     1      23.432   2.711  52.016  1.00  0.00     0.228 C 
HETATM    7  C8  UNL     1      23.839   1.457  52.609  1.00  0.00     0.053 C 
HETATM    8  C9  UNL     1      22.905   0.534  52.887  1.00  0.00     0.070 C 
HETATM    9  C10 UNL     1      21.517   0.613  52.649  1.00  0.00     0.098 C 
HETATM   10  C11 UNL     1      20.796   1.256  51.800  1.00  0.00     0.066 C 
HETATM   11  C12 UNL     1      21.047   2.162  50.680  1.00  0.00     0.038 C 
HETATM   12  N2  UNL     1      22.317   2.034  50.582  1.00  0.00    -0.263 NA
HETATM   13  C13 UNL     1      23.143   2.680  49.637  1.00  0.00     0.272 C 
HETATM   14  N3  UNL     1      23.740   3.018  50.685  1.00  0.00    -0.270 NA
HETATM   15  C14 UNL     1      20.208   3.037  49.916  1.00  0.00     0.095 C 
HETATM   16  O1  UNL     1      20.799  -0.222  53.498  1.00  0.00    -0.340 OA
HETATM   17  C15 UNL     1      21.295  -1.417  54.068  1.00  0.00     0.279 C 
HETATM   18  C16 UNL     1      22.636  -1.163  54.620  1.00  0.00     0.248 C 
HETATM   19  O2  UNL     1      22.893  -1.717  55.745  1.00  0.00    -0.271 OA
HETATM   20  N4  UNL     1      23.531  -0.315  53.840  1.00  0.00    -0.314 N 
HETATM   21  H6  UNL     1      24.628   3.661  53.491  1.00  0.00     0.161 HD
ENDROOT
BRANCH  20  22
HETATM   22  C17 UNL     1      24.922  -0.482  54.173  1.00  0.00     0.134 C 
BRANCH  22  23
HETATM   23  C18 UNL     1      25.696  -1.262  53.102  1.00  0.00     0.050 C 
BRANCH  23  24
HETATM   24  C19 UNL     1      26.773  -0.437  52.527  1.00  0.00     0.274 C 
BRANCH  24  25
HETATM   25  N5  UNL     1      27.424   0.479  53.391  1.00  0.00     0.092 N 
HETATM   26  C20 UNL     1      28.749   0.138  53.797  1.00  0.00     0.298 C 
HETATM   27  C21 UNL     1      29.148   0.987  54.961  1.00  0.00     0.198 C 
HETATM   28  O3  UNL     1      29.160   2.319  54.563  1.00  0.00    -0.388 OA
HETATM   29  C22 UNL     1      28.685   2.556  53.302  1.00  0.00     0.198 C 
HETATM   30  C23 UNL     1      27.404   1.840  52.962  1.00  0.00     0.298 C 
ENDBRANCH  24  25
ENDBRANCH  23  24
ENDBRANCH  22  23
ENDBRANCH  20  22
BRANCH   1  31
HETATM   31  C2  UNL     1      19.494   5.248  49.202  1.00  0.00     0.015 C 
HETATM   32  C1  UNL     1      19.294   6.535  49.288  1.00  0.00     0.057 C 
HETATM   33 CL1  UNL     1      18.605   4.191  48.081  1.00  0.00    -0.089 Cl
ENDBRANCH   1  31
TORSDOF 5
ENDMDL
MODEL 2
REMARK VINA RESULT:      -8.2      4.905      8.710
REMARK  5 active torsions:
REMARK  status: ('A' for Active; 'I' for Inactive)
REMARK    1  A    between atoms: C2_2  and  C3_4 
REMARK    2  A    between atoms: N4_23  and  C17_24 
REMARK    3  A    between atoms: C17_24  and  C18_25 
REMARK    4  A    between atoms: C18_25  and  C19_26 
REMARK    5  A    between atoms: C19_26  and  N5_27 
ROOT
HETATM    1  C3  UNL     1      23.124   1.063  52.244  1.00  0.00    -0.048 C 
HETATM    2  C4  UNL     1      22.243   1.137  51.226  1.00  0.00     0.052 C 
HETATM    3  C5  UNL     1      22.098   1.469  49.779  1.00  0.00     0.000 C 
HETATM    4  C6  UNL     1      20.863   1.334  49.339  1.00  0.00     0.082 C 
HETATM    5  N1  UNL     1      19.491   0.984  49.650  1.00  0.00    -0.374 N 
HETATM    6  C7  UNL     1      19.307   0.923  51.151  1.00  0.00     0.228 C 
HETATM    7  C8  UNL     1      18.006   0.418  51.531  1.00  0.00     0.053 C 
HETATM    8  C9  UNL     1      17.931  -0.586  52.419  1.00  0.00     0.070 C 
HETATM    9  C10 UNL     1      18.995  -1.232  53.081  1.00  0.00     0.098 C 
HETATM   10  C11 UNL     1      20.185  -0.874  53.412  1.00  0.00     0.066 C 
HETATM   11  C12 UNL     1      20.985   0.345  53.301  1.00  0.00     0.038 C 
HETATM   12  N2  UNL     1      20.079   1.161  52.913  1.00  0.00    -0.263 NA
HETATM   13  C13 UNL     1      20.263   2.535  52.645  1.00  0.00     0.272 C 
HETATM   14  N3  UNL     1      19.741   2.190  51.560  1.00  0.00    -0.270 NA
HETATM   15  C14 UNL     1      22.381   0.623  53.468  1.00  0.00     0.095 C 
HETATM   16  O1  UNL     1      18.645  -2.514  53.492  1.00  0.00    -0.340 OA
HETATM   17  C15 UNL     1      17.331  -2.932  53.806  1.00  0.00     0.279 C 
HETATM   18  C16 UNL     1      16.416  -2.470  52.750  1.00  0.00     0.248 C 
HETATM   19  O2  UNL     1      15.506  -3.298  52.395  1.00  0.00    -0.271 OA
HETATM   20  N4  UNL     1      16.634  -1.130  52.215  1.00  0.00    -0.314 N 
HETATM   21  H6  UNL     1      18.648   0.770  49.139  1.00  0.00     0.161 HD
ENDROOT
BRANCH  20  22
HETATM   22  C17 UNL     1      15.477  -0.575  51.560  1.00  0.00     0.134 C 
BRANCH  22  23
HETATM   23  C18 UNL     1      14.378  -0.163  52.549  1.00  0.00     0.050 C 
BRANCH  23  24
HETATM   24  C19 UNL     1      13.724   1.085  52.118  1.00  0.00     0.274 C 
BRANCH  24  25
HETATM   25  N5  UNL     1      13.904   2.230  52.935  1.00  0.00     0.092 N 
HETATM   26  C20 UNL     1      14.616   3.321  52.352  1.00  0.00     0.298 C 
HETATM   27  C21 UNL     1      15.031   4.275  53.426  1.00  0.00     0.198 C 
HETATM   28  O3  UNL     1      13.894   4.792  54.034  1.00  0.00    -0.388 OA
HETATM   29  C22 UNL     1      12.712   4.230  53.635  1.00  0.00     0.198 C 
HETATM   30  C23 UNL     1      12.719   2.726  53.557  1.00  0.00     0.298 C 
ENDBRANCH  24  25
ENDBRANCH  23  24
ENDBRANCH  22  23
ENDBRANCH  20  22
BRANCH   1  31
HETATM   31  C2  UNL     1      24.562   1.265  52.608  1.00  0.00     0.015 C 
HETATM   32  C1  UNL     1      25.499   0.384  52.381  1.00  0.00     0.057 C 
HETATM   33 CL1  UNL     1      24.862   2.836  53.388  1.00  0.00    -0.089 Cl
ENDBRANCH   1  31
TORSDOF 5
ENDMDL
MODEL 3
REMARK VINA RESULT:      -8.2      3.238      6.898
REMARK  5 active torsions:
REMARK  status: ('A' for Active; 'I' for Inactive)
REMARK    1  A    between atoms: C2_2  and  C3_4 
REMARK    2  A    between atoms: N4_23  and  C17_24 
REMARK    3  A    between atoms: C17_24  and  C18_25 
REMARK    4  A    between atoms: C18_25  and  C19_26 
REMARK    5  A    between atoms: C19_26  and  N5_27 
ROOT
HETATM    1  C3  UNL     1      26.529   0.211  52.595  1.00  0.00    -0.048 C 
HETATM    2  C4  UNL     1      26.088   1.198  51.791  1.00  0.00     0.052 C 
HETATM    3  C5  UNL     1      26.482   2.125  50.691  1.00  0.00     0.000 C 
HETATM    4  C6  UNL     1      25.506   2.926  50.314  1.00  0.00     0.082 C 
HETATM    5  N1  UNL     1      24.129   3.339  50.502  1.00  0.00    -0.374 N 
HETATM    6  C7  UNL     1      23.597   2.769  51.798  1.00  0.00     0.228 C 
HETATM    7  C8  UNL     1      22.179   3.004  51.967  1.00  0.00     0.053 C 
HETATM    8  C9  UNL     1      21.379   1.968  52.269  1.00  0.00     0.070 C 
HETATM    9  C10 UNL     1      21.751   0.624  52.476  1.00  0.00     0.098 C 
HETATM   10  C11 UNL     1      22.834   0.051  52.866  1.00  0.00     0.066 C 
HETATM   11  C12 UNL     1      24.157   0.491  53.305  1.00  0.00     0.038 C 
HETATM   12  N2  UNL     1      23.941   1.748  53.409  1.00  0.00    -0.263 NA
HETATM   13  C13 UNL     1      24.880   2.718  53.821  1.00  0.00     0.272 C 
HETATM   14  N3  UNL     1      24.526   3.235  52.736  1.00  0.00    -0.270 NA
HETATM   15  C14 UNL     1      25.405  -0.187  53.500  1.00  0.00     0.095 C 
HETATM   16  O1  UNL     1      20.691  -0.246  52.244  1.00  0.00    -0.340 OA
HETATM   17  C15 UNL     1      19.324   0.084  52.397  1.00  0.00     0.279 C 
HETATM   18  C16 UNL     1      19.069   1.380  51.747  1.00  0.00     0.248 C 
HETATM   19  O2  UNL     1      17.972   1.473  51.095  1.00  0.00    -0.271 OA
HETATM   20  N4  UNL     1      20.081   2.419  51.907  1.00  0.00    -0.314 N 
HETATM   21  H6  UNL     1      23.447   3.891  50.001  1.00  0.00     0.161 HD
ENDROOT
BRANCH  20  22
HETATM   22  C17 UNL     1      19.584   3.750  51.668  1.00  0.00     0.134 C 
BRANCH  22  23
HETATM   23  C18 UNL     1      18.948   3.904  50.281  1.00  0.00     0.050 C 
BRANCH  23  24
HETATM   24  C19 UNL     1      19.906   4.484  49.324  1.00  0.00     0.274 C 
BRANCH  24  25
HETATM   25  N5  UNL     1      20.944   3.642  48.849  1.00  0.00     0.092 N 
HETATM   26  C20 UNL     1      20.564   2.322  48.462  1.00  0.00     0.298 C 
HETATM   27  C21 UNL     1      21.785   1.468  48.340  1.00  0.00     0.198 C 
HETATM   28  O3  UNL     1      22.596   1.983  47.336  1.00  0.00    -0.388 OA
HETATM   29  C22 UNL     1      22.189   3.180  46.813  1.00  0.00     0.198 C 
HETATM   30  C23 UNL     1      21.768   4.207  47.830  1.00  0.00     0.298 C 
ENDBRANCH  24  25
ENDBRANCH  23  24
ENDBRANCH  22  23
ENDBRANCH  20  22
BRANCH   1  31
HETATM   31  C2  UNL     1      27.724  -0.629  52.924  1.00  0.00     0.015 C 
HETATM   32  C1  UNL     1      28.835  -0.151  53.416  1.00  0.00     0.057 C 
HETATM   33 CL1  UNL     1      27.471  -2.355  52.574  1.00  0.00    -0.089 Cl
ENDBRANCH   1  31
TORSDOF 5
ENDMDL
MODEL 4
REMARK VINA RESULT:      -8.1      3.141      6.773
REMARK  5 active torsions:
REMARK  status: ('A' for Active; 'I' for Inactive)
REMARK    1  A    between atoms: C2_2  and  C3_4 
REMARK    2  A    between atoms: N4_23  and  C17_24 
REMARK    3  A    between atoms: C17_24  and  C18_25 
REMARK    4  A    between atoms: C18_25  and  C19_26 
REMARK    5  A    between atoms: C19_26  and  N5_27 
ROOT
HETATM    1  C3  UNL     1      26.846  -0.105  52.751  1.00  0.00    -0.048 C 
HETATM    2  C4  UNL     1      26.404   0.892  51.961  1.00  0.00     0.052 C 
HETATM    3  C5  UNL     1      26.792   1.821  50.860  1.00  0.00     0.000 C 
HETATM    4  C6  UNL     1      25.821   2.636  50.504  1.00  0.00     0.082 C 
HETATM    5  N1  UNL     1      24.452   3.065  50.716  1.00  0.00    -0.374 N 
HETATM    6  C7  UNL     1      23.933   2.494  52.017  1.00  0.00     0.228 C 
HETATM    7  C8  UNL     1      22.522   2.745  52.210  1.00  0.00     0.053 C 
HETATM    8  C9  UNL     1      21.714   1.717  52.519  1.00  0.00     0.070 C 
HETATM    9  C10 UNL     1      22.072   0.367  52.712  1.00  0.00     0.098 C 
HETATM   10  C11 UNL     1      23.154  -0.222  53.081  1.00  0.00     0.066 C 
HETATM   11  C12 UNL     1      24.490   0.200  53.501  1.00  0.00     0.038 C 
HETATM   12  N2  UNL     1      24.290   1.459  53.616  1.00  0.00    -0.263 NA
HETATM   13  C13 UNL     1      25.248   2.414  54.019  1.00  0.00     0.272 C 
HETATM   14  N3  UNL     1      24.883   2.942  52.943  1.00  0.00    -0.270 NA
HETATM   15  C14 UNL     1      25.732  -0.495  53.673  1.00  0.00     0.095 C 
HETATM   16  O1  UNL     1      20.998  -0.488  52.491  1.00  0.00    -0.340 OA
HETATM   17  C15 UNL     1      19.638  -0.143  52.669  1.00  0.00     0.279 C 
HETATM   18  C16 UNL     1      19.389   1.161  52.031  1.00  0.00     0.248 C 
HETATM   19  O2  UNL     1      18.283   1.271  51.397  1.00  0.00    -0.271 OA
HETATM   20  N4  UNL     1      20.415   2.186  52.181  1.00  0.00    -0.314 N 
HETATM   21  H6  UNL     1      23.769   3.628  50.230  1.00  0.00     0.161 HD
ENDROOT
BRANCH  20  22
HETATM   22  C17 UNL     1      19.932   3.525  51.958  1.00  0.00     0.134 C 
BRANCH  22  23
HETATM   23  C18 UNL     1      19.947   3.919  50.475  1.00  0.00     0.050 C 
BRANCH  23  24
HETATM   24  C19 UNL     1      20.408   5.308  50.305  1.00  0.00     0.274 C 
BRANCH  24  25
HETATM   25  N5  UNL     1      21.796   5.513  50.098  1.00  0.00     0.092 N 
HETATM   26  C20 UNL     1      22.175   6.066  48.838  1.00  0.00     0.298 C 
HETATM   27  C21 UNL     1      23.645   5.882  48.634  1.00  0.00     0.198 C 
HETATM   28  O3  UNL     1      24.327   6.581  49.623  1.00  0.00    -0.388 OA
HETATM   29  C22 UNL     1      23.540   7.131  50.598  1.00  0.00     0.198 C 
HETATM   30  C23 UNL     1      22.470   6.220  51.139  1.00  0.00     0.298 C 
ENDBRANCH  24  25
ENDBRANCH  23  24
ENDBRANCH  22  23
ENDBRANCH  20  22
BRANCH   1  31
HETATM   31  C2  UNL     1      28.036  -0.962  53.057  1.00  0.00     0.015 C 
HETATM   32  C1  UNL     1      29.162  -0.500  53.528  1.00  0.00     0.057 C 
HETATM   33 CL1  UNL     1      27.753  -2.684  52.708  1.00  0.00    -0.089 Cl
ENDBRANCH   1  31
TORSDOF 5
ENDMDL
MODEL 5
REMARK VINA RESULT:      -8.0      6.386      8.344
REMARK  5 active torsions:
REMARK  status: ('A' for Active; 'I' for Inactive)
REMARK    1  A    between atoms: C2_2  and  C3_4 
REMARK    2  A    between atoms: N4_23  and  C17_24 
REMARK    3  A    between atoms: C17_24  and  C18_25 
REMARK    4  A    between atoms: C18_25  and  C19_26 
REMARK    5  A    between atoms: C19_26  and  N5_27 
ROOT
HETATM    1  C3  UNL     1      30.114  10.052  48.597  1.00  0.00    -0.048 C 
HETATM    2  C4  UNL     1      30.260   8.717  48.707  1.00  0.00     0.052 C 
HETATM    3  C5  UNL     1      31.262   7.617  48.811  1.00  0.00     0.000 C 
HETATM    4  C6  UNL     1      30.713   6.423  48.891  1.00  0.00     0.082 C 
HETATM    5  N1  UNL     1      29.491   5.644  48.924  1.00  0.00    -0.374 N 
HETATM    6  C7  UNL     1      28.323   6.508  48.500  1.00  0.00     0.228 C 
HETATM    7  C8  UNL     1      27.050   5.843  48.670  1.00  0.00     0.053 C 
HETATM    8  C9  UNL     1      26.069   6.474  49.336  1.00  0.00     0.070 C 
HETATM    9  C10 UNL     1      26.103   7.766  49.900  1.00  0.00     0.098 C 
HETATM   10  C11 UNL     1      26.770   8.833  49.637  1.00  0.00     0.066 C 
HETATM   11  C12 UNL     1      27.761   9.235  48.640  1.00  0.00     0.038 C 
HETATM   12  N2  UNL     1      27.698   8.226  47.856  1.00  0.00    -0.263 NA
HETATM   13  C13 UNL     1      28.443   8.051  46.670  1.00  0.00     0.272 C 
HETATM   14  N3  UNL     1      28.735   6.977  47.247  1.00  0.00    -0.270 NA
HETATM   15  C14 UNL     1      28.649  10.355  48.532  1.00  0.00     0.095 C 
HETATM   16  O1  UNL     1      25.180   7.903  50.931  1.00  0.00    -0.340 OA
HETATM   17  C15 UNL     1      23.971   7.176  51.037  1.00  0.00     0.279 C 
HETATM   18  C16 UNL     1      24.246   5.752  50.787  1.00  0.00     0.248 C 
HETATM   19  O2  UNL     1      23.627   4.922  51.540  1.00  0.00    -0.271 OA
HETATM   20  N4  UNL     1      25.185   5.429  49.719  1.00  0.00    -0.314 N 
HETATM   21  H6  UNL     1      29.221   4.699  49.157  1.00  0.00     0.161 HD
ENDROOT
BRANCH  20  22
HETATM   22  C17 UNL     1      25.057   4.082  49.225  1.00  0.00     0.134 C 
BRANCH  22  23
HETATM   23  C18 UNL     1      25.189   3.030  50.334  1.00  0.00     0.050 C 
BRANCH  23  24
HETATM   24  C19 UNL     1      26.598   2.850  50.723  1.00  0.00     0.274 C 
BRANCH  24  25
HETATM   25  N5  UNL     1      26.894   1.810  51.641  1.00  0.00     0.092 N 
HETATM   26  C20 UNL     1      27.648   2.177  52.796  1.00  0.00     0.298 C 
HETATM   27  C21 UNL     1      28.179   0.945  53.456  1.00  0.00     0.198 C 
HETATM   28  O3  UNL     1      27.109   0.166  53.882  1.00  0.00    -0.388 OA
HETATM   29  C22 UNL     1      25.874   0.606  53.491  1.00  0.00     0.198 C 
HETATM   30  C23 UNL     1      25.776   1.020  52.046  1.00  0.00     0.298 C 
ENDBRANCH  24  25
ENDBRANCH  23  24
ENDBRANCH  22  23
ENDBRANCH  20  22
BRANCH   1  31
HETATM   31  C2  UNL     1      30.870  11.342  48.508  1.00  0.00     0.015 C 
HETATM   32  C1  UNL     1      30.525  12.431  49.142  1.00  0.00     0.057 C 
HETATM   33 CL1  UNL     1      32.292  11.236  47.444  1.00  0.00    -0.089 Cl
ENDBRANCH   1  31
TORSDOF 5
ENDMDL
MODEL 6
REMARK VINA RESULT:      -7.9      5.952      8.546
REMARK  5 active torsions:
REMARK  status: ('A' for Active; 'I' for Inactive)
REMARK    1  A    between atoms: C2_2  and  C3_4 
REMARK    2  A    between atoms: N4_23  and  C17_24 
REMARK    3  A    between atoms: C17_24  and  C18_25 
REMARK    4  A    between atoms: C18_25  and  C19_26 
REMARK    5  A    between atoms: C19_26  and  N5_27 
ROOT
HETATM    1  C3  UNL     1      23.294   2.441  51.328  1.00  0.00    -0.048 C 
HETATM    2  C4  UNL     1      23.463   3.697  51.784  1.00  0.00     0.052 C 
HETATM    3  C5  UNL     1      23.141   4.627  52.905  1.00  0.00     0.000 C 
HETATM    4  C6  UNL     1      23.642   5.834  52.736  1.00  0.00     0.082 C 
HETATM    5  N1  UNL     1      24.418   6.723  51.895  1.00  0.00    -0.374 N 
HETATM    6  C7  UNL     1      24.590   6.109  50.523  1.00  0.00     0.228 C 
HETATM    7  C8  UNL     1      25.493   6.866  49.685  1.00  0.00     0.053 C 
HETATM    8  C9  UNL     1      26.502   6.226  49.071  1.00  0.00     0.070 C 
HETATM    9  C10 UNL     1      26.804   4.850  49.116  1.00  0.00     0.098 C 
HETATM   10  C11 UNL     1      26.102   3.791  49.316  1.00  0.00     0.066 C 
HETATM   11  C12 UNL     1      24.690   3.496  49.554  1.00  0.00     0.038 C 
HETATM   12  N2  UNL     1      24.187   4.648  49.314  1.00  0.00    -0.263 NA
HETATM   13  C13 UNL     1      22.816   4.981  49.371  1.00  0.00     0.272 C 
HETATM   14  N3  UNL     1      23.267   5.868  50.132  1.00  0.00    -0.270 NA
HETATM   15  C14 UNL     1      23.991   2.329  50.007  1.00  0.00     0.095 C 
HETATM   16  O1  UNL     1      28.146   4.607  48.840  1.00  0.00    -0.340 OA
HETATM   17  C15 UNL     1      28.968   5.429  48.036  1.00  0.00     0.279 C 
HETATM   18  C16 UNL     1      28.779   6.833  48.436  1.00  0.00     0.248 C 
HETATM   19  O2  UNL     1      29.837   7.552  48.476  1.00  0.00    -0.271 OA
HETATM   20  N4  UNL     1      27.420   7.262  48.747  1.00  0.00    -0.314 N 
HETATM   21  H6  UNL     1      24.868   7.623  51.985  1.00  0.00     0.161 HD
ENDROOT
BRANCH  20  22
HETATM   22  C17 UNL     1      27.233   8.689  48.670  1.00  0.00     0.134 C 
BRANCH  22  23
HETATM   23  C18 UNL     1      27.083   9.189  47.227  1.00  0.00     0.050 C 
BRANCH  23  24
HETATM   24  C19 UNL     1      27.628  10.550  47.084  1.00  0.00     0.274 C 
BRANCH  24  25
HETATM   25  N5  UNL     1      28.715  10.909  47.920  1.00  0.00     0.092 N 
HETATM   26  C20 UNL     1      30.016  10.836  47.337  1.00  0.00     0.298 C 
HETATM   27  C21 UNL     1      31.049  10.885  48.417  1.00  0.00     0.198 C 
HETATM   28  O3  UNL     1      30.952  12.103  49.079  1.00  0.00    -0.388 OA
HETATM   29  C22 UNL     1      29.891  12.884  48.711  1.00  0.00     0.198 C 
HETATM   30  C23 UNL     1      28.576  12.157  48.598  1.00  0.00     0.298 C 
ENDBRANCH  24  25
ENDBRANCH  23  24
ENDBRANCH  22  23
ENDBRANCH  20  22
BRANCH   1  31
HETATM   31  C2  UNL     1      22.663   1.120  51.644  1.00  0.00     0.015 C 
HETATM   32  C1  UNL     1      22.943   0.418  52.708  1.00  0.00     0.057 C 
HETATM   33 CL1  UNL     1      21.488   0.605  50.411  1.00  0.00    -0.089 Cl
ENDBRANCH   1  31
TORSDOF 5
ENDMDL
MODEL 7
REMARK VINA RESULT:      -7.9      2.657      3.405
REMARK  5 active torsions:
REMARK  status: ('A' for Active; 'I' for Inactive)
REMARK    1  A    between atoms: C2_2  and  C3_4 
REMARK    2  A    between atoms: N4_23  and  C17_24 
REMARK    3  A    between atoms: C17_24  and  C18_25 
REMARK    4  A    between atoms: C18_25  and  C19_26 
REMARK    5  A    between atoms: C19_26  and  N5_27 
ROOT
HETATM    1  C3  UNL     1      16.375   1.442  51.221  1.00  0.00    -0.048 C 
HETATM    2  C4  UNL     1      17.397   2.298  51.414  1.00  0.00     0.052 C 
HETATM    3  C5  UNL     1      17.768   3.742  51.466  1.00  0.00     0.000 C 
HETATM    4  C6  UNL     1      19.046   3.940  51.714  1.00  0.00     0.082 C 
HETATM    5  N1  UNL     1      20.342   3.344  51.977  1.00  0.00    -0.374 N 
HETATM    6  C7  UNL     1      20.301   1.867  51.650  1.00  0.00     0.228 C 
HETATM    7  C8  UNL     1      21.510   1.178  52.045  1.00  0.00     0.053 C 
HETATM    8  C9  UNL     1      21.411   0.063  52.788  1.00  0.00     0.070 C 
HETATM    9  C10 UNL     1      20.234  -0.571  53.238  1.00  0.00     0.098 C 
HETATM   10  C11 UNL     1      19.025  -0.614  52.803  1.00  0.00     0.066 C 
HETATM   11  C12 UNL     1      18.302  -0.077  51.651  1.00  0.00     0.038 C 
HETATM   12  N2  UNL     1      19.289   0.362  50.966  1.00  0.00    -0.263 NA
HETATM   13  C13 UNL     1      19.205   0.994  49.706  1.00  0.00     0.272 C 
HETATM   14  N3  UNL     1      19.866   1.865  50.320  1.00  0.00    -0.270 NA
HETATM   15  C14 UNL     1      16.910   0.048  51.335  1.00  0.00     0.095 C 
HETATM   16  O1  UNL     1      20.466  -1.342  54.373  1.00  0.00    -0.340 OA
HETATM   17  C15 UNL     1      21.700  -1.949  54.701  1.00  0.00     0.279 C 
HETATM   18  C16 UNL     1      22.779  -0.962  54.528  1.00  0.00     0.248 C 
HETATM   19  O2  UNL     1      23.695  -0.972  55.423  1.00  0.00    -0.271 OA
HETATM   20  N4  UNL     1      22.699  -0.078  53.370  1.00  0.00    -0.314 N 
HETATM   21  H6  UNL     1      21.242   3.650  52.318  1.00  0.00     0.161 HD
ENDROOT
BRANCH  20  22
HETATM   22  C17 UNL     1      23.962   0.512  53.006  1.00  0.00     0.134 C 
BRANCH  22  23
HETATM   23  C18 UNL     1      25.040  -0.538  52.706  1.00  0.00     0.050 C 
BRANCH  23  24
HETATM   24  C19 UNL     1      26.297   0.105  52.285  1.00  0.00     0.274 C 
BRANCH  24  25
HETATM   25  N5  UNL     1      27.119   0.657  53.301  1.00  0.00     0.092 N 
HETATM   26  C20 UNL     1      28.362  -0.001  53.540  1.00  0.00     0.298 C 
HETATM   27  C21 UNL     1      28.927   0.459  54.846  1.00  0.00     0.198 C 
HETATM   28  O3  UNL     1      29.180   1.823  54.771  1.00  0.00    -0.388 OA
HETATM   29  C22 UNL     1      28.742   2.437  53.630  1.00  0.00     0.198 C 
HETATM   30  C23 UNL     1      27.346   2.063  53.204  1.00  0.00     0.298 C 
ENDBRANCH  24  25
ENDBRANCH  23  24
ENDBRANCH  22  23
ENDBRANCH  20  22
BRANCH   1  31
HETATM   31  C2  UNL     1      14.908   1.365  50.928  1.00  0.00     0.015 C 
HETATM   32  C1  UNL     1      14.282   0.255  50.644  1.00  0.00     0.057 C 
HETATM   33 CL1  UNL     1      14.105   2.951  51.006  1.00  0.00    -0.089 Cl
ENDBRANCH   1  31
TORSDOF 5
ENDMDL
MODEL 8
REMARK VINA RESULT:      -7.7      3.972      8.269
REMARK  5 active torsions:
REMARK  status: ('A' for Active; 'I' for Inactive)
REMARK    1  A    between atoms: C2_2  and  C3_4 
REMARK    2  A    between atoms: N4_23  and  C17_24 
REMARK    3  A    between atoms: C17_24  and  C18_25 
REMARK    4  A    between atoms: C18_25  and  C19_26 
REMARK    5  A    between atoms: C19_26  and  N5_27 
ROOT
HETATM    1  C3  UNL     1      24.124   0.556  52.959  1.00  0.00    -0.048 C 
HETATM    2  C4  UNL     1      22.806   0.819  53.063  1.00  0.00     0.052 C 
HETATM    3  C5  UNL     1      21.548   0.423  53.759  1.00  0.00     0.000 C 
HETATM    4  C6  UNL     1      20.502   1.126  53.376  1.00  0.00     0.082 C 
HETATM    5  N1  UNL     1      19.989   2.181  52.525  1.00  0.00    -0.374 N 
HETATM    6  C7  UNL     1      21.015   2.530  51.469  1.00  0.00     0.228 C 
HETATM    7  C8  UNL     1      20.637   3.688  50.689  1.00  0.00     0.053 C 
HETATM    8  C9  UNL     1      21.519   4.690  50.543  1.00  0.00     0.070 C 
HETATM    9  C10 UNL     1      22.832   4.764  51.050  1.00  0.00     0.098 C 
HETATM   10  C11 UNL     1      23.712   3.883  51.373  1.00  0.00     0.066 C 
HETATM   11  C12 UNL     1      23.798   2.424  51.342  1.00  0.00     0.038 C 
HETATM   12  N2  UNL     1      22.742   2.161  50.670  1.00  0.00    -0.263 NA
HETATM   13  C13 UNL     1      22.294   0.873  50.301  1.00  0.00     0.272 C 
HETATM   14  N3  UNL     1      21.254   1.291  50.861  1.00  0.00    -0.270 NA
HETATM   15  C14 UNL     1      24.702   1.479  51.931  1.00  0.00     0.095 C 
HETATM   16  O1  UNL     1      23.261   6.080  51.183  1.00  0.00    -0.340 OA
HETATM   17  C15 UNL     1      22.804   7.163  50.397  1.00  0.00     0.279 C 
HETATM   18  C16 UNL     1      21.335   7.113  50.321  1.00  0.00     0.248 C 
HETATM   19  O2  UNL     1      20.731   8.239  50.403  1.00  0.00    -0.271 OA
HETATM   20  N4  UNL     1      20.717   5.801  50.163  1.00  0.00    -0.314 N 
HETATM   21  H6  UNL     1      19.147   2.735  52.458  1.00  0.00     0.161 HD
ENDROOT
BRANCH  20  22
HETATM   22  C17 UNL     1      19.376   5.853  49.638  1.00  0.00     0.134 C 
BRANCH  22  23
HETATM   23  C18 UNL     1      19.343   5.918  48.106  1.00  0.00     0.050 C 
BRANCH  23  24
HETATM   24  C19 UNL     1      18.867   4.646  47.536  1.00  0.00     0.274 C 
BRANCH  24  25
HETATM   25  N5  UNL     1      19.621   4.084  46.474  1.00  0.00     0.092 N 
HETATM   26  C20 UNL     1      19.557   4.763  45.220  1.00  0.00     0.298 C 
HETATM   27  C21 UNL     1      20.088   3.872  44.144  1.00  0.00     0.198 C 
HETATM   28  O3  UNL     1      21.425   3.597  44.405  1.00  0.00    -0.388 OA
HETATM   29  C22 UNL     1      21.891   4.058  45.606  1.00  0.00     0.198 C 
HETATM   30  C23 UNL     1      20.985   3.799  46.781  1.00  0.00     0.298 C 
ENDBRANCH  24  25
ENDBRANCH  23  24
ENDBRANCH  22  23
ENDBRANCH  20  22
BRANCH   1  31
HETATM   31  C2  UNL     1      25.221  -0.319  53.481  1.00  0.00     0.015 C 
HETATM   32  C1  UNL     1      26.311  -0.591  52.817  1.00  0.00     0.057 C 
HETATM   33 CL1  UNL     1      24.881  -0.953  55.109  1.00  0.00    -0.089 Cl
ENDBRANCH   1  31
TORSDOF 5
ENDMDL
MODEL 9
REMARK VINA RESULT:      -7.4      5.441      9.535
REMARK  5 active torsions:
REMARK  status: ('A' for Active; 'I' for Inactive)
REMARK    1  A    between atoms: C2_2  and  C3_4 
REMARK    2  A    between atoms: N4_23  and  C17_24 
REMARK    3  A    between atoms: C17_24  and  C18_25 
REMARK    4  A    between atoms: C18_25  and  C19_26 
REMARK    5  A    between atoms: C19_26  and  N5_27 
ROOT
HETATM    1  C3  UNL     1      22.567   0.673  52.138  1.00  0.00    -0.048 C 
HETATM    2  C4  UNL     1      21.965   1.044  50.991  1.00  0.00     0.052 C 
HETATM    3  C5  UNL     1      22.209   1.422  49.568  1.00  0.00     0.000 C 
HETATM    4  C6  UNL     1      21.103   1.705  48.911  1.00  0.00     0.082 C 
HETATM    5  N1  UNL     1      19.658   1.824  48.953  1.00  0.00    -0.374 N 
HETATM    6  C7  UNL     1      19.186   1.811  50.390  1.00  0.00     0.228 C 
HETATM    7  C8  UNL     1      17.744   1.759  50.500  1.00  0.00     0.053 C 
HETATM    8  C9  UNL     1      17.184   0.826  51.287  1.00  0.00     0.070 C 
HETATM    9  C10 UNL     1      17.839  -0.142  52.076  1.00  0.00     0.098 C 
HETATM   10  C11 UNL     1      18.997  -0.200  52.633  1.00  0.00     0.066 C 
HETATM   11  C12 UNL     1      20.152   0.688  52.752  1.00  0.00     0.038 C 
HETATM   12  N2  UNL     1      19.647   1.761  52.272  1.00  0.00    -0.263 NA
HETATM   13  C13 UNL     1      20.310   3.001  52.141  1.00  0.00     0.272 C 
HETATM   14  N3  UNL     1      19.919   2.859  50.958  1.00  0.00    -0.270 NA
HETATM   15  C14 UNL     1      21.506   0.489  53.179  1.00  0.00     0.095 C 
HETATM   16  O1  UNL     1      17.024  -1.241  52.325  1.00  0.00    -0.340 OA
HETATM   17  C15 UNL     1      15.611  -1.207  52.375  1.00  0.00     0.279 C 
HETATM   18  C16 UNL     1      15.110  -0.457  51.211  1.00  0.00     0.248 C 
HETATM   19  O2  UNL     1      14.066  -0.934  50.645  1.00  0.00    -0.271 OA
HETATM   20  N4  UNL     1      15.844   0.742  50.821  1.00  0.00    -0.314 N 
HETATM   21  H6  UNL     1      18.903   1.906  48.288  1.00  0.00     0.161 HD
ENDROOT
BRANCH  20  22
HETATM   22  C17 UNL     1      15.073   1.655  50.017  1.00  0.00     0.134 C 
BRANCH  22  23
HETATM   23  C18 UNL     1      14.709   2.942  50.768  1.00  0.00     0.050 C 
BRANCH  23  24
HETATM   24  C19 UNL     1      13.281   2.951  51.134  1.00  0.00     0.274 C 
BRANCH  24  25
HETATM   25  N5  UNL     1      12.963   2.967  52.516  1.00  0.00     0.092 N 
HETATM   26  C20 UNL     1      12.339   4.152  53.010  1.00  0.00     0.298 C 
HETATM   27  C21 UNL     1      12.402   4.162  54.504  1.00  0.00     0.198 C 
HETATM   28  O3  UNL     1      11.687   3.075  54.993  1.00  0.00    -0.388 OA
HETATM   29  C22 UNL     1      11.234   2.200  54.043  1.00  0.00     0.198 C 
HETATM   30  C23 UNL     1      12.243   1.829  52.989  1.00  0.00     0.298 C 
ENDBRANCH  24  25
ENDBRANCH  23  24
ENDBRANCH  22  23
ENDBRANCH  20  22
BRANCH   1  31
HETATM   31  C2  UNL     1      23.897   0.385  52.760  1.00  0.00     0.015 C 
HETATM   32  C1  UNL     1      24.061  -0.388  53.800  1.00  0.00     0.057 C 
HETATM   33 CL1  UNL     1      25.239   1.210  51.932  1.00  0.00    -0.089 Cl
ENDBRANCH   1  31
TORSDOF 5
ENDMDL
