MODEL 1
REMARK VINA RESULT:      -7.1      0.000      0.000
REMARK  9 active torsions:
REMARK  status: ('A' for Active; 'I' for Inactive)
REMARK    1  A    between atoms: C2_2  and  C3_3 
REMARK    2  A    between atoms: C3_3  and  C4_4 
REMARK    3  A    between atoms: C3_3  and  C15_17 
REMARK    4  A    between atoms: C5_5  and  C6_6 
REMARK    5  A    between atoms: C6_6  and  C7_7 
REMARK    6  A    between atoms: C7_7  and  C8_9 
REMARK    7  A    between atoms: C8_9  and  C10_11 
REMARK    8  A    between atoms: C10_11  and  N1_12 
REMARK    9  A    between atoms: C15_17  and  C16_18 
ROOT
HETATM    1  C4  UNL     1      25.811   2.450  51.971  1.00  0.00     0.004 C 
HETATM    2  C5  UNL     1      26.593   2.205  50.784  1.00  0.00    -0.013 C 
ENDROOT
BRANCH   1   3
HETATM    3  C3  UNL     1      25.581   1.761  53.070  1.00  0.00    -0.058 C 
BRANCH   3   4
HETATM    4  C2  UNL     1      24.185   1.438  52.954  1.00  0.00    -0.019 C 
HETATM    5  C1  UNL     1      23.471   0.282  53.062  1.00  0.00     0.031 C 
ENDBRANCH   3   4
BRANCH   3   6
HETATM    6  C15 UNL     1      26.393   1.346  54.223  1.00  0.00     0.077 C 
BRANCH   6   7
HETATM    7  C16 UNL     1      27.437   0.350  53.855  1.00  0.00    -0.048 A 
HETATM    8  C17 UNL     1      27.035  -0.912  53.445  1.00  0.00     0.008 A 
HETATM    9  C18 UNL     1      27.973  -1.844  53.076  1.00  0.00     0.001 A 
HETATM   10  C19 UNL     1      29.322  -1.594  53.090  1.00  0.00     0.001 A 
HETATM   11  C20 UNL     1      29.687  -0.331  53.503  1.00  0.00     0.007 A 
HETATM   12  C21 UNL     1      28.782   0.648  53.886  1.00  0.00    -0.055 A 
HETATM   13  C22 UNL     1      29.136   2.012  54.357  1.00  0.00     0.049 C 
ENDBRANCH   6   7
ENDBRANCH   3   6
ENDBRANCH   1   3
BRANCH   2  14
HETATM   14  C6  UNL     1      26.505   3.183  49.975  1.00  0.00     0.093 C 
BRANCH  14  15
HETATM   15  C7  UNL     1      26.395   4.414  49.300  1.00  0.00     0.141 C 
HETATM   16  O1  UNL     1      27.612   4.298  48.920  1.00  0.00    -0.297 OA
BRANCH  15  17
HETATM   17  C8  UNL     1      25.449   5.538  48.996  1.00  0.00     0.069 C 
HETATM   18  C9  UNL     1      26.233   6.827  49.195  1.00  0.00     0.020 C 
BRANCH  17  19
HETATM   19  C10 UNL     1      24.334   5.396  49.958  1.00  0.00     0.128 C 
BRANCH  19  20
HETATM   20  N1  UNL     1      23.185   4.721  49.592  1.00  0.00    -0.412 N 
HETATM   21  C11 UNL     1      22.929   4.352  48.255  1.00  0.00     0.117 C 
HETATM   22  C12 UNL     1      22.716   2.847  48.253  1.00  0.00     0.021 C 
HETATM   23  C13 UNL     1      22.755   2.398  49.684  1.00  0.00     0.021 C 
HETATM   24  C14 UNL     1      22.708   3.692  50.466  1.00  0.00     0.117 C 
ENDBRANCH  19  20
ENDBRANCH  17  19
ENDBRANCH  15  17
ENDBRANCH  14  15
ENDBRANCH   2  14
TORSDOF 9
ENDMDL
MODEL 2
REMARK VINA RESULT:      -7.1      1.224      1.576
REMARK  9 active torsions:
REMARK  status: ('A' for Active; 'I' for Inactive)
REMARK    1  A    between atoms: C2_2  and  C3_3 
REMARK    2  A    between atoms: C3_3  and  C4_4 
REMARK    3  A    between atoms: C3_3  and  C15_17 
REMARK    4  A    between atoms: C5_5  and  C6_6 
REMARK    5  A    between atoms: C6_6  and  C7_7 
REMARK    6  A    between atoms: C7_7  and  C8_9 
REMARK    7  A    between atoms: C8_9  and  C10_11 
REMARK    8  A    between atoms: C10_11  and  N1_12 
REMARK    9  A    between atoms: C15_17  and  C16_18 
ROOT
HETATM    1  C4  UNL     1      26.177   2.894  51.178  1.00  0.00     0.004 C 
HETATM    2  C5  UNL     1      26.412   2.686  49.769  1.00  0.00    -0.013 C 
ENDROOT
BRANCH   1   3
HETATM    3  C3  UNL     1      25.761   2.118  52.157  1.00  0.00    -0.058 C 
BRANCH   3   4
HETATM    4  C2  UNL     1      24.525   1.595  51.642  1.00  0.00    -0.019 C 
HETATM    5  C1  UNL     1      23.395   1.100  52.223  1.00  0.00     0.031 C 
ENDBRANCH   3   4
BRANCH   3   6
HETATM    6  C15 UNL     1      26.271   1.767  53.490  1.00  0.00     0.077 C 
BRANCH   6   7
HETATM    7  C16 UNL     1      27.327   0.717  53.438  1.00  0.00    -0.048 A 
HETATM    8  C17 UNL     1      26.950  -0.592  53.181  1.00  0.00     0.008 A 
HETATM    9  C18 UNL     1      27.903  -1.577  53.102  1.00  0.00     0.001 A 
HETATM   10  C19 UNL     1      29.243  -1.336  53.267  1.00  0.00     0.001 A 
HETATM   11  C20 UNL     1      29.583  -0.025  53.521  1.00  0.00     0.007 A 
HETATM   12  C21 UNL     1      28.663   1.008  53.611  1.00  0.00    -0.055 A 
HETATM   13  C22 UNL     1      28.987   2.429  53.904  1.00  0.00     0.049 C 
ENDBRANCH   6   7
ENDBRANCH   3   6
ENDBRANCH   1   3
BRANCH   2  14
HETATM   14  C6  UNL     1      26.818   3.757  49.216  1.00  0.00     0.093 C 
BRANCH  14  15
HETATM   15  C7  UNL     1      27.112   5.063  48.781  1.00  0.00     0.141 C 
HETATM   16  O1  UNL     1      28.334   4.719  48.621  1.00  0.00    -0.297 OA
BRANCH  15  17
HETATM   17  C8  UNL     1      26.504   6.411  48.527  1.00  0.00     0.069 C 
HETATM   18  C9  UNL     1      27.646   7.329  48.117  1.00  0.00     0.020 C 
BRANCH  17  19
HETATM   19  C10 UNL     1      25.878   6.817  49.804  1.00  0.00     0.128 C 
BRANCH  19  20
HETATM   20  N1  UNL     1      24.516   6.673  49.984  1.00  0.00    -0.412 N 
HETATM   21  C11 UNL     1      23.724   5.897  49.112  1.00  0.00     0.117 C 
HETATM   22  C12 UNL     1      23.022   4.857  49.972  1.00  0.00     0.021 C 
HETATM   23  C13 UNL     1      23.374   5.161  51.400  1.00  0.00     0.021 C 
HETATM   24  C14 UNL     1      24.031   6.521  51.323  1.00  0.00     0.117 C 
ENDBRANCH  19  20
ENDBRANCH  17  19
ENDBRANCH  15  17
ENDBRANCH  14  15
ENDBRANCH   2  14
TORSDOF 9
ENDMDL
MODEL 3
REMARK VINA RESULT:      -7.0      1.909      4.230
REMARK  9 active torsions:
REMARK  status: ('A' for Active; 'I' for Inactive)
REMARK    1  A    between atoms: C2_2  and  C3_3 
REMARK    2  A    between atoms: C3_3  and  C4_4 
REMARK    3  A    between atoms: C3_3  and  C15_17 
REMARK    4  A    between atoms: C5_5  and  C6_6 
REMARK    5  A    between atoms: C6_6  and  C7_7 
REMARK    6  A    between atoms: C7_7  and  C8_9 
REMARK    7  A    between atoms: C8_9  and  C10_11 
REMARK    8  A    between atoms: C10_11  and  N1_12 
REMARK    9  A    between atoms: C15_17  and  C16_18 
ROOT
HETATM    1  C4  UNL     1      26.223   2.914  51.039  1.00  0.00     0.004 C 
HETATM    2  C5  UNL     1      26.410   2.959  49.608  1.00  0.00    -0.013 C 
ENDROOT
BRANCH   1   3
HETATM    3  C3  UNL     1      25.739   2.012  51.867  1.00  0.00    -0.058 C 
BRANCH   3   4
HETATM    4  C2  UNL     1      26.598   0.882  51.640  1.00  0.00    -0.019 C 
HETATM    5  C1  UNL     1      26.893  -0.239  52.358  1.00  0.00     0.031 C 
ENDBRANCH   3   4
BRANCH   3   6
HETATM    6  C15 UNL     1      24.626   1.975  52.826  1.00  0.00     0.077 C 
BRANCH   6   7
HETATM    7  C16 UNL     1      23.386   1.395  52.237  1.00  0.00    -0.048 A 
HETATM    8  C17 UNL     1      22.824   2.014  51.131  1.00  0.00     0.008 A 
HETATM    9  C18 UNL     1      21.696   1.489  50.552  1.00  0.00     0.001 A 
HETATM   10  C19 UNL     1      21.074   0.357  51.015  1.00  0.00     0.001 A 
HETATM   11  C20 UNL     1      21.658  -0.232  52.116  1.00  0.00     0.007 A 
HETATM   12  C21 UNL     1      22.796   0.255  52.740  1.00  0.00    -0.055 A 
HETATM   13  C22 UNL     1      23.443  -0.338  53.939  1.00  0.00     0.049 C 
ENDBRANCH   6   7
ENDBRANCH   3   6
ENDBRANCH   1   3
BRANCH   2  14
HETATM   14  C6  UNL     1      26.924   4.068  49.254  1.00  0.00     0.093 C 
BRANCH  14  15
HETATM   15  C7  UNL     1      27.325   5.278  48.657  1.00  0.00     0.141 C 
HETATM   16  O1  UNL     1      28.504   4.800  48.516  1.00  0.00    -0.297 OA
BRANCH  15  17
HETATM   17  C8  UNL     1      26.838   6.638  48.253  1.00  0.00     0.069 C 
HETATM   18  C9  UNL     1      28.056   7.402  47.755  1.00  0.00     0.020 C 
BRANCH  17  19
HETATM   19  C10 UNL     1      26.252   7.235  49.473  1.00  0.00     0.128 C 
BRANCH  19  20
HETATM   20  N1  UNL     1      24.891   7.162  49.695  1.00  0.00    -0.412 N 
HETATM   21  C11 UNL     1      24.021   6.508  48.797  1.00  0.00     0.117 C 
HETATM   22  C12 UNL     1      23.282   5.449  49.601  1.00  0.00     0.021 C 
HETATM   23  C13 UNL     1      23.701   5.617  51.032  1.00  0.00     0.021 C 
HETATM   24  C14 UNL     1      24.443   6.935  51.035  1.00  0.00     0.117 C 
ENDBRANCH  19  20
ENDBRANCH  17  19
ENDBRANCH  15  17
ENDBRANCH  14  15
ENDBRANCH   2  14
TORSDOF 9
ENDMDL
MODEL 4
REMARK VINA RESULT:      -6.8      3.336      5.427
REMARK  9 active torsions:
REMARK  status: ('A' for Active; 'I' for Inactive)
REMARK    1  A    between atoms: C2_2  and  C3_3 
REMARK    2  A    between atoms: C3_3  and  C4_4 
REMARK    3  A    between atoms: C3_3  and  C15_17 
REMARK    4  A    between atoms: C5_5  and  C6_6 
REMARK    5  A    between atoms: C6_6  and  C7_7 
REMARK    6  A    between atoms: C7_7  and  C8_9 
REMARK    7  A    between atoms: C8_9  and  C10_11 
REMARK    8  A    between atoms: C10_11  and  N1_12 
REMARK    9  A    between atoms: C15_17  and  C16_18 
ROOT
HETATM    1  C4  UNL     1      23.845   0.625  52.462  1.00  0.00     0.004 C 
HETATM    2  C5  UNL     1      23.659  -0.252  53.592  1.00  0.00    -0.013 C 
ENDROOT
BRANCH   1   3
HETATM    3  C3  UNL     1      24.887   1.256  51.960  1.00  0.00    -0.058 C 
BRANCH   3   4
HETATM    4  C2  UNL     1      24.453   2.627  51.954  1.00  0.00    -0.019 C 
HETATM    5  C1  UNL     1      23.963   3.466  52.910  1.00  0.00     0.031 C 
ENDBRANCH   3   4
BRANCH   3   6
HETATM    6  C15 UNL     1      26.210   0.847  51.467  1.00  0.00     0.077 C 
BRANCH   6   7
HETATM    7  C16 UNL     1      27.252   0.890  52.532  1.00  0.00    -0.048 A 
HETATM    8  C17 UNL     1      27.793   2.118  52.881  1.00  0.00     0.008 A 
HETATM    9  C18 UNL     1      28.737   2.193  53.874  1.00  0.00     0.001 A 
HETATM   10  C19 UNL     1      29.190   1.095  54.561  1.00  0.00     0.001 A 
HETATM   11  C20 UNL     1      28.631  -0.109  54.189  1.00  0.00     0.007 A 
HETATM   12  C21 UNL     1      27.675  -0.242  53.194  1.00  0.00    -0.055 A 
HETATM   13  C22 UNL     1      27.065  -1.523  52.749  1.00  0.00     0.049 C 
ENDBRANCH   6   7
ENDBRANCH   3   6
ENDBRANCH   1   3
BRANCH   2  14
HETATM   14  C6  UNL     1      22.444  -0.621  53.683  1.00  0.00     0.093 C 
BRANCH  14  15
HETATM   15  C7  UNL     1      21.067  -0.799  53.911  1.00  0.00     0.141 C 
HETATM   16  O1  UNL     1      21.343  -1.660  54.817  1.00  0.00    -0.297 OA
BRANCH  15  17
HETATM   17  C8  UNL     1      19.706  -0.348  53.467  1.00  0.00     0.069 C 
HETATM   18  C9  UNL     1      18.801  -1.569  53.543  1.00  0.00     0.020 C 
BRANCH  17  19
HETATM   19  C10 UNL     1      19.879   0.147  52.084  1.00  0.00     0.128 C 
BRANCH  19  20
HETATM   20  N1  UNL     1      20.577   1.315  51.848  1.00  0.00    -0.412 N 
HETATM   21  C11 UNL     1      20.925   1.728  50.545  1.00  0.00     0.117 C 
HETATM   22  C12 UNL     1      20.341   3.119  50.359  1.00  0.00     0.021 C 
HETATM   23  C13 UNL     1      19.736   3.519  51.673  1.00  0.00     0.021 C 
HETATM   24  C14 UNL     1      20.241   2.464  52.633  1.00  0.00     0.117 C 
ENDBRANCH  19  20
ENDBRANCH  17  19
ENDBRANCH  15  17
ENDBRANCH  14  15
ENDBRANCH   2  14
TORSDOF 9
ENDMDL
MODEL 5
REMARK VINA RESULT:      -6.8      2.884      6.792
REMARK  9 active torsions:
REMARK  status: ('A' for Active; 'I' for Inactive)
REMARK    1  A    between atoms: C2_2  and  C3_3 
REMARK    2  A    between atoms: C3_3  and  C4_4 
REMARK    3  A    between atoms: C3_3  and  C15_17 
REMARK    4  A    between atoms: C5_5  and  C6_6 
REMARK    5  A    between atoms: C6_6  and  C7_7 
REMARK    6  A    between atoms: C7_7  and  C8_9 
REMARK    7  A    between atoms: C8_9  and  C10_11 
REMARK    8  A    between atoms: C10_11  and  N1_12 
REMARK    9  A    between atoms: C15_17  and  C16_18 
ROOT
HETATM    1  C4  UNL     1      22.151   0.319  52.963  1.00  0.00     0.004 C 
HETATM    2  C5  UNL     1      22.735  -0.771  53.708  1.00  0.00    -0.013 C 
ENDROOT
BRANCH   1   3
HETATM    3  C3  UNL     1      20.914   0.684  52.698  1.00  0.00    -0.058 C 
BRANCH   3   4
HETATM    4  C2  UNL     1      20.138  -0.251  53.468  1.00  0.00    -0.019 C 
HETATM    5  C1  UNL     1      18.957  -0.897  53.256  1.00  0.00     0.031 C 
ENDBRANCH   3   4
BRANCH   3   6
HETATM    6  C15 UNL     1      20.294   1.720  51.861  1.00  0.00     0.077 C 
BRANCH   6   7
HETATM    7  C16 UNL     1      21.069   1.984  50.616  1.00  0.00    -0.048 A 
HETATM    8  C17 UNL     1      21.043   1.037  49.604  1.00  0.00     0.008 A 
HETATM    9  C18 UNL     1      21.727   1.262  48.436  1.00  0.00     0.001 A 
HETATM   10  C19 UNL     1      22.455   2.401  48.203  1.00  0.00     0.001 A 
HETATM   11  C20 UNL     1      22.460   3.322  49.229  1.00  0.00     0.007 A 
HETATM   12  C21 UNL     1      21.788   3.145  50.428  1.00  0.00    -0.055 A 
HETATM   13  C22 UNL     1      21.785   4.103  51.565  1.00  0.00     0.049 C 
ENDBRANCH   6   7
ENDBRANCH   3   6
ENDBRANCH   1   3
BRANCH   2  14
HETATM   14  C6  UNL     1      24.005  -0.707  53.682  1.00  0.00     0.093 C 
BRANCH  14  15
HETATM   15  C7  UNL     1      25.395  -0.875  53.536  1.00  0.00     0.141 C 
HETATM   16  O1  UNL     1      25.483  -1.115  54.789  1.00  0.00    -0.297 OA
BRANCH  15  17
HETATM   17  C8  UNL     1      26.510  -0.846  52.532  1.00  0.00     0.069 C 
HETATM   18  C9  UNL     1      27.195  -2.203  52.610  1.00  0.00     0.020 C 
BRANCH  17  19
HETATM   19  C10 UNL     1      27.396   0.263  52.947  1.00  0.00     0.128 C 
BRANCH  19  20
HETATM   20  N1  UNL     1      27.058   1.569  52.648  1.00  0.00    -0.412 N 
HETATM   21  C11 UNL     1      26.591   1.947  51.372  1.00  0.00     0.117 C 
HETATM   22  C12 UNL     1      25.239   2.611  51.583  1.00  0.00     0.021 C 
HETATM   23  C13 UNL     1      25.018   2.690  53.066  1.00  0.00     0.021 C 
HETATM   24  C14 UNL     1      26.366   2.326  53.648  1.00  0.00     0.117 C 
ENDBRANCH  19  20
ENDBRANCH  17  19
ENDBRANCH  15  17
ENDBRANCH  14  15
ENDBRANCH   2  14
TORSDOF 9
ENDMDL
MODEL 6
REMARK VINA RESULT:      -6.6      2.467      6.767
REMARK  9 active torsions:
REMARK  status: ('A' for Active; 'I' for Inactive)
REMARK    1  A    between atoms: C2_2  and  C3_3 
REMARK    2  A    between atoms: C3_3  and  C4_4 
REMARK    3  A    between atoms: C3_3  and  C15_17 
REMARK    4  A    between atoms: C5_5  and  C6_6 
REMARK    5  A    between atoms: C6_6  and  C7_7 
REMARK    6  A    between atoms: C7_7  and  C8_9 
REMARK    7  A    between atoms: C8_9  and  C10_11 
REMARK    8  A    between atoms: C10_11  and  N1_12 
REMARK    9  A    between atoms: C15_17  and  C16_18 
ROOT
HETATM    1  C4  UNL     1      25.538   2.834  50.881  1.00  0.00     0.004 C 
HETATM    2  C5  UNL     1      26.754   2.453  51.559  1.00  0.00    -0.013 C 
ENDROOT
BRANCH   1   3
HETATM    3  C3  UNL     1      25.278   3.571  49.821  1.00  0.00    -0.058 C 
BRANCH   3   4
HETATM    4  C2  UNL     1      26.585   3.805  49.270  1.00  0.00    -0.019 C 
HETATM    5  C1  UNL     1      27.223   4.910  48.791  1.00  0.00     0.031 C 
ENDBRANCH   3   4
BRANCH   3   6
HETATM    6  C15 UNL     1      24.057   4.119  49.213  1.00  0.00     0.077 C 
BRANCH   6   7
HETATM    7  C16 UNL     1      22.907   3.176  49.296  1.00  0.00    -0.048 A 
HETATM    8  C17 UNL     1      22.777   2.199  48.322  1.00  0.00     0.008 A 
HETATM    9  C18 UNL     1      21.741   1.301  48.386  1.00  0.00     0.001 A 
HETATM   10  C19 UNL     1      20.800   1.313  49.384  1.00  0.00     0.001 A 
HETATM   11  C20 UNL     1      20.959   2.297  50.336  1.00  0.00     0.007 A 
HETATM   12  C21 UNL     1      21.985   3.229  50.320  1.00  0.00    -0.055 A 
HETATM   13  C22 UNL     1      22.178   4.317  51.315  1.00  0.00     0.049 C 
ENDBRANCH   6   7
ENDBRANCH   3   6
ENDBRANCH   1   3
BRANCH   2  14
HETATM   14  C6  UNL     1      26.499   1.715  52.563  1.00  0.00     0.093 C 
BRANCH  14  15
HETATM   15  C7  UNL     1      26.245   0.697  53.502  1.00  0.00     0.141 C 
HETATM   16  O1  UNL     1      26.526   1.517  54.444  1.00  0.00    -0.297 OA
BRANCH  15  17
HETATM   17  C8  UNL     1      25.835  -0.740  53.636  1.00  0.00     0.069 C 
HETATM   18  C9  UNL     1      26.779  -1.542  52.752  1.00  0.00     0.020 C 
BRANCH  17  19
HETATM   19  C10 UNL     1      24.432  -0.803  53.175  1.00  0.00     0.128 C 
BRANCH  19  20
HETATM   20  N1  UNL     1      23.425  -0.248  53.941  1.00  0.00    -0.412 N 
HETATM   21  C11 UNL     1      22.503   0.677  53.407  1.00  0.00     0.117 C 
HETATM   22  C12 UNL     1      21.118   0.100  53.650  1.00  0.00     0.021 C 
HETATM   23  C13 UNL     1      21.301  -1.155  54.454  1.00  0.00     0.021 C 
HETATM   24  C14 UNL     1      22.752  -1.098  54.877  1.00  0.00     0.117 C 
ENDBRANCH  19  20
ENDBRANCH  17  19
ENDBRANCH  15  17
ENDBRANCH  14  15
ENDBRANCH   2  14
TORSDOF 9
ENDMDL
MODEL 7
REMARK VINA RESULT:      -6.6      2.603      7.290
REMARK  9 active torsions:
REMARK  status: ('A' for Active; 'I' for Inactive)
REMARK    1  A    between atoms: C2_2  and  C3_3 
REMARK    2  A    between atoms: C3_3  and  C4_4 
REMARK    3  A    between atoms: C3_3  and  C15_17 
REMARK    4  A    between atoms: C5_5  and  C6_6 
REMARK    5  A    between atoms: C6_6  and  C7_7 
REMARK    6  A    between atoms: C7_7  and  C8_9 
REMARK    7  A    between atoms: C8_9  and  C10_11 
REMARK    8  A    between atoms: C10_11  and  N1_12 
REMARK    9  A    between atoms: C15_17  and  C16_18 
ROOT
HETATM    1  C4  UNL     1      23.810   2.456  51.472  1.00  0.00     0.004 C 
HETATM    2  C5  UNL     1      23.188   2.079  52.718  1.00  0.00    -0.013 C 
ENDROOT
BRANCH   1   3
HETATM    3  C3  UNL     1      23.767   3.539  50.722  1.00  0.00    -0.058 C 
BRANCH   3   4
HETATM    4  C2  UNL     1      23.438   4.567  51.671  1.00  0.00    -0.019 C 
HETATM    5  C1  UNL     1      22.412   5.457  51.781  1.00  0.00     0.031 C 
ENDBRANCH   3   4
BRANCH   3   6
HETATM    6  C15 UNL     1      23.956   3.818  49.292  1.00  0.00     0.077 C 
BRANCH   6   7
HETATM    7  C16 UNL     1      25.177   4.629  49.027  1.00  0.00    -0.048 A 
HETATM    8  C17 UNL     1      26.418   4.030  49.181  1.00  0.00     0.008 A 
HETATM    9  C18 UNL     1      27.561   4.744  48.921  1.00  0.00     0.001 A 
HETATM   10  C19 UNL     1      27.548   6.051  48.506  1.00  0.00     0.001 A 
HETATM   11  C20 UNL     1      26.299   6.616  48.362  1.00  0.00     0.007 A 
HETATM   12  C21 UNL     1      25.113   5.942  48.611  1.00  0.00    -0.055 A 
HETATM   13  C22 UNL     1      23.750   6.520  48.489  1.00  0.00     0.049 C 
ENDBRANCH   6   7
ENDBRANCH   3   6
ENDBRANCH   1   3
BRANCH   2  14
HETATM   14  C6  UNL     1      23.538   0.904  53.060  1.00  0.00     0.093 C 
BRANCH  14  15
HETATM   15  C7  UNL     1      24.113  -0.271  53.579  1.00  0.00     0.141 C 
HETATM   16  O1  UNL     1      23.095  -0.931  53.172  1.00  0.00    -0.297 OA
BRANCH  15  17
HETATM   17  C8  UNL     1      25.313  -0.803  54.305  1.00  0.00     0.069 C 
HETATM   18  C9  UNL     1      24.852  -1.128  55.719  1.00  0.00     0.020 C 
BRANCH  17  19
HETATM   19  C10 UNL     1      26.318   0.281  54.269  1.00  0.00     0.128 C 
BRANCH  19  20
HETATM   20  N1  UNL     1      27.392   0.202  53.403  1.00  0.00    -0.412 N 
HETATM   21  C11 UNL     1      28.525   1.032  53.540  1.00  0.00     0.117 C 
HETATM   22  C12 UNL     1      29.727   0.109  53.658  1.00  0.00     0.021 C 
HETATM   23  C13 UNL     1      29.224  -1.292  53.468  1.00  0.00     0.021 C 
HETATM   24  C14 UNL     1      27.808  -1.098  52.971  1.00  0.00     0.117 C 
ENDBRANCH  19  20
ENDBRANCH  17  19
ENDBRANCH  15  17
ENDBRANCH  14  15
ENDBRANCH   2  14
TORSDOF 9
ENDMDL
MODEL 8
REMARK VINA RESULT:      -6.5      2.401      4.128
REMARK  9 active torsions:
REMARK  status: ('A' for Active; 'I' for Inactive)
REMARK    1  A    between atoms: C2_2  and  C3_3 
REMARK    2  A    between atoms: C3_3  and  C4_4 
REMARK    3  A    between atoms: C3_3  and  C15_17 
REMARK    4  A    between atoms: C5_5  and  C6_6 
REMARK    5  A    between atoms: C6_6  and  C7_7 
REMARK    6  A    between atoms: C7_7  and  C8_9 
REMARK    7  A    between atoms: C8_9  and  C10_11 
REMARK    8  A    between atoms: C10_11  and  N1_12 
REMARK    9  A    between atoms: C15_17  and  C16_18 
ROOT
HETATM    1  C4  UNL     1      26.120   3.251  50.918  1.00  0.00     0.004 C 
HETATM    2  C5  UNL     1      26.470   3.026  49.536  1.00  0.00    -0.013 C 
ENDROOT
BRANCH   1   3
HETATM    3  C3  UNL     1      25.579   2.500  51.855  1.00  0.00    -0.058 C 
BRANCH   3   4
HETATM    4  C2  UNL     1      24.341   2.085  51.253  1.00  0.00    -0.019 C 
HETATM    5  C1  UNL     1      23.277   1.356  51.691  1.00  0.00     0.031 C 
ENDBRANCH   3   4
BRANCH   3   6
HETATM    6  C15 UNL     1      25.970   2.094  53.212  1.00  0.00     0.077 C 
BRANCH   6   7
HETATM    7  C16 UNL     1      26.916   0.943  53.212  1.00  0.00    -0.048 A 
HETATM    8  C17 UNL     1      26.418  -0.326  52.958  1.00  0.00     0.008 A 
HETATM    9  C18 UNL     1      27.269  -1.403  52.926  1.00  0.00     0.001 A 
HETATM   10  C19 UNL     1      28.620  -1.295  53.137  1.00  0.00     0.001 A 
HETATM   11  C20 UNL     1      29.082  -0.020  53.387  1.00  0.00     0.007 A 
HETATM   12  C21 UNL     1      28.268   1.101  53.430  1.00  0.00    -0.055 A 
HETATM   13  C22 UNL     1      28.724   2.487  53.717  1.00  0.00     0.049 C 
ENDBRANCH   6   7
ENDBRANCH   3   6
ENDBRANCH   1   3
BRANCH   2  14
HETATM   14  C6  UNL     1      26.977   4.074  49.022  1.00  0.00     0.093 C 
BRANCH  14  15
HETATM   15  C7  UNL     1      27.553   5.318  48.704  1.00  0.00     0.141 C 
HETATM   16  O1  UNL     1      28.657   4.725  48.446  1.00  0.00    -0.297 OA
BRANCH  15  17
HETATM   17  C8  UNL     1      27.266   6.789  48.617  1.00  0.00     0.069 C 
HETATM   18  C9  UNL     1      25.818   6.920  48.169  1.00  0.00     0.020 C 
BRANCH  17  19
HETATM   19  C10 UNL     1      28.221   7.327  47.624  1.00  0.00     0.128 C 
BRANCH  19  20
HETATM   20  N1  UNL     1      28.665   8.631  47.725  1.00  0.00    -0.412 N 
HETATM   21  C11 UNL     1      28.153   9.660  46.908  1.00  0.00     0.117 C 
HETATM   22  C12 UNL     1      27.623  10.735  47.843  1.00  0.00     0.021 C 
HETATM   23  C13 UNL     1      27.966  10.307  49.241  1.00  0.00     0.021 C 
HETATM   24  C14 UNL     1      28.919   9.151  49.035  1.00  0.00     0.117 C 
ENDBRANCH  19  20
ENDBRANCH  17  19
ENDBRANCH  15  17
ENDBRANCH  14  15
ENDBRANCH   2  14
TORSDOF 9
ENDMDL
MODEL 9
REMARK VINA RESULT:      -6.5      5.032      7.405
REMARK  9 active torsions:
REMARK  status: ('A' for Active; 'I' for Inactive)
REMARK    1  A    between atoms: C2_2  and  C3_3 
REMARK    2  A    between atoms: C3_3  and  C4_4 
REMARK    3  A    between atoms: C3_3  and  C15_17 
REMARK    4  A    between atoms: C5_5  and  C6_6 
REMARK    5  A    between atoms: C6_6  and  C7_7 
REMARK    6  A    between atoms: C7_7  and  C8_9 
REMARK    7  A    between atoms: C8_9  and  C10_11 
REMARK    8  A    between atoms: C10_11  and  N1_12 
REMARK    9  A    between atoms: C15_17  and  C16_18 
ROOT
HETATM    1  C4  UNL     1      27.656   4.767  48.898  1.00  0.00     0.004 C 
HETATM    2  C5  UNL     1      28.388   5.815  48.228  1.00  0.00    -0.013 C 
ENDROOT
BRANCH   1   3
HETATM    3  C3  UNL     1      26.380   4.563  49.151  1.00  0.00    -0.058 C 
BRANCH   3   4
HETATM    4  C2  UNL     1      25.840   5.896  49.146  1.00  0.00    -0.019 C 
HETATM    5  C1  UNL     1      24.761   6.475  48.547  1.00  0.00     0.031 C 
ENDBRANCH   3   4
BRANCH   3   6
HETATM    6  C15 UNL     1      25.550   3.378  49.411  1.00  0.00     0.077 C 
BRANCH   6   7
HETATM    7  C16 UNL     1      25.574   2.971  50.844  1.00  0.00    -0.048 A 
HETATM    8  C17 UNL     1      26.709   2.349  51.339  1.00  0.00     0.008 A 
HETATM    9  C18 UNL     1      26.770   1.984  52.661  1.00  0.00     0.001 A 
HETATM   10  C19 UNL     1      25.745   2.204  53.546  1.00  0.00     0.001 A 
HETATM   11  C20 UNL     1      24.632   2.824  53.021  1.00  0.00     0.007 A 
HETATM   12  C21 UNL     1      24.517   3.213  51.695  1.00  0.00    -0.055 A 
HETATM   13  C22 UNL     1      23.327   3.864  51.088  1.00  0.00     0.049 C 
ENDBRANCH   6   7
ENDBRANCH   3   6
ENDBRANCH   1   3
BRANCH   2  14
HETATM   14  C6  UNL     1      29.636   5.571  48.234  1.00  0.00     0.093 C 
BRANCH  14  15
HETATM   15  C7  UNL     1      31.041   5.547  48.144  1.00  0.00     0.141 C 
HETATM   16  O1  UNL     1      30.969   4.414  47.554  1.00  0.00    -0.297 OA
BRANCH  15  17
HETATM   17  C8  UNL     1      32.281   6.321  48.485  1.00  0.00     0.069 C 
HETATM   18  C9  UNL     1      31.819   7.701  48.927  1.00  0.00     0.020 C 
BRANCH  17  19
HETATM   19  C10 UNL     1      33.084   6.360  47.243  1.00  0.00     0.128 C 
BRANCH  19  20
HETATM   20  N1  UNL     1      34.193   5.548  47.110  1.00  0.00    -0.412 N 
HETATM   21  C11 UNL     1      34.759   4.868  48.209  1.00  0.00     0.117 C 
HETATM   22  C12 UNL     1      34.772   3.392  47.847  1.00  0.00     0.021 C 
HETATM   23  C13 UNL     1      34.284   3.284  46.432  1.00  0.00     0.021 C 
HETATM   24  C14 UNL     1      34.278   4.717  45.947  1.00  0.00     0.117 C 
ENDBRANCH  19  20
ENDBRANCH  17  19
ENDBRANCH  15  17
ENDBRANCH  14  15
ENDBRANCH   2  14
TORSDOF 9
ENDMDL
