MODEL 1
REMARK VINA RESULT:      -6.9      0.000      0.000
REMARK  7 active torsions:
REMARK  status: ('A' for Active; 'I' for Inactive)
REMARK    1  A    between atoms: C2_2  and  C3_3 
REMARK    2  A    between atoms: C3_3  and  C4_4 
REMARK    3  A    between atoms: C6_6  and  C7_7 
REMARK    4  A    between atoms: C7_7  and  O1_8 
REMARK    5  A    between atoms: O1_8  and  C8_9 
REMARK    6  A    between atoms: C11_12  and  O2_13 
REMARK    7  A    between atoms: C13_15  and  O3_16 
ROOT
HETATM    1  C8  UNL     1      24.602   1.612  52.545  1.00  0.00     0.071 C 
HETATM    2  C9  UNL     1      25.687   0.916  52.278  1.00  0.00    -0.019 C 
HETATM    3  C10 UNL     1      26.144  -0.471  52.371  1.00  0.00     0.049 C 
HETATM    4  C11 UNL     1      27.217  -0.633  53.229  1.00  0.00     0.104 C 
HETATM    5  C13 UNL     1      27.718   0.614  53.961  1.00  0.00     0.124 C 
HETATM    6  C15 UNL     1      26.996   1.673  53.595  1.00  0.00     0.046 C 
HETATM    7  C16 UNL     1      26.913   1.858  52.019  1.00  0.00     0.101 C 
HETATM    8  N1  UNL     1      26.084   2.628  54.149  1.00  0.00    -0.384 N 
HETATM    9  C17 UNL     1      24.876   2.935  53.300  1.00  0.00     0.184 C 
HETATM   10  H23 UNL     1      26.605   2.814  55.085  1.00  0.00     0.159 HD
ENDROOT
BRANCH   1  11
HETATM   11  O1  UNL     1      23.667   0.707  51.956  1.00  0.00    -0.349 OA
BRANCH  11  12
HETATM   12  C7  UNL     1      22.735   1.314  51.073  1.00  0.00     0.203 C 
BRANCH  12  13
HETATM   13  C6  UNL     1      23.333   2.510  50.388  1.00  0.00     0.002 C 
HETATM   14  C4  UNL     1      23.399   3.054  49.147  1.00  0.00    -0.086 C 
HETATM   15  C5  UNL     1      22.691   2.323  48.065  1.00  0.00     0.043 C 
BRANCH  14  16
HETATM   16  C3  UNL     1      24.153   4.309  49.003  1.00  0.00     0.033 C 
BRANCH  16  17
HETATM   17  C2  UNL     1      25.330   4.486  49.888  1.00  0.00    -0.000 C 
HETATM   18  C1  UNL     1      26.641   4.433  49.146  1.00  0.00     0.005 C 
ENDBRANCH  16  17
ENDBRANCH  14  16
ENDBRANCH  12  13
ENDBRANCH  11  12
ENDBRANCH   1  11
BRANCH   4  19
HETATM   19  O2  UNL     1      27.910  -1.757  53.531  1.00  0.00    -0.353 OA
HETATM   20  C12 UNL     1      29.327  -1.726  53.308  1.00  0.00     0.210 C 
ENDBRANCH   4  19
BRANCH   5  21
HETATM   21  O3  UNL     1      28.601   1.120  54.856  1.00  0.00    -0.351 OA
HETATM   22  C14 UNL     1      29.625   2.034  54.521  1.00  0.00     0.210 C 
ENDBRANCH   5  21
TORSDOF 7
ENDMDL
MODEL 2
REMARK VINA RESULT:      -6.8      1.674      2.530
REMARK  7 active torsions:
REMARK  status: ('A' for Active; 'I' for Inactive)
REMARK    1  A    between atoms: C2_2  and  C3_3 
REMARK    2  A    between atoms: C3_3  and  C4_4 
REMARK    3  A    between atoms: C6_6  and  C7_7 
REMARK    4  A    between atoms: C7_7  and  O1_8 
REMARK    5  A    between atoms: O1_8  and  C8_9 
REMARK    6  A    between atoms: C11_12  and  O2_13 
REMARK    7  A    between atoms: C13_15  and  O3_16 
ROOT
HETATM    1  C8  UNL     1      23.798   0.907  52.860  1.00  0.00     0.071 C 
HETATM    2  C9  UNL     1      25.001   0.408  52.668  1.00  0.00    -0.019 C 
HETATM    3  C10 UNL     1      25.843  -0.654  53.223  1.00  0.00     0.049 C 
HETATM    4  C11 UNL     1      27.004  -0.177  53.805  1.00  0.00     0.104 C 
HETATM    5  C13 UNL     1      27.204   1.341  53.818  1.00  0.00     0.124 C 
HETATM    6  C15 UNL     1      26.174   1.937  53.218  1.00  0.00     0.046 C 
HETATM    7  C16 UNL     1      25.870   1.355  51.772  1.00  0.00     0.101 C 
HETATM    8  N1  UNL     1      25.093   2.829  53.516  1.00  0.00    -0.384 N 
HETATM    9  C17 UNL     1      23.763   2.453  52.913  1.00  0.00     0.184 C 
HETATM   10  H23 UNL     1      25.638   3.527  54.146  1.00  0.00     0.159 HD
ENDROOT
BRANCH   1  11
HETATM   11  O1  UNL     1      23.102  -0.339  52.927  1.00  0.00    -0.349 OA
BRANCH  11  12
HETATM   12  C7  UNL     1      21.692  -0.234  52.804  1.00  0.00     0.203 C 
BRANCH  12  13
HETATM   13  C6  UNL     1      21.297   0.220  51.428  1.00  0.00     0.002 C 
HETATM   14  C4  UNL     1      20.672   1.267  50.834  1.00  0.00    -0.086 C 
HETATM   15  C5  UNL     1      20.205   2.354  51.730  1.00  0.00     0.043 C 
BRANCH  14  16
HETATM   16  C3  UNL     1      20.533   1.223  49.370  1.00  0.00     0.033 C 
BRANCH  16  17
HETATM   17  C2  UNL     1      21.786   1.292  48.578  1.00  0.00    -0.000 C 
HETATM   18  C1  UNL     1      22.598   2.530  48.863  1.00  0.00     0.005 C 
ENDBRANCH  16  17
ENDBRANCH  14  16
ENDBRANCH  12  13
ENDBRANCH  11  12
ENDBRANCH   1  11
BRANCH   4  19
HETATM   19  O2  UNL     1      28.018  -0.864  54.381  1.00  0.00    -0.353 OA
HETATM   20  C12 UNL     1      29.142  -1.184  53.549  1.00  0.00     0.210 C 
ENDBRANCH   4  19
BRANCH   5  21
HETATM   21  O3  UNL     1      27.998   2.372  54.197  1.00  0.00    -0.351 OA
HETATM   22  C14 UNL     1      29.364   2.481  53.854  1.00  0.00     0.210 C 
ENDBRANCH   5  21
TORSDOF 7
ENDMDL
MODEL 3
REMARK VINA RESULT:      -6.7      2.480      4.073
REMARK  7 active torsions:
REMARK  status: ('A' for Active; 'I' for Inactive)
REMARK    1  A    between atoms: C2_2  and  C3_3 
REMARK    2  A    between atoms: C3_3  and  C4_4 
REMARK    3  A    between atoms: C6_6  and  C7_7 
REMARK    4  A    between atoms: C7_7  and  O1_8 
REMARK    5  A    between atoms: O1_8  and  C8_9 
REMARK    6  A    between atoms: C11_12  and  O2_13 
REMARK    7  A    between atoms: C13_15  and  O3_16 
ROOT
HETATM    1  C8  UNL     1      24.083   0.903  52.906  1.00  0.00     0.071 C 
HETATM    2  C9  UNL     1      25.276   0.398  52.678  1.00  0.00    -0.019 C 
HETATM    3  C10 UNL     1      26.129  -0.668  53.205  1.00  0.00     0.049 C 
HETATM    4  C11 UNL     1      27.310  -0.197  53.752  1.00  0.00     0.104 C 
HETATM    5  C13 UNL     1      27.519   1.319  53.761  1.00  0.00     0.124 C 
HETATM    6  C15 UNL     1      26.473   1.921  53.194  1.00  0.00     0.046 C 
HETATM    7  C16 UNL     1      26.123   1.343  51.757  1.00  0.00     0.101 C 
HETATM    8  N1  UNL     1      25.407   2.818  53.525  1.00  0.00    -0.384 N 
HETATM    9  C17 UNL     1      24.057   2.450  52.963  1.00  0.00     0.184 C 
HETATM   10  H23 UNL     1      25.974   3.513  54.139  1.00  0.00     0.159 HD
ENDROOT
BRANCH   1  11
HETATM   11  O1  UNL     1      23.383  -0.339  52.994  1.00  0.00    -0.349 OA
BRANCH  11  12
HETATM   12  C7  UNL     1      22.374  -0.379  53.992  1.00  0.00     0.203 C 
BRANCH  12  13
HETATM   13  C6  UNL     1      21.006  -0.482  53.381  1.00  0.00     0.002 C 
HETATM   14  C4  UNL     1      20.068   0.324  52.822  1.00  0.00    -0.086 C 
HETATM   15  C5  UNL     1      20.405   1.768  52.734  1.00  0.00     0.043 C 
BRANCH  14  16
HETATM   16  C3  UNL     1      18.828  -0.313  52.354  1.00  0.00     0.033 C 
BRANCH  16  17
HETATM   17  C2  UNL     1      17.868   0.552  51.623  1.00  0.00    -0.000 C 
HETATM   18  C1  UNL     1      17.424  -0.038  50.309  1.00  0.00     0.005 C 
ENDBRANCH  16  17
ENDBRANCH  14  16
ENDBRANCH  12  13
ENDBRANCH  11  12
ENDBRANCH   1  11
BRANCH   4  19
HETATM   19  O2  UNL     1      28.338  -0.891  54.297  1.00  0.00    -0.353 OA
HETATM   20  C12 UNL     1      29.375  -1.323  53.404  1.00  0.00     0.210 C 
ENDBRANCH   4  19
BRANCH   5  21
HETATM   21  O3  UNL     1      28.329   2.345  54.117  1.00  0.00    -0.351 OA
HETATM   22  C14 UNL     1      29.681   2.187  54.491  1.00  0.00     0.210 C 
ENDBRANCH   5  21
TORSDOF 7
ENDMDL
MODEL 4
REMARK VINA RESULT:      -6.7      2.247      3.533
REMARK  7 active torsions:
REMARK  status: ('A' for Active; 'I' for Inactive)
REMARK    1  A    between atoms: C2_2  and  C3_3 
REMARK    2  A    between atoms: C3_3  and  C4_4 
REMARK    3  A    between atoms: C6_6  and  C7_7 
REMARK    4  A    between atoms: C7_7  and  O1_8 
REMARK    5  A    between atoms: O1_8  and  C8_9 
REMARK    6  A    between atoms: C11_12  and  O2_13 
REMARK    7  A    between atoms: C13_15  and  O3_16 
ROOT
HETATM    1  C8  UNL     1      25.848   2.362  51.611  1.00  0.00     0.071 C 
HETATM    2  C9  UNL     1      26.605   1.948  52.605  1.00  0.00    -0.019 C 
HETATM    3  C10 UNL     1      27.846   1.196  52.792  1.00  0.00     0.049 C 
HETATM    4  C11 UNL     1      27.666   0.015  53.491  1.00  0.00     0.104 C 
HETATM    5  C13 UNL     1      26.237  -0.334  53.911  1.00  0.00     0.124 C 
HETATM    6  C15 UNL     1      25.402   0.627  53.516  1.00  0.00     0.046 C 
HETATM    7  C16 UNL     1      25.856   2.077  53.977  1.00  0.00     0.101 C 
HETATM    8  N1  UNL     1      24.295   0.828  52.629  1.00  0.00    -0.384 N 
HETATM    9  C17 UNL     1      24.337   2.101  51.823  1.00  0.00     0.184 C 
HETATM   10  H23 UNL     1      23.759  -0.094  52.840  1.00  0.00     0.159 HD
ENDROOT
BRANCH   1  11
HETATM   11  O1  UNL     1      26.902   2.870  50.792  1.00  0.00    -0.349 OA
BRANCH  11  12
HETATM   12  C7  UNL     1      26.509   3.218  49.472  1.00  0.00     0.203 C 
BRANCH  12  13
HETATM   13  C6  UNL     1      27.351   4.335  48.928  1.00  0.00     0.002 C 
HETATM   14  C4  UNL     1      27.245   5.659  48.651  1.00  0.00    -0.086 C 
HETATM   15  C5  UNL     1      25.936   6.294  48.949  1.00  0.00     0.043 C 
BRANCH  14  16
HETATM   16  C3  UNL     1      28.433   6.327  48.099  1.00  0.00     0.033 C 
BRANCH  16  17
HETATM   17  C2  UNL     1      29.673   5.517  48.007  1.00  0.00    -0.000 C 
HETATM   18  C1  UNL     1      30.813   6.090  48.809  1.00  0.00     0.005 C 
ENDBRANCH  16  17
ENDBRANCH  14  16
ENDBRANCH  12  13
ENDBRANCH  11  12
ENDBRANCH   1  11
BRANCH   4  19
HETATM   19  O2  UNL     1      28.585  -0.905  53.870  1.00  0.00    -0.353 OA
HETATM   20  C12 UNL     1      29.961  -0.597  53.604  1.00  0.00     0.210 C 
ENDBRANCH   4  19
BRANCH   5  21
HETATM   21  O3  UNL     1      25.427  -1.233  54.522  1.00  0.00    -0.351 OA
HETATM   22  C14 UNL     1      24.867  -1.044  55.805  1.00  0.00     0.210 C 
ENDBRANCH   5  21
TORSDOF 7
ENDMDL
MODEL 5
REMARK VINA RESULT:      -6.6      2.986      6.668
REMARK  7 active torsions:
REMARK  status: ('A' for Active; 'I' for Inactive)
REMARK    1  A    between atoms: C2_2  and  C3_3 
REMARK    2  A    between atoms: C3_3  and  C4_4 
REMARK    3  A    between atoms: C6_6  and  C7_7 
REMARK    4  A    between atoms: C7_7  and  O1_8 
REMARK    5  A    between atoms: O1_8  and  C8_9 
REMARK    6  A    between atoms: C11_12  and  O2_13 
REMARK    7  A    between atoms: C13_15  and  O3_16 
ROOT
HETATM    1  C8  UNL     1      22.726  -0.495  53.554  1.00  0.00     0.071 C 
HETATM    2  C9  UNL     1      22.676   0.324  52.525  1.00  0.00    -0.019 C 
HETATM    3  C10 UNL     1      23.382   1.511  52.040  1.00  0.00     0.049 C 
HETATM    4  C11 UNL     1      22.569   2.627  51.949  1.00  0.00     0.104 C 
HETATM    5  C13 UNL     1      21.114   2.466  52.397  1.00  0.00     0.124 C 
HETATM    6  C15 UNL     1      20.898   1.211  52.791  1.00  0.00     0.046 C 
HETATM    7  C16 UNL     1      21.348   0.133  51.714  1.00  0.00     0.101 C 
HETATM    8  N1  UNL     1      20.558   0.470  53.968  1.00  0.00    -0.384 N 
HETATM    9  C17 UNL     1      21.344  -0.800  54.180  1.00  0.00     0.184 C 
HETATM   10  H23 UNL     1      19.795   1.139  54.357  1.00  0.00     0.159 HD
ENDROOT
BRANCH   1  11
HETATM   11  O1  UNL     1      24.142  -0.684  53.556  1.00  0.00    -0.349 OA
BRANCH  11  12
HETATM   12  C7  UNL     1      24.720  -0.796  54.848  1.00  0.00     0.203 C 
BRANCH  12  13
HETATM   13  C6  UNL     1      26.183  -0.455  54.823  1.00  0.00     0.002 C 
HETATM   14  C4  UNL     1      26.987   0.586  54.492  1.00  0.00    -0.086 C 
HETATM   15  C5  UNL     1      26.313   1.814  54.001  1.00  0.00     0.043 C 
BRANCH  14  16
HETATM   16  C3  UNL     1      28.436   0.396  54.664  1.00  0.00     0.033 C 
BRANCH  16  17
HETATM   17  C2  UNL     1      29.202  -0.017  53.463  1.00  0.00    -0.000 C 
HETATM   18  C1  UNL     1      29.512  -1.492  53.438  1.00  0.00     0.005 C 
ENDBRANCH  16  17
ENDBRANCH  14  16
ENDBRANCH  12  13
ENDBRANCH  11  12
ENDBRANCH   1  11
BRANCH   4  19
HETATM   19  O2  UNL     1      22.870   3.874  51.515  1.00  0.00    -0.353 OA
HETATM   20  C12 UNL     1      23.100   4.873  52.519  1.00  0.00     0.210 C 
ENDBRANCH   4  19
BRANCH   5  21
HETATM   21  O3  UNL     1      19.915   3.072  52.580  1.00  0.00    -0.351 OA
HETATM   22  C14 UNL     1      19.137   3.611  51.532  1.00  0.00     0.210 C 
ENDBRANCH   5  21
TORSDOF 7
ENDMDL
MODEL 6
REMARK VINA RESULT:      -6.4      2.267      3.910
REMARK  7 active torsions:
REMARK  status: ('A' for Active; 'I' for Inactive)
REMARK    1  A    between atoms: C2_2  and  C3_3 
REMARK    2  A    between atoms: C3_3  and  C4_4 
REMARK    3  A    between atoms: C6_6  and  C7_7 
REMARK    4  A    between atoms: C7_7  and  O1_8 
REMARK    5  A    between atoms: O1_8  and  C8_9 
REMARK    6  A    between atoms: C11_12  and  O2_13 
REMARK    7  A    between atoms: C13_15  and  O3_16 
ROOT
HETATM    1  C8  UNL     1      26.643   2.343  52.134  1.00  0.00     0.071 C 
HETATM    2  C9  UNL     1      25.872   1.277  52.111  1.00  0.00    -0.019 C 
HETATM    3  C10 UNL     1      24.449   0.956  52.235  1.00  0.00     0.049 C 
HETATM    4  C11 UNL     1      24.167   0.155  53.328  1.00  0.00     0.104 C 
HETATM    5  C13 UNL     1      25.340  -0.225  54.234  1.00  0.00     0.124 C 
HETATM    6  C15 UNL     1      26.468   0.304  53.759  1.00  0.00     0.046 C 
HETATM    7  C16 UNL     1      26.721  -0.036  52.229  1.00  0.00     0.101 C 
HETATM    8  N1  UNL     1      27.472   1.260  54.118  1.00  0.00    -0.384 N 
HETATM    9  C17 UNL     1      27.909   2.184  53.009  1.00  0.00     0.184 C 
HETATM   10  H23 UNL     1      27.578   0.987  55.165  1.00  0.00     0.159 HD
ENDROOT
BRANCH   1  11
HETATM   11  O1  UNL     1      25.840   3.155  51.273  1.00  0.00    -0.349 OA
BRANCH  11  12
HETATM   12  C7  UNL     1      26.025   2.906  49.888  1.00  0.00     0.203 C 
BRANCH  12  13
HETATM   13  C6  UNL     1      27.025   3.855  49.292  1.00  0.00     0.002 C 
HETATM   14  C4  UNL     1      27.073   5.115  48.793  1.00  0.00    -0.086 C 
HETATM   15  C5  UNL     1      25.799   5.878  48.799  1.00  0.00     0.043 C 
BRANCH  14  16
HETATM   16  C3  UNL     1      28.376   5.598  48.310  1.00  0.00     0.033 C 
BRANCH  16  17
HETATM   17  C2  UNL     1      28.418   6.979  47.769  1.00  0.00    -0.000 C 
HETATM   18  C1  UNL     1      29.685   7.714  48.124  1.00  0.00     0.005 C 
ENDBRANCH  16  17
ENDBRANCH  14  16
ENDBRANCH  12  13
ENDBRANCH  11  12
ENDBRANCH   1  11
BRANCH   4  19
HETATM   19  O2  UNL     1      22.980  -0.358  53.730  1.00  0.00    -0.353 OA
HETATM   20  C12 UNL     1      21.952  -0.472  52.737  1.00  0.00     0.210 C 
ENDBRANCH   4  19
BRANCH   5  21
HETATM   21  O3  UNL     1      25.737  -0.880  55.353  1.00  0.00    -0.351 OA
HETATM   22  C14 UNL     1      24.923  -1.054  56.494  1.00  0.00     0.210 C 
ENDBRANCH   5  21
TORSDOF 7
ENDMDL
MODEL 7
REMARK VINA RESULT:      -6.4      2.296      3.880
REMARK  7 active torsions:
REMARK  status: ('A' for Active; 'I' for Inactive)
REMARK    1  A    between atoms: C2_2  and  C3_3 
REMARK    2  A    between atoms: C3_3  and  C4_4 
REMARK    3  A    between atoms: C6_6  and  C7_7 
REMARK    4  A    between atoms: C7_7  and  O1_8 
REMARK    5  A    between atoms: O1_8  and  C8_9 
REMARK    6  A    between atoms: C11_12  and  O2_13 
REMARK    7  A    between atoms: C13_15  and  O3_16 
ROOT
HETATM    1  C8  UNL     1      25.171   2.170  51.804  1.00  0.00     0.071 C 
HETATM    2  C9  UNL     1      25.321   1.005  52.396  1.00  0.00    -0.019 C 
HETATM    3  C10 UNL     1      24.842   0.323  53.600  1.00  0.00     0.049 C 
HETATM    4  C11 UNL     1      25.858   0.004  54.483  1.00  0.00     0.104 C 
HETATM    5  C13 UNL     1      27.275   0.436  54.100  1.00  0.00     0.124 C 
HETATM    6  C15 UNL     1      27.256   1.054  52.919  1.00  0.00     0.046 C 
HETATM    7  C16 UNL     1      26.527   0.211  51.786  1.00  0.00     0.101 C 
HETATM    8  N1  UNL     1      27.512   2.341  52.344  1.00  0.00    -0.384 N 
HETATM    9  C17 UNL     1      26.500   2.807  51.329  1.00  0.00     0.184 C 
HETATM   10  H23 UNL     1      28.419   2.577  52.895  1.00  0.00     0.159 HD
ENDROOT
BRANCH   1  11
HETATM   11  O1  UNL     1      23.749   2.244  51.923  1.00  0.00    -0.349 OA
BRANCH  11  12
HETATM   12  C7  UNL     1      23.036   1.483  50.960  1.00  0.00     0.203 C 
BRANCH  12  13
HETATM   13  C6  UNL     1      21.852   0.795  51.576  1.00  0.00     0.002 C 
HETATM   14  C4  UNL     1      20.536   0.591  51.318  1.00  0.00    -0.086 C 
HETATM   15  C5  UNL     1      20.008   1.181  50.062  1.00  0.00     0.043 C 
BRANCH  14  16
HETATM   16  C3  UNL     1      19.774  -0.199  52.298  1.00  0.00     0.033 C 
BRANCH  16  17
HETATM   17  C2  UNL     1      20.235  -0.139  53.707  1.00  0.00    -0.000 C 
HETATM   18  C1  UNL     1      20.937  -1.397  54.152  1.00  0.00     0.005 C 
ENDBRANCH  16  17
ENDBRANCH  14  16
ENDBRANCH  12  13
ENDBRANCH  11  12
ENDBRANCH   1  11
BRANCH   4  19
HETATM   19  O2  UNL     1      25.790  -0.649  55.668  1.00  0.00    -0.353 OA
HETATM   20  C12 UNL     1      24.569  -1.344  55.956  1.00  0.00     0.210 C 
ENDBRANCH   4  19
BRANCH   5  21
HETATM   21  O3  UNL     1      28.582   0.472  54.460  1.00  0.00    -0.351 OA
HETATM   22  C14 UNL     1      29.576  -0.357  53.897  1.00  0.00     0.210 C 
ENDBRANCH   5  21
TORSDOF 7
ENDMDL
MODEL 8
REMARK VINA RESULT:      -6.3      2.540      6.156
REMARK  7 active torsions:
REMARK  status: ('A' for Active; 'I' for Inactive)
REMARK    1  A    between atoms: C2_2  and  C3_3 
REMARK    2  A    between atoms: C3_3  and  C4_4 
REMARK    3  A    between atoms: C6_6  and  C7_7 
REMARK    4  A    between atoms: C7_7  and  O1_8 
REMARK    5  A    between atoms: O1_8  and  C8_9 
REMARK    6  A    between atoms: C11_12  and  O2_13 
REMARK    7  A    between atoms: C13_15  and  O3_16 
ROOT
HETATM    1  C8  UNL     1      24.250   3.007  50.795  1.00  0.00     0.071 C 
HETATM    2  C9  UNL     1      23.479   2.671  51.808  1.00  0.00    -0.019 C 
HETATM    3  C10 UNL     1      23.536   1.791  52.977  1.00  0.00     0.049 C 
HETATM    4  C11 UNL     1      22.577   0.793  52.951  1.00  0.00     0.104 C 
HETATM    5  C13 UNL     1      21.664   0.736  51.724  1.00  0.00     0.124 C 
HETATM    6  C15 UNL     1      21.975   1.722  50.883  1.00  0.00     0.046 C 
HETATM    7  C16 UNL     1      22.005   3.150  51.579  1.00  0.00     0.101 C 
HETATM    8  N1  UNL     1      22.489   1.921  49.562  1.00  0.00    -0.384 N 
HETATM    9  C17 UNL     1      23.523   3.011  49.429  1.00  0.00     0.184 C 
HETATM   10  H23 UNL     1      21.926   1.139  49.058  1.00  0.00     0.159 HD
ENDROOT
BRANCH   1  11
HETATM   11  O1  UNL     1      25.449   3.202  51.548  1.00  0.00    -0.349 OA
BRANCH  11  12
HETATM   12  C7  UNL     1      26.559   2.441  51.096  1.00  0.00     0.203 C 
BRANCH  12  13
HETATM   13  C6  UNL     1      27.243   1.745  52.238  1.00  0.00     0.002 C 
HETATM   14  C4  UNL     1      27.275   0.520  52.821  1.00  0.00    -0.086 C 
HETATM   15  C5  UNL     1      26.410  -0.524  52.216  1.00  0.00     0.043 C 
BRANCH  14  16
HETATM   16  C3  UNL     1      28.167   0.351  53.979  1.00  0.00     0.033 C 
BRANCH  16  17
HETATM   17  C2  UNL     1      29.572  -0.027  53.690  1.00  0.00    -0.000 C 
HETATM   18  C1  UNL     1      29.753  -1.508  53.475  1.00  0.00     0.005 C 
ENDBRANCH  16  17
ENDBRANCH  14  16
ENDBRANCH  12  13
ENDBRANCH  11  12
ENDBRANCH   1  11
BRANCH   4  19
HETATM   19  O2  UNL     1      22.317  -0.169  53.869  1.00  0.00    -0.353 OA
HETATM   20  C12 UNL     1      21.168   0.026  54.705  1.00  0.00     0.210 C 
ENDBRANCH   4  19
BRANCH   5  21
HETATM   21  O3  UNL     1      20.650   0.087  51.100  1.00  0.00    -0.351 OA
HETATM   22  C14 UNL     1      19.296   0.184  51.490  1.00  0.00     0.210 C 
ENDBRANCH   5  21
TORSDOF 7
ENDMDL
MODEL 9
REMARK VINA RESULT:      -6.3      3.091      4.712
REMARK  7 active torsions:
REMARK  status: ('A' for Active; 'I' for Inactive)
REMARK    1  A    between atoms: C2_2  and  C3_3 
REMARK    2  A    between atoms: C3_3  and  C4_4 
REMARK    3  A    between atoms: C6_6  and  C7_7 
REMARK    4  A    between atoms: C7_7  and  O1_8 
REMARK    5  A    between atoms: O1_8  and  C8_9 
REMARK    6  A    between atoms: C11_12  and  O2_13 
REMARK    7  A    between atoms: C13_15  and  O3_16 
ROOT
HETATM    1  C8  UNL     1      22.862   2.220  52.417  1.00  0.00     0.071 C 
HETATM    2  C9  UNL     1      23.883   1.404  52.263  1.00  0.00    -0.019 C 
HETATM    3  C10 UNL     1      24.343   0.120  52.796  1.00  0.00     0.049 C 
HETATM    4  C11 UNL     1      25.547   0.215  53.471  1.00  0.00     0.104 C 
HETATM    5  C13 UNL     1      26.171   1.607  53.593  1.00  0.00     0.124 C 
HETATM    6  C15 UNL     1      25.401   2.502  52.975  1.00  0.00     0.046 C 
HETATM    7  C16 UNL     1      25.049   2.098  51.480  1.00  0.00     0.101 C 
HETATM    8  N1  UNL     1      24.601   3.654  53.267  1.00  0.00    -0.384 N 
HETATM    9  C17 UNL     1      23.266   3.707  52.567  1.00  0.00     0.184 C 
HETATM   10  H23 UNL     1      25.275   4.136  53.971  1.00  0.00     0.159 HD
ENDROOT
BRANCH   1  11
HETATM   11  O1  UNL     1      21.836   1.227  52.366  1.00  0.00    -0.349 OA
BRANCH  11  12
HETATM   12  C7  UNL     1      20.587   1.642  52.898  1.00  0.00     0.203 C 
BRANCH  12  13
HETATM   13  C6  UNL     1      19.513   0.629  52.620  1.00  0.00     0.002 C 
HETATM   14  C4  UNL     1      18.741   0.210  51.586  1.00  0.00    -0.086 C 
HETATM   15  C5  UNL     1      18.952   0.893  50.284  1.00  0.00     0.043 C 
BRANCH  14  16
HETATM   16  C3  UNL     1      17.789  -0.879  51.856  1.00  0.00     0.033 C 
BRANCH  16  17
HETATM   17  C2  UNL     1      17.534  -1.203  53.281  1.00  0.00    -0.000 C 
HETATM   18  C1  UNL     1      17.861  -2.633  53.629  1.00  0.00     0.005 C 
ENDBRANCH  16  17
ENDBRANCH  14  16
ENDBRANCH  12  13
ENDBRANCH  11  12
ENDBRANCH   1  11
BRANCH   4  19
HETATM   19  O2  UNL     1      26.278  -0.763  54.060  1.00  0.00    -0.353 OA
HETATM   20  C12 UNL     1      27.375  -1.297  53.305  1.00  0.00     0.210 C 
ENDBRANCH   4  19
BRANCH   5  21
HETATM   21  O3  UNL     1      27.197   2.346  54.082  1.00  0.00    -0.351 OA
HETATM   22  C14 UNL     1      28.501   2.337  53.541  1.00  0.00     0.210 C 
ENDBRANCH   5  21
TORSDOF 7
ENDMDL
