MODEL 1
REMARK VINA RESULT:      -7.5      0.000      0.000
REMARK  6 active torsions:
REMARK  status: ('A' for Active; 'I' for Inactive)
REMARK    1  A    between atoms: O1_2  and  C2_3 
REMARK    2  A    between atoms: C7_10  and  N3_11 
REMARK    3  A    between atoms: N3_11  and  C8_12 
REMARK    4  A    between atoms: C10_14  and  O2_15 
REMARK    5  A    between atoms: C11_16  and  O3_17 
REMARK    6  A    between atoms: C13_19  and  O4_20 
ROOT
HETATM    1  N3  UNL     1      24.865   2.832  53.142  1.00  0.00    -0.340 N 
HETATM    2  H7  UNL     1      24.379   3.403  53.862  1.00  0.00     0.167 HD
ENDROOT
BRANCH   1   3
HETATM    3  C7  UNL     1      24.451   2.848  51.781  1.00  0.00     0.142 A 
HETATM    4  N2  UNL     1      25.084   3.527  50.805  1.00  0.00    -0.224 NA
HETATM    5  C6  UNL     1      24.679   3.531  49.522  1.00  0.00     0.236 A 
HETATM    6  N1  UNL     1      23.588   2.833  49.159  1.00  0.00    -0.241 NA
HETATM    7  C5  UNL     1      22.908   2.131  50.092  1.00  0.00     0.072 A 
HETATM    8  C4  UNL     1      21.801   1.438  49.650  1.00  0.00     0.035 A 
HETATM    9  C16 UNL     1      23.328   2.130  51.405  1.00  0.00     0.041 A 
HETATM   10  C3  UNL     1      21.098   0.712  50.612  1.00  0.00     0.039 A 
HETATM   11  C2  UNL     1      21.470   0.672  51.947  1.00  0.00     0.069 A 
HETATM   12  C17 UNL     1      22.592   1.397  52.294  1.00  0.00     0.054 A 
BRANCH  11  13
HETATM   13  O1  UNL     1      20.751  -0.059  52.885  1.00  0.00    -0.356 OA
HETATM   14  C1  UNL     1      20.998   0.150  54.248  1.00  0.00     0.210 C 
ENDBRANCH  11  13
ENDBRANCH   1   3
BRANCH   1  15
HETATM   15  C8  UNL     1      25.972   1.997  53.464  1.00  0.00     0.039 A 
HETATM   16  C9  UNL     1      27.168   2.586  53.817  1.00  0.00     0.069 A 
HETATM   17  C10 UNL     1      28.246   1.754  54.131  1.00  0.00     0.103 A 
HETATM   18  C11 UNL     1      28.084   0.384  54.078  1.00  0.00     0.135 A 
HETATM   19  C13 UNL     1      26.858  -0.186  53.716  1.00  0.00     0.106 A 
HETATM   20  C15 UNL     1      25.804   0.632  53.410  1.00  0.00     0.069 A 
BRANCH  17  21
HETATM   21  O2  UNL     1      29.435   2.378  54.482  1.00  0.00    -0.358 OA
HETATM   22  H9  UNL     1      29.477   3.374  54.641  1.00  0.00     0.217 HD
ENDBRANCH  17  21
BRANCH  18  23
HETATM   23  O3  UNL     1      29.245  -0.330  54.416  1.00  0.00    -0.351 OA
HETATM   24  C12 UNL     1      30.171  -0.745  53.413  1.00  0.00     0.210 C 
ENDBRANCH  18  23
BRANCH  19  25
HETATM   25  O4  UNL     1      26.910  -1.575  53.726  1.00  0.00    -0.353 OA
HETATM   26  C14 UNL     1      26.933  -2.268  52.491  1.00  0.00     0.210 C 
ENDBRANCH  19  25
ENDBRANCH   1  15
TORSDOF 6
ENDMDL
MODEL 2
REMARK VINA RESULT:      -7.5      3.609      6.198
REMARK  6 active torsions:
REMARK  status: ('A' for Active; 'I' for Inactive)
REMARK    1  A    between atoms: O1_2  and  C2_3 
REMARK    2  A    between atoms: C7_10  and  N3_11 
REMARK    3  A    between atoms: N3_11  and  C8_12 
REMARK    4  A    between atoms: C10_14  and  O2_15 
REMARK    5  A    between atoms: C11_16  and  O3_17 
REMARK    6  A    between atoms: C13_19  and  O4_20 
ROOT
HETATM    1  N3  UNL     1      26.114   2.104  50.737  1.00  0.00    -0.340 N 
HETATM    2  H7  UNL     1      25.768   1.316  50.152  1.00  0.00     0.167 HD
ENDROOT
BRANCH   1   3
HETATM    3  C7  UNL     1      26.749   1.872  51.989  1.00  0.00     0.142 A 
HETATM    4  N2  UNL     1      27.918   2.428  52.359  1.00  0.00    -0.224 NA
HETATM    5  C6  UNL     1      28.505   2.198  53.549  1.00  0.00     0.236 A 
HETATM    6  N1  UNL     1      27.921   1.374  54.438  1.00  0.00    -0.241 NA
HETATM    7  C5  UNL     1      26.747   0.785  54.126  1.00  0.00     0.072 A 
HETATM    8  C4  UNL     1      26.205  -0.046  55.084  1.00  0.00     0.035 A 
HETATM    9  C16 UNL     1      26.150   1.024  52.906  1.00  0.00     0.041 A 
HETATM   10  C3  UNL     1      24.991  -0.655  54.763  1.00  0.00     0.039 A 
HETATM   11  C2  UNL     1      24.342  -0.454  53.554  1.00  0.00     0.069 A 
HETATM   12  C17 UNL     1      24.962   0.395  52.659  1.00  0.00     0.054 A 
BRANCH  11  13
HETATM   13  O1  UNL     1      23.134  -1.074  53.260  1.00  0.00    -0.356 OA
HETATM   14  C1  UNL     1      22.187  -1.238  54.278  1.00  0.00     0.210 C 
ENDBRANCH  11  13
ENDBRANCH   1   3
BRANCH   1  15
HETATM   15  C8  UNL     1      25.979   3.460  50.330  1.00  0.00     0.039 A 
HETATM   16  C9  UNL     1      24.947   4.212  50.851  1.00  0.00     0.069 A 
HETATM   17  C10 UNL     1      24.827   5.543  50.441  1.00  0.00     0.103 A 
HETATM   18  C11 UNL     1      25.734   6.060  49.538  1.00  0.00     0.135 A 
HETATM   19  C13 UNL     1      26.772   5.273  49.026  1.00  0.00     0.106 A 
HETATM   20  C15 UNL     1      26.887   3.970  49.429  1.00  0.00     0.069 A 
BRANCH  17  21
HETATM   21  O2  UNL     1      23.777   6.271  50.985  1.00  0.00    -0.358 OA
HETATM   22  H9  UNL     1      22.819   5.979  50.863  1.00  0.00     0.217 HD
ENDBRANCH  17  21
BRANCH  18  23
HETATM   23  O3  UNL     1      25.496   7.405  49.215  1.00  0.00    -0.351 OA
HETATM   24  C12 UNL     1      26.163   8.457  49.911  1.00  0.00     0.210 C 
ENDBRANCH  18  23
BRANCH  19  25
HETATM   25  O4  UNL     1      27.568   5.984  48.136  1.00  0.00    -0.353 OA
HETATM   26  C14 UNL     1      28.970   5.785  48.161  1.00  0.00     0.210 C 
ENDBRANCH  19  25
ENDBRANCH   1  15
TORSDOF 6
ENDMDL
MODEL 3
REMARK VINA RESULT:      -7.4      2.158      3.942
REMARK  6 active torsions:
REMARK  status: ('A' for Active; 'I' for Inactive)
REMARK    1  A    between atoms: O1_2  and  C2_3 
REMARK    2  A    between atoms: C7_10  and  N3_11 
REMARK    3  A    between atoms: N3_11  and  C8_12 
REMARK    4  A    between atoms: C10_14  and  O2_15 
REMARK    5  A    between atoms: C11_16  and  O3_17 
REMARK    6  A    between atoms: C13_19  and  O4_20 
ROOT
HETATM    1  N3  UNL     1      24.018   0.573  52.217  1.00  0.00    -0.340 N 
HETATM    2  H7  UNL     1      23.918   1.157  51.362  1.00  0.00     0.167 HD
ENDROOT
BRANCH   1   3
HETATM    3  C7  UNL     1      22.881   0.091  52.922  1.00  0.00     0.142 A 
HETATM    4  N2  UNL     1      22.933  -0.493  54.134  1.00  0.00    -0.224 NA
HETATM    5  C6  UNL     1      21.845  -0.944  54.787  1.00  0.00     0.236 A 
HETATM    6  N1  UNL     1      20.628  -0.823  54.228  1.00  0.00    -0.241 NA
HETATM    7  C5  UNL     1      20.509  -0.246  53.013  1.00  0.00     0.072 A 
HETATM    8  C4  UNL     1      19.231  -0.154  52.501  1.00  0.00     0.035 A 
HETATM    9  C16 UNL     1      21.626   0.214  52.348  1.00  0.00     0.041 A 
HETATM   10  C3  UNL     1      19.108   0.441  51.245  1.00  0.00     0.039 A 
HETATM   11  C2  UNL     1      20.192   0.924  50.528  1.00  0.00     0.069 A 
HETATM   12  C17 UNL     1      21.431   0.787  51.123  1.00  0.00     0.054 A 
BRANCH  11  13
HETATM   13  O1  UNL     1      20.040   1.512  49.279  1.00  0.00    -0.356 OA
HETATM   14  C1  UNL     1      18.935   2.340  49.045  1.00  0.00     0.210 C 
ENDBRANCH  11  13
ENDBRANCH   1   3
BRANCH   1  15
HETATM   15  C8  UNL     1      25.293   0.218  52.740  1.00  0.00     0.039 A 
HETATM   16  C9  UNL     1      25.737  -1.079  52.587  1.00  0.00     0.069 A 
HETATM   17  C10 UNL     1      26.991  -1.413  53.106  1.00  0.00     0.103 A 
HETATM   18  C11 UNL     1      27.739  -0.448  53.749  1.00  0.00     0.135 A 
HETATM   19  C13 UNL     1      27.263   0.861  53.890  1.00  0.00     0.106 A 
HETATM   20  C15 UNL     1      26.034   1.184  53.381  1.00  0.00     0.069 A 
BRANCH  17  21
HETATM   21  O2  UNL     1      27.407  -2.726  52.934  1.00  0.00    -0.358 OA
HETATM   22  H9  UNL     1      28.066  -2.978  52.212  1.00  0.00     0.217 HD
ENDBRANCH  17  21
BRANCH  18  23
HETATM   23  O3  UNL     1      28.974  -0.920  54.220  1.00  0.00    -0.351 OA
HETATM   24  C12 UNL     1      30.147  -0.840  53.412  1.00  0.00     0.210 C 
ENDBRANCH  18  23
BRANCH  19  25
HETATM   25  O4  UNL     1      28.168   1.670  54.567  1.00  0.00    -0.353 OA
HETATM   26  C14 UNL     1      28.995   2.544  53.820  1.00  0.00     0.210 C 
ENDBRANCH  19  25
ENDBRANCH   1  15
TORSDOF 6
ENDMDL
MODEL 4
REMARK VINA RESULT:      -7.3      3.461      6.204
REMARK  6 active torsions:
REMARK  status: ('A' for Active; 'I' for Inactive)
REMARK    1  A    between atoms: O1_2  and  C2_3 
REMARK    2  A    between atoms: C7_10  and  N3_11 
REMARK    3  A    between atoms: N3_11  and  C8_12 
REMARK    4  A    between atoms: C10_14  and  O2_15 
REMARK    5  A    between atoms: C11_16  and  O3_17 
REMARK    6  A    between atoms: C13_19  and  O4_20 
ROOT
HETATM    1  N3  UNL     1      26.311   2.080  50.727  1.00  0.00    -0.340 N 
HETATM    2  H7  UNL     1      26.137   1.282  50.082  1.00  0.00     0.167 HD
ENDROOT
BRANCH   1   3
HETATM    3  C7  UNL     1      26.905   1.883  52.004  1.00  0.00     0.142 A 
HETATM    4  N2  UNL     1      28.059   2.454  52.398  1.00  0.00    -0.224 NA
HETATM    5  C6  UNL     1      28.607   2.256  53.611  1.00  0.00     0.236 A 
HETATM    6  N1  UNL     1      27.998   1.452  54.501  1.00  0.00    -0.241 NA
HETATM    7  C5  UNL     1      26.838   0.849  54.166  1.00  0.00     0.072 A 
HETATM    8  C4  UNL     1      26.268   0.039  55.126  1.00  0.00     0.035 A 
HETATM    9  C16 UNL     1      26.280   1.055  52.922  1.00  0.00     0.041 A 
HETATM   10  C3  UNL     1      25.069  -0.584  54.781  1.00  0.00     0.039 A 
HETATM   11  C2  UNL     1      24.459  -0.417  53.547  1.00  0.00     0.069 A 
HETATM   12  C17 UNL     1      25.104   0.413  52.651  1.00  0.00     0.054 A 
BRANCH  11  13
HETATM   13  O1  UNL     1      23.264  -1.050  53.229  1.00  0.00    -0.356 OA
HETATM   14  C1  UNL     1      22.298  -1.225  54.228  1.00  0.00     0.210 C 
ENDBRANCH  11  13
ENDBRANCH   1   3
BRANCH   1  15
HETATM   15  C8  UNL     1      25.969   3.417  50.380  1.00  0.00     0.039 A 
HETATM   16  C9  UNL     1      26.761   4.093  49.476  1.00  0.00     0.069 A 
HETATM   17  C10 UNL     1      26.412   5.405  49.145  1.00  0.00     0.103 A 
HETATM   18  C11 UNL     1      25.300   5.980  49.726  1.00  0.00     0.135 A 
HETATM   19  C13 UNL     1      24.514   5.269  50.641  1.00  0.00     0.106 A 
HETATM   20  C15 UNL     1      24.858   3.984  50.962  1.00  0.00     0.069 A 
BRANCH  17  21
HETATM   21  O2  UNL     1      27.231   6.057  48.232  1.00  0.00    -0.358 OA
HETATM   22  H9  UNL     1      27.323   5.728  47.283  1.00  0.00     0.217 HD
ENDBRANCH  17  21
BRANCH  18  23
HETATM   23  O3  UNL     1      25.067   7.299  49.305  1.00  0.00    -0.351 OA
HETATM   24  C12 UNL     1      24.201   7.577  48.206  1.00  0.00     0.210 C 
ENDBRANCH  18  23
BRANCH  19  25
HETATM   25  O4  UNL     1      23.447   6.029  51.104  1.00  0.00    -0.353 OA
HETATM   26  C14 UNL     1      22.141   5.483  51.044  1.00  0.00     0.210 C 
ENDBRANCH  19  25
ENDBRANCH   1  15
TORSDOF 6
ENDMDL
MODEL 5
REMARK VINA RESULT:      -7.3      3.258      5.806
REMARK  6 active torsions:
REMARK  status: ('A' for Active; 'I' for Inactive)
REMARK    1  A    between atoms: O1_2  and  C2_3 
REMARK    2  A    between atoms: C7_10  and  N3_11 
REMARK    3  A    between atoms: N3_11  and  C8_12 
REMARK    4  A    between atoms: C10_14  and  O2_15 
REMARK    5  A    between atoms: C11_16  and  O3_17 
REMARK    6  A    between atoms: C13_19  and  O4_20 
ROOT
HETATM    1  N3  UNL     1      24.304   1.173  51.478  1.00  0.00    -0.340 N 
HETATM    2  H7  UNL     1      23.844   0.564  50.771  1.00  0.00     0.167 HD
ENDROOT
BRANCH   1   3
HETATM    3  C7  UNL     1      24.974   0.622  52.605  1.00  0.00     0.142 A 
HETATM    4  N2  UNL     1      26.294   0.750  52.838  1.00  0.00    -0.224 NA
HETATM    5  C6  UNL     1      26.913   0.222  53.911  1.00  0.00     0.236 A 
HETATM    6  N1  UNL     1      26.206  -0.477  54.817  1.00  0.00    -0.241 NA
HETATM    7  C5  UNL     1      24.877  -0.640  54.641  1.00  0.00     0.072 A 
HETATM    8  C4  UNL     1      24.215  -1.366  55.609  1.00  0.00     0.035 A 
HETATM    9  C16 UNL     1      24.248  -0.097  53.540  1.00  0.00     0.041 A 
HETATM   10  C3  UNL     1      22.842  -1.536  55.428  1.00  0.00     0.039 A 
HETATM   11  C2  UNL     1      22.154  -1.015  54.343  1.00  0.00     0.069 A 
HETATM   12  C17 UNL     1      22.902  -0.303  53.426  1.00  0.00     0.054 A 
BRANCH  11  13
HETATM   13  O1  UNL     1      20.786  -1.199  54.187  1.00  0.00    -0.356 OA
HETATM   14  C1  UNL     1      20.032  -0.203  53.554  1.00  0.00     0.210 C 
ENDBRANCH  11  13
ENDBRANCH   1   3
BRANCH   1  15
HETATM   15  C8  UNL     1      24.297   2.592  51.368  1.00  0.00     0.039 A 
HETATM   16  C9  UNL     1      23.521   3.323  52.243  1.00  0.00     0.069 A 
HETATM   17  C10 UNL     1      23.523   4.715  52.123  1.00  0.00     0.103 A 
HETATM   18  C11 UNL     1      24.293   5.311  51.145  1.00  0.00     0.135 A 
HETATM   19  C13 UNL     1      25.072   4.544  50.271  1.00  0.00     0.106 A 
HETATM   20  C15 UNL     1      25.067   3.180  50.391  1.00  0.00     0.069 A 
BRANCH  17  21
HETATM   21  O2  UNL     1      22.731   5.420  53.019  1.00  0.00    -0.358 OA
HETATM   22  H9  UNL     1      22.877   6.404  53.186  1.00  0.00     0.217 HD
ENDBRANCH  17  21
BRANCH  18  23
HETATM   23  O3  UNL     1      24.202   6.712  51.138  1.00  0.00    -0.351 OA
HETATM   24  C12 UNL     1      23.216   7.380  50.353  1.00  0.00     0.210 C 
ENDBRANCH  18  23
BRANCH  19  25
HETATM   25  O4  UNL     1      25.767   5.337  49.366  1.00  0.00    -0.353 OA
HETATM   26  C14 UNL     1      27.020   4.888  48.882  1.00  0.00     0.210 C 
ENDBRANCH  19  25
ENDBRANCH   1  15
TORSDOF 6
ENDMDL
MODEL 6
REMARK VINA RESULT:      -7.2      3.451      6.505
REMARK  6 active torsions:
REMARK  status: ('A' for Active; 'I' for Inactive)
REMARK    1  A    between atoms: O1_2  and  C2_3 
REMARK    2  A    between atoms: C7_10  and  N3_11 
REMARK    3  A    between atoms: N3_11  and  C8_12 
REMARK    4  A    between atoms: C10_14  and  O2_15 
REMARK    5  A    between atoms: C11_16  and  O3_17 
REMARK    6  A    between atoms: C13_19  and  O4_20 
ROOT
HETATM    1  N3  UNL     1      23.091   1.293  51.261  1.00  0.00    -0.340 N 
HETATM    2  H7  UNL     1      23.648   0.731  50.585  1.00  0.00     0.167 HD
ENDROOT
BRANCH   1   3
HETATM    3  C7  UNL     1      22.333   0.672  52.292  1.00  0.00     0.142 A 
HETATM    4  N2  UNL     1      20.988   0.682  52.353  1.00  0.00    -0.224 NA
HETATM    5  C6  UNL     1      20.285   0.089  53.336  1.00  0.00     0.236 A 
HETATM    6  N1  UNL     1      20.929  -0.556  54.326  1.00  0.00    -0.241 NA
HETATM    7  C5  UNL     1      22.278  -0.601  54.323  1.00  0.00     0.072 A 
HETATM    8  C4  UNL     1      22.871  -1.278  55.368  1.00  0.00     0.035 A 
HETATM    9  C16 UNL     1      22.993   0.008  53.313  1.00  0.00     0.041 A 
HETATM   10  C3  UNL     1      24.266  -1.326  55.364  1.00  0.00     0.039 A 
HETATM   11  C2  UNL     1      25.039  -0.733  54.378  1.00  0.00     0.069 A 
HETATM   12  C17 UNL     1      24.355  -0.078  53.373  1.00  0.00     0.054 A 
BRANCH  11  13
HETATM   13  O1  UNL     1      26.426  -0.796  54.400  1.00  0.00    -0.356 OA
HETATM   14  C1  UNL     1      27.155   0.350  54.744  1.00  0.00     0.210 C 
ENDBRANCH  11  13
ENDBRANCH   1   3
BRANCH   1  15
HETATM   15  C8  UNL     1      23.049   2.714  51.203  1.00  0.00     0.039 A 
HETATM   16  C9  UNL     1      23.493   3.438  52.290  1.00  0.00     0.069 A 
HETATM   17  C10 UNL     1      23.445   4.833  52.218  1.00  0.00     0.103 A 
HETATM   18  C11 UNL     1      22.960   5.438  51.077  1.00  0.00     0.135 A 
HETATM   19  C13 UNL     1      22.516   4.678  49.989  1.00  0.00     0.106 A 
HETATM   20  C15 UNL     1      22.564   3.312  50.062  1.00  0.00     0.069 A 
BRANCH  17  21
HETATM   21  O2  UNL     1      23.900   5.531  53.329  1.00  0.00    -0.358 OA
HETATM   22  H9  UNL     1      23.285   5.750  54.098  1.00  0.00     0.217 HD
ENDBRANCH  17  21
BRANCH  18  23
HETATM   23  O3  UNL     1      22.969   6.841  51.141  1.00  0.00    -0.351 OA
HETATM   24  C12 UNL     1      24.094   7.590  50.684  1.00  0.00     0.210 C 
ENDBRANCH  18  23
BRANCH  19  25
HETATM   25  O4  UNL     1      22.070   5.481  48.945  1.00  0.00    -0.353 OA
HETATM   26  C14 UNL     1      22.835   5.546  47.756  1.00  0.00     0.210 C 
ENDBRANCH  19  25
ENDBRANCH   1  15
TORSDOF 6
ENDMDL
MODEL 7
REMARK VINA RESULT:      -7.0      2.106      2.325
REMARK  6 active torsions:
REMARK  status: ('A' for Active; 'I' for Inactive)
REMARK    1  A    between atoms: O1_2  and  C2_3 
REMARK    2  A    between atoms: C7_10  and  N3_11 
REMARK    3  A    between atoms: N3_11  and  C8_12 
REMARK    4  A    between atoms: C10_14  and  O2_15 
REMARK    5  A    between atoms: C11_16  and  O3_17 
REMARK    6  A    between atoms: C13_19  and  O4_20 
ROOT
HETATM    1  N3  UNL     1      24.134   1.832  50.970  1.00  0.00    -0.340 N 
HETATM    2  H7  UNL     1      24.028   1.249  50.114  1.00  0.00     0.167 HD
ENDROOT
BRANCH   1   3
HETATM    3  C7  UNL     1      23.280   2.941  51.220  1.00  0.00     0.142 A 
HETATM    4  N2  UNL     1      23.701   4.218  51.299  1.00  0.00    -0.224 NA
HETATM    5  C6  UNL     1      22.878   5.257  51.536  1.00  0.00     0.236 A 
HETATM    6  N1  UNL     1      21.561   5.044  51.709  1.00  0.00    -0.241 NA
HETATM    7  C5  UNL     1      21.076   3.786  51.642  1.00  0.00     0.072 A 
HETATM    8  C4  UNL     1      19.717   3.643  51.828  1.00  0.00     0.035 A 
HETATM    9  C16 UNL     1      21.923   2.726  51.398  1.00  0.00     0.041 A 
HETATM   10  C3  UNL     1      19.215   2.342  51.758  1.00  0.00     0.039 A 
HETATM   11  C2  UNL     1      20.015   1.236  51.516  1.00  0.00     0.069 A 
HETATM   12  C17 UNL     1      21.363   1.480  51.343  1.00  0.00     0.054 A 
BRANCH  11  13
HETATM   13  O1  UNL     1      19.489  -0.048  51.452  1.00  0.00    -0.356 OA
HETATM   14  C1  UNL     1      18.414  -0.386  52.284  1.00  0.00     0.210 C 
ENDBRANCH  11  13
ENDBRANCH   1   3
BRANCH   1  15
HETATM   15  C8  UNL     1      25.135   1.562  51.945  1.00  0.00     0.039 A 
HETATM   16  C9  UNL     1      26.298   2.304  51.928  1.00  0.00     0.069 A 
HETATM   17  C10 UNL     1      27.271   2.027  52.891  1.00  0.00     0.103 A 
HETATM   18  C11 UNL     1      27.043   1.033  53.821  1.00  0.00     0.135 A 
HETATM   19  C13 UNL     1      25.853   0.297  53.815  1.00  0.00     0.106 A 
HETATM   20  C15 UNL     1      24.901   0.570  52.869  1.00  0.00     0.069 A 
BRANCH  17  21
HETATM   21  O2  UNL     1      28.429   2.792  52.846  1.00  0.00    -0.358 OA
HETATM   22  H9  UNL     1      28.709   3.269  52.002  1.00  0.00     0.217 HD
ENDBRANCH  17  21
BRANCH  18  23
HETATM   23  O3  UNL     1      28.101   0.862  54.728  1.00  0.00    -0.351 OA
HETATM   24  C12 UNL     1      29.120  -0.109  54.493  1.00  0.00     0.210 C 
ENDBRANCH  18  23
BRANCH  19  25
HETATM   25  O4  UNL     1      25.826  -0.652  54.831  1.00  0.00    -0.353 OA
HETATM   26  C14 UNL     1      24.574  -1.103  55.314  1.00  0.00     0.210 C 
ENDBRANCH  19  25
ENDBRANCH   1  15
TORSDOF 6
ENDMDL
MODEL 8
REMARK VINA RESULT:      -6.9      3.886      6.285
REMARK  6 active torsions:
REMARK  status: ('A' for Active; 'I' for Inactive)
REMARK    1  A    between atoms: O1_2  and  C2_3 
REMARK    2  A    between atoms: C7_10  and  N3_11 
REMARK    3  A    between atoms: N3_11  and  C8_12 
REMARK    4  A    between atoms: C10_14  and  O2_15 
REMARK    5  A    between atoms: C11_16  and  O3_17 
REMARK    6  A    between atoms: C13_19  and  O4_20 
ROOT
HETATM    1  N3  UNL     1      25.871   3.182  49.606  1.00  0.00    -0.340 N 
HETATM    2  H7  UNL     1      25.549   2.607  48.802  1.00  0.00     0.167 HD
ENDROOT
BRANCH   1   3
HETATM    3  C7  UNL     1      26.095   2.603  50.886  1.00  0.00     0.142 A 
HETATM    4  N2  UNL     1      27.269   2.650  51.544  1.00  0.00    -0.224 NA
HETATM    5  C6  UNL     1      27.464   2.097  52.755  1.00  0.00     0.236 A 
HETATM    6  N1  UNL     1      26.454   1.455  53.370  1.00  0.00    -0.241 NA
HETATM    7  C5  UNL     1      25.251   1.373  52.763  1.00  0.00     0.072 A 
HETATM    8  C4  UNL     1      24.262   0.701  53.451  1.00  0.00     0.035 A 
HETATM    9  C16 UNL     1      25.057   1.941  51.522  1.00  0.00     0.041 A 
HETATM   10  C3  UNL     1      23.018   0.616  52.824  1.00  0.00     0.039 A 
HETATM   11  C2  UNL     1      22.762   1.167  51.578  1.00  0.00     0.069 A 
HETATM   12  C17 UNL     1      23.814   1.820  50.967  1.00  0.00     0.054 A 
BRANCH  11  13
HETATM   13  O1  UNL     1      21.514   1.066  50.977  1.00  0.00    -0.356 OA
HETATM   14  C1  UNL     1      21.431   1.027  49.579  1.00  0.00     0.210 C 
ENDBRANCH  11  13
ENDBRANCH   1   3
BRANCH   1  15
HETATM   15  C8  UNL     1      26.111   4.579  49.486  1.00  0.00     0.039 A 
HETATM   16  C9  UNL     1      27.179   5.008  48.725  1.00  0.00     0.069 A 
HETATM   17  C10 UNL     1      27.402   6.383  48.616  1.00  0.00     0.103 A 
HETATM   18  C11 UNL     1      26.557   7.262  49.264  1.00  0.00     0.135 A 
HETATM   19  C13 UNL     1      25.480   6.798  50.029  1.00  0.00     0.106 A 
HETATM   20  C15 UNL     1      25.265   5.450  50.134  1.00  0.00     0.069 A 
BRANCH  17  21
HETATM   21  O2  UNL     1      28.485   6.780  47.844  1.00  0.00    -0.358 OA
HETATM   22  H9  UNL     1      28.369   7.407  47.061  1.00  0.00     0.217 HD
ENDBRANCH  17  21
BRANCH  18  23
HETATM   23  O3  UNL     1      26.896   8.610  49.069  1.00  0.00    -0.351 OA
HETATM   24  C12 UNL     1      27.702   9.309  50.017  1.00  0.00     0.210 C 
ENDBRANCH  18  23
BRANCH  19  25
HETATM   25  O4  UNL     1      24.759   7.843  50.594  1.00  0.00    -0.353 OA
HETATM   26  C14 UNL     1      23.346   7.828  50.504  1.00  0.00     0.210 C 
ENDBRANCH  19  25
ENDBRANCH   1  15
TORSDOF 6
ENDMDL
MODEL 9
REMARK VINA RESULT:      -6.9      2.803      4.540
REMARK  6 active torsions:
REMARK  status: ('A' for Active; 'I' for Inactive)
REMARK    1  A    between atoms: O1_2  and  C2_3 
REMARK    2  A    between atoms: C7_10  and  N3_11 
REMARK    3  A    between atoms: N3_11  and  C8_12 
REMARK    4  A    between atoms: C10_14  and  O2_15 
REMARK    5  A    between atoms: C11_16  and  O3_17 
REMARK    6  A    between atoms: C13_19  and  O4_20 
ROOT
HETATM    1  N3  UNL     1      24.708   2.541  50.776  1.00  0.00    -0.340 N 
HETATM    2  H7  UNL     1      24.742   2.137  49.818  1.00  0.00     0.167 HD
ENDROOT
BRANCH   1   3
HETATM    3  C7  UNL     1      23.800   3.585  51.108  1.00  0.00     0.142 A 
HETATM    4  N2  UNL     1      22.625   3.393  51.736  1.00  0.00    -0.224 NA
HETATM    5  C6  UNL     1      21.777   4.393  52.043  1.00  0.00     0.236 A 
HETATM    6  N1  UNL     1      22.088   5.661  51.719  1.00  0.00    -0.241 NA
HETATM    7  C5  UNL     1      23.253   5.919  51.088  1.00  0.00     0.072 A 
HETATM    8  C4  UNL     1      23.508   7.241  50.788  1.00  0.00     0.035 A 
HETATM    9  C16 UNL     1      24.119   4.891  50.776  1.00  0.00     0.041 A 
HETATM   10  C3  UNL     1      24.712   7.508  50.136  1.00  0.00     0.039 A 
HETATM   11  C2  UNL     1      25.622   6.519  49.795  1.00  0.00     0.069 A 
HETATM   12  C17 UNL     1      25.280   5.226  50.138  1.00  0.00     0.054 A 
BRANCH  11  13
HETATM   13  O1  UNL     1      26.814   6.813  49.146  1.00  0.00    -0.356 OA
HETATM   14  C1  UNL     1      27.498   5.789  48.478  1.00  0.00     0.210 C 
ENDBRANCH  11  13
ENDBRANCH   1   3
BRANCH   1  15
HETATM   15  C8  UNL     1      25.563   2.082  51.817  1.00  0.00     0.039 A 
HETATM   16  C9  UNL     1      26.852   2.568  51.883  1.00  0.00     0.069 A 
HETATM   17  C10 UNL     1      27.679   2.107  52.911  1.00  0.00     0.103 A 
HETATM   18  C11 UNL     1      27.189   1.191  53.819  1.00  0.00     0.135 A 
HETATM   19  C13 UNL     1      25.876   0.715  53.727  1.00  0.00     0.106 A 
HETATM   20  C15 UNL     1      25.068   1.168  52.719  1.00  0.00     0.069 A 
BRANCH  17  21
HETATM   21  O2  UNL     1      28.971   2.616  52.948  1.00  0.00    -0.358 OA
HETATM   22  H9  UNL     1      29.773   2.007  53.006  1.00  0.00     0.217 HD
ENDBRANCH  17  21
BRANCH  18  23
HETATM   23  O3  UNL     1      28.125   0.815  54.795  1.00  0.00    -0.351 OA
HETATM   24  C12 UNL     1      29.020  -0.274  54.575  1.00  0.00     0.210 C 
ENDBRANCH  18  23
BRANCH  19  25
HETATM   25  O4  UNL     1      25.585  -0.197  54.735  1.00  0.00    -0.353 OA
HETATM   26  C14 UNL     1      24.392  -0.956  54.649  1.00  0.00     0.210 C 
ENDBRANCH  19  25
ENDBRANCH   1  15
TORSDOF 6
ENDMDL
