MODEL 1
REMARK VINA RESULT:     -10.0      0.000      0.000
REMARK  2 active torsions:
REMARK  status: ('A' for Active; 'I' for Inactive)
REMARK    1  A    between atoms: C2_2  and  N1_3 
REMARK    2  A    between atoms: C10_13  and  C11_14 
ROOT
HETATM    1  N1  UNL     1      23.874  -0.335  53.734  1.00  0.00    -0.390 N 
HETATM    2  C3  UNL     1      24.096   0.549  52.659  1.00  0.00     0.086 C 
HETATM    3  C4  UNL     1      24.204   1.380  51.675  1.00  0.00     0.026 C 
HETATM    4  C5  UNL     1      23.056   2.129  51.118  1.00  0.00    -0.028 C 
HETATM    5  C6  UNL     1      21.984   1.377  50.873  1.00  0.00     0.018 C 
HETATM    6  C7  UNL     1      20.645   1.854  51.162  1.00  0.00    -0.041 C 
HETATM    7  C8  UNL     1      20.559   3.104  51.686  1.00  0.00     0.095 C 
HETATM    8  N2  UNL     1      21.749   3.888  51.791  1.00  0.00    -0.357 N 
HETATM    9  C9  UNL     1      22.314   4.924  52.609  1.00  0.00     0.274 A 
HETATM   10  N3  UNL     1      23.591   5.227  52.031  1.00  0.00    -0.271 NA
HETATM   11  C10 UNL     1      23.857   4.492  51.006  1.00  0.00     0.068 A 
HETATM   12  C20 UNL     1      22.764   3.560  50.761  1.00  0.00     0.171 A 
HETATM   13  C21 UNL     1      19.289   1.266  51.090  1.00  0.00     0.059 C 
HETATM   14  C22 UNL     1      19.318  -0.150  51.726  1.00  0.00     0.118 C 
HETATM   15  N5  UNL     1      20.123  -0.003  52.855  1.00  0.00    -0.421 N 
HETATM   16  C23 UNL     1      20.209  -1.065  53.798  1.00  0.00     0.115 C 
HETATM   17  C24 UNL     1      21.541  -0.664  54.558  1.00  0.00     0.039 C 
HETATM   18  C25 UNL     1      22.611  -0.968  53.499  1.00  0.00     0.123 C 
HETATM   19  H23 UNL     1      20.356   0.936  53.188  1.00  0.00     0.153 HD
ENDROOT
BRANCH  11  20
HETATM   20  C11 UNL     1      25.100   4.616  50.246  1.00  0.00    -0.009 A 
HETATM   21  C12 UNL     1      25.904   3.534  49.967  1.00  0.00     0.016 A 
HETATM   22  C13 UNL     1      27.073   3.691  49.280  1.00  0.00     0.033 A 
HETATM   23  C14 UNL     1      27.504   4.924  48.837  1.00  0.00     0.066 A 
HETATM   24  N4  UNL     1      28.673   5.064  48.157  1.00  0.00    -0.260 NA
HETATM   25  C18 UNL     1      26.716   6.017  49.104  1.00  0.00    -0.006 A 
HETATM   26  C15 UNL     1      29.078   6.273  47.737  1.00  0.00     0.117 A 
HETATM   27  C16 UNL     1      28.313   7.423  47.984  1.00  0.00     0.020 A 
HETATM   28  C17 UNL     1      27.124   7.255  48.678  1.00  0.00     0.015 A 
HETATM   29  C19 UNL     1      25.512   5.881  49.808  1.00  0.00     0.027 A 
ENDBRANCH  11  20
BRANCH   1  30
HETATM   30  C2  UNL     1      24.659  -0.686  54.897  1.00  0.00     0.118 C 
HETATM   31  C1  UNL     1      26.074  -0.208  54.828  1.00  0.00     0.026 C 
ENDBRANCH   1  30
TORSDOF 2
ENDMDL
MODEL 2
REMARK VINA RESULT:     -10.0      3.246      5.434
REMARK  2 active torsions:
REMARK  status: ('A' for Active; 'I' for Inactive)
REMARK    1  A    between atoms: C2_2  and  N1_3 
REMARK    2  A    between atoms: C10_13  and  C11_14 
ROOT
HETATM    1  N1  UNL     1      19.511   0.368  51.308  1.00  0.00    -0.390 N 
HETATM    2  C3  UNL     1      20.917   0.440  51.248  1.00  0.00     0.086 C 
HETATM    3  C4  UNL     1      22.197   0.592  51.151  1.00  0.00     0.026 C 
HETATM    4  C5  UNL     1      22.825   1.794  50.560  1.00  0.00    -0.028 C 
HETATM    5  C6  UNL     1      22.303   2.162  49.391  1.00  0.00     0.018 C 
HETATM    6  C7  UNL     1      22.086   3.559  49.067  1.00  0.00    -0.041 C 
HETATM    7  C8  UNL     1      22.452   4.454  50.020  1.00  0.00     0.095 C 
HETATM    8  N2  UNL     1      23.126   3.979  51.186  1.00  0.00    -0.357 N 
HETATM    9  C9  UNL     1      23.283   4.307  52.576  1.00  0.00     0.274 A 
HETATM   10  N3  UNL     1      24.190   3.332  53.109  1.00  0.00    -0.271 NA
HETATM   11  C10 UNL     1      24.559   2.467  52.227  1.00  0.00     0.068 A 
HETATM   12  C20 UNL     1      23.921   2.749  50.949  1.00  0.00     0.171 A 
HETATM   13  C21 UNL     1      21.473   4.284  47.932  1.00  0.00     0.059 C 
HETATM   14  C22 UNL     1      20.120   3.611  47.575  1.00  0.00     0.118 C 
HETATM   15  N5  UNL     1      19.543   3.320  48.810  1.00  0.00    -0.421 N 
HETATM   16  C23 UNL     1      18.194   2.873  48.867  1.00  0.00     0.115 C 
HETATM   17  C24 UNL     1      18.169   2.222  50.312  1.00  0.00     0.039 C 
HETATM   18  C25 UNL     1      19.012   0.956  50.101  1.00  0.00     0.123 C 
HETATM   19  H23 UNL     1      19.930   3.743  49.658  1.00  0.00     0.153 HD
ENDROOT
BRANCH  11  20
HETATM   20  C11 UNL     1      25.483   1.375  52.532  1.00  0.00    -0.009 A 
HETATM   21  C12 UNL     1      25.062   0.071  52.668  1.00  0.00     0.016 A 
HETATM   22  C13 UNL     1      25.948  -0.919  52.982  1.00  0.00     0.033 A 
HETATM   23  C14 UNL     1      27.291  -0.669  53.176  1.00  0.00     0.066 A 
HETATM   24  N4  UNL     1      28.159  -1.667  53.492  1.00  0.00    -0.260 NA
HETATM   25  C18 UNL     1      27.732   0.625  53.043  1.00  0.00    -0.006 A 
HETATM   26  C15 UNL     1      29.461  -1.403  53.681  1.00  0.00     0.117 A 
HETATM   27  C16 UNL     1      29.965  -0.099  53.559  1.00  0.00     0.020 A 
HETATM   28  C17 UNL     1      29.061   0.901  53.236  1.00  0.00     0.015 A 
HETATM   29  C19 UNL     1      26.841   1.659  52.722  1.00  0.00     0.027 A 
ENDBRANCH  11  20
BRANCH   1  30
HETATM   30  C2  UNL     1      18.594  -0.179  52.284  1.00  0.00     0.118 C 
HETATM   31  C1  UNL     1      19.275  -0.901  53.402  1.00  0.00     0.026 C 
ENDBRANCH   1  30
TORSDOF 2
ENDMDL
MODEL 3
REMARK VINA RESULT:      -9.8      2.170      3.602
REMARK  2 active torsions:
REMARK  status: ('A' for Active; 'I' for Inactive)
REMARK    1  A    between atoms: C2_2  and  N1_3 
REMARK    2  A    between atoms: C10_13  and  C11_14 
ROOT
HETATM    1  N1  UNL     1      26.539   1.882  52.261  1.00  0.00    -0.390 N 
HETATM    2  C3  UNL     1      26.651   2.729  51.140  1.00  0.00     0.086 C 
HETATM    3  C4  UNL     1      26.658   3.511  50.110  1.00  0.00     0.026 C 
HETATM    4  C5  UNL     1      25.424   4.046  49.493  1.00  0.00    -0.028 C 
HETATM    5  C6  UNL     1      24.483   3.130  49.276  1.00  0.00     0.018 C 
HETATM    6  C7  UNL     1      23.082   3.415  49.516  1.00  0.00    -0.041 C 
HETATM    7  C8  UNL     1      22.797   4.664  49.965  1.00  0.00     0.095 C 
HETATM    8  N2  UNL     1      23.853   5.623  50.042  1.00  0.00    -0.357 N 
HETATM    9  C9  UNL     1      24.237   6.776  50.808  1.00  0.00     0.274 A 
HETATM   10  N3  UNL     1      25.467   7.236  50.233  1.00  0.00    -0.271 NA
HETATM   11  C10 UNL     1      25.865   6.493  49.257  1.00  0.00     0.068 A 
HETATM   12  C20 UNL     1      24.931   5.396  49.049  1.00  0.00     0.171 A 
HETATM   13  C21 UNL     1      21.831   2.625  49.456  1.00  0.00     0.059 C 
HETATM   14  C22 UNL     1      22.056   1.267  50.175  1.00  0.00     0.118 C 
HETATM   15  N5  UNL     1      22.802   1.596  51.305  1.00  0.00    -0.421 N 
HETATM   16  C23 UNL     1      23.024   0.613  52.309  1.00  0.00     0.115 C 
HETATM   17  C24 UNL     1      24.262   1.251  53.066  1.00  0.00     0.039 C 
HETATM   18  C25 UNL     1      25.390   1.054  52.043  1.00  0.00     0.123 C 
HETATM   19  H23 UNL     1      22.885   2.576  51.587  1.00  0.00     0.153 HD
ENDROOT
BRANCH  11  20
HETATM   20  C11 UNL     1      27.094   6.762  48.510  1.00  0.00    -0.009 A 
HETATM   21  C12 UNL     1      27.224   7.848  47.674  1.00  0.00     0.016 A 
HETATM   22  C13 UNL     1      28.376   8.052  46.970  1.00  0.00     0.033 A 
HETATM   23  C14 UNL     1      29.453   7.195  47.059  1.00  0.00     0.066 A 
HETATM   24  N4  UNL     1      30.591   7.411  46.347  1.00  0.00    -0.260 NA
HETATM   25  C18 UNL     1      29.344   6.106  47.888  1.00  0.00    -0.006 A 
HETATM   26  C15 UNL     1      31.627   6.563  46.443  1.00  0.00     0.117 A 
HETATM   27  C16 UNL     1      31.568   5.434  47.274  1.00  0.00     0.020 A 
HETATM   28  C17 UNL     1      30.398   5.235  47.990  1.00  0.00     0.015 A 
HETATM   29  C19 UNL     1      28.171   5.874  48.621  1.00  0.00     0.027 A 
ENDBRANCH  11  20
BRANCH   1  30
HETATM   30  C2  UNL     1      27.339   1.719  53.454  1.00  0.00     0.118 C 
HETATM   31  C1  UNL     1      28.595   2.530  53.446  1.00  0.00     0.026 C 
ENDBRANCH   1  30
TORSDOF 2
ENDMDL
MODEL 4
REMARK VINA RESULT:      -9.2      2.326      7.656
REMARK  2 active torsions:
REMARK  status: ('A' for Active; 'I' for Inactive)
REMARK    1  A    between atoms: C2_2  and  N1_3 
REMARK    2  A    between atoms: C10_13  and  C11_14 
ROOT
HETATM    1  N1  UNL     1      26.199   6.544  49.092  1.00  0.00    -0.390 N 
HETATM    2  C3  UNL     1      25.492   5.659  49.930  1.00  0.00     0.086 C 
HETATM    3  C4  UNL     1      24.761   4.883  50.662  1.00  0.00     0.026 C 
HETATM    4  C5  UNL     1      23.282   4.878  50.608  1.00  0.00    -0.028 C 
HETATM    5  C6  UNL     1      22.731   6.089  50.660  1.00  0.00     0.018 C 
HETATM    6  C7  UNL     1      21.588   6.435  49.838  1.00  0.00    -0.041 C 
HETATM    7  C8  UNL     1      21.119   5.452  49.027  1.00  0.00     0.095 C 
HETATM    8  N2  UNL     1      21.686   4.145  49.135  1.00  0.00    -0.357 N 
HETATM    9  C9  UNL     1      21.942   2.988  48.322  1.00  0.00     0.274 A 
HETATM   10  N3  UNL     1      22.534   2.018  49.198  1.00  0.00    -0.271 NA
HETATM   11  C10 UNL     1      22.682   2.462  50.399  1.00  0.00     0.068 A 
HETATM   12  C20 UNL     1      22.204   3.835  50.489  1.00  0.00     0.171 A 
HETATM   13  C21 UNL     1      20.809   7.671  49.599  1.00  0.00     0.059 C 
HETATM   14  C22 UNL     1      21.793   8.851  49.373  1.00  0.00     0.118 C 
HETATM   15  N5  UNL     1      22.799   8.312  48.574  1.00  0.00    -0.421 N 
HETATM   16  C23 UNL     1      23.777   9.172  48.001  1.00  0.00     0.115 C 
HETATM   17  C24 UNL     1      24.911   8.122  47.650  1.00  0.00     0.039 C 
HETATM   18  C25 UNL     1      25.447   7.762  49.043  1.00  0.00     0.123 C 
HETATM   19  H23 UNL     1      22.651   7.407  48.118  1.00  0.00     0.153 HD
ENDROOT
BRANCH  11  20
HETATM   20  C11 UNL     1      23.262   1.656  51.473  1.00  0.00    -0.009 A 
HETATM   21  C12 UNL     1      24.622   1.510  51.631  1.00  0.00     0.016 A 
HETATM   22  C13 UNL     1      25.129   0.726  52.627  1.00  0.00     0.033 A 
HETATM   23  C14 UNL     1      24.317   0.049  53.513  1.00  0.00     0.066 A 
HETATM   24  N4  UNL     1      24.838  -0.731  54.497  1.00  0.00    -0.260 NA
HETATM   25  C18 UNL     1      22.957   0.182  53.374  1.00  0.00    -0.006 A 
HETATM   26  C15 UNL     1      24.032  -1.386  55.347  1.00  0.00     0.117 A 
HETATM   27  C16 UNL     1      22.636  -1.287  55.249  1.00  0.00     0.020 A 
HETATM   28  C17 UNL     1      22.128  -0.484  54.239  1.00  0.00     0.015 A 
HETATM   29  C19 UNL     1      22.413   0.981  52.358  1.00  0.00     0.027 A 
ENDBRANCH  11  20
BRANCH   1  30
HETATM   30  C2  UNL     1      27.451   6.431  48.376  1.00  0.00     0.118 C 
HETATM   31  C1  UNL     1      28.082   5.080  48.488  1.00  0.00     0.026 C 
ENDBRANCH   1  30
TORSDOF 2
ENDMDL
MODEL 5
REMARK VINA RESULT:      -9.1      2.354      7.528
REMARK  2 active torsions:
REMARK  status: ('A' for Active; 'I' for Inactive)
REMARK    1  A    between atoms: C2_2  and  N1_3 
REMARK    2  A    between atoms: C10_13  and  C11_14 
ROOT
HETATM    1  N1  UNL     1      24.874   5.208  49.880  1.00  0.00    -0.390 N 
HETATM    2  C3  UNL     1      23.948   4.441  50.616  1.00  0.00     0.086 C 
HETATM    3  C4  UNL     1      23.029   3.780  51.240  1.00  0.00     0.026 C 
HETATM    4  C5  UNL     1      21.586   3.926  50.944  1.00  0.00    -0.028 C 
HETATM    5  C6  UNL     1      21.171   5.189  50.870  1.00  0.00     0.018 C 
HETATM    6  C7  UNL     1      20.219   5.614  49.862  1.00  0.00    -0.041 C 
HETATM    7  C8  UNL     1      19.780   4.649  49.014  1.00  0.00     0.095 C 
HETATM    8  N2  UNL     1      20.175   3.296  49.250  1.00  0.00    -0.357 N 
HETATM    9  C9  UNL     1      20.429   2.083  48.525  1.00  0.00     0.274 A 
HETATM   10  N3  UNL     1      20.763   1.098  49.513  1.00  0.00    -0.271 NA
HETATM   11  C10 UNL     1      20.765   1.579  50.709  1.00  0.00     0.068 A 
HETATM   12  C20 UNL     1      20.433   2.997  50.680  1.00  0.00     0.171 A 
HETATM   13  C21 UNL     1      19.630   6.912  49.463  1.00  0.00     0.059 C 
HETATM   14  C22 UNL     1      20.760   7.972  49.368  1.00  0.00     0.118 C 
HETATM   15  N5  UNL     1      21.816   7.294  48.760  1.00  0.00    -0.421 N 
HETATM   16  C23 UNL     1      22.962   8.021  48.331  1.00  0.00     0.115 C 
HETATM   17  C24 UNL     1      24.014   6.843  48.202  1.00  0.00     0.039 C 
HETATM   18  C25 UNL     1      24.278   6.494  49.673  1.00  0.00     0.123 C 
HETATM   19  H23 UNL     1      21.644   6.390  48.313  1.00  0.00     0.153 HD
ENDROOT
BRANCH  11  20
HETATM   20  C11 UNL     1      21.073   0.768  51.886  1.00  0.00    -0.009 A 
HETATM   21  C12 UNL     1      20.091   0.196  52.663  1.00  0.00     0.016 A 
HETATM   22  C13 UNL     1      20.414  -0.532  53.773  1.00  0.00     0.033 A 
HETATM   23  C14 UNL     1      21.722  -0.730  54.165  1.00  0.00     0.066 A 
HETATM   24  N4  UNL     1      22.026  -1.455  55.274  1.00  0.00    -0.260 NA
HETATM   25  C18 UNL     1      22.717  -0.170  53.402  1.00  0.00    -0.006 A 
HETATM   26  C15 UNL     1      23.304  -1.633  55.643  1.00  0.00     0.117 A 
HETATM   27  C16 UNL     1      24.360  -1.082  54.901  1.00  0.00     0.020 A 
HETATM   28  C17 UNL     1      24.024  -0.348  53.773  1.00  0.00     0.015 A 
HETATM   29  C19 UNL     1      22.410   0.583  52.259  1.00  0.00     0.027 A 
ENDBRANCH  11  20
BRANCH   1  30
HETATM   30  C2  UNL     1      26.204   4.933  49.382  1.00  0.00     0.118 C 
HETATM   31  C1  UNL     1      26.604   3.498  49.513  1.00  0.00     0.026 C 
ENDBRANCH   1  30
TORSDOF 2
ENDMDL
MODEL 6
REMARK VINA RESULT:      -8.7      3.650      8.755
REMARK  2 active torsions:
REMARK  status: ('A' for Active; 'I' for Inactive)
REMARK    1  A    between atoms: C2_2  and  N1_3 
REMARK    2  A    between atoms: C10_13  and  C11_14 
ROOT
HETATM    1  N1  UNL     1      22.184   0.467  53.015  1.00  0.00    -0.390 N 
HETATM    2  C3  UNL     1      20.966   1.170  52.923  1.00  0.00     0.086 C 
HETATM    3  C4  UNL     1      19.893   1.878  52.781  1.00  0.00     0.026 C 
HETATM    4  C5  UNL     1      19.834   3.098  51.945  1.00  0.00    -0.028 C 
HETATM    5  C6  UNL     1      20.835   3.951  52.156  1.00  0.00     0.018 C 
HETATM    6  C7  UNL     1      21.474   4.651  51.059  1.00  0.00    -0.041 C 
HETATM    7  C8  UNL     1      20.987   4.388  49.820  1.00  0.00     0.095 C 
HETATM    8  N2  UNL     1      19.826   3.563  49.700  1.00  0.00    -0.357 N 
HETATM    9  C9  UNL     1      19.228   2.635  48.781  1.00  0.00     0.274 A 
HETATM   10  N3  UNL     1      17.988   2.234  49.382  1.00  0.00    -0.271 NA
HETATM   11  C10 UNL     1      17.798   2.780  50.534  1.00  0.00     0.068 A 
HETATM   12  C20 UNL     1      18.925   3.637  50.875  1.00  0.00     0.171 A 
HETATM   13  C21 UNL     1      22.625   5.574  50.940  1.00  0.00     0.059 C 
HETATM   14  C22 UNL     1      23.818   5.001  51.752  1.00  0.00     0.118 C 
HETATM   15  N5  UNL     1      23.792   3.634  51.484  1.00  0.00    -0.421 N 
HETATM   16  C23 UNL     1      24.874   2.815  51.911  1.00  0.00     0.115 C 
HETATM   17  C24 UNL     1      24.191   1.386  51.850  1.00  0.00     0.039 C 
HETATM   18  C25 UNL     1      23.229   1.447  53.045  1.00  0.00     0.123 C 
HETATM   19  H23 UNL     1      23.218   3.283  50.714  1.00  0.00     0.153 HD
ENDROOT
BRANCH  11  20
HETATM   20  C11 UNL     1      16.604   2.527  51.340  1.00  0.00    -0.009 A 
HETATM   21  C12 UNL     1      16.056   1.270  51.468  1.00  0.00     0.016 A 
HETATM   22  C13 UNL     1      14.923   1.075  52.205  1.00  0.00     0.033 A 
HETATM   23  C14 UNL     1      14.278   2.111  52.849  1.00  0.00     0.066 A 
HETATM   24  N4  UNL     1      13.149   1.899  53.575  1.00  0.00    -0.260 NA
HETATM   25  C18 UNL     1      14.810   3.372  52.734  1.00  0.00    -0.006 A 
HETATM   26  C15 UNL     1      12.533   2.921  54.192  1.00  0.00     0.117 A 
HETATM   27  C16 UNL     1      13.032   4.229  54.106  1.00  0.00     0.020 A 
HETATM   28  C17 UNL     1      14.185   4.420  53.361  1.00  0.00     0.015 A 
HETATM   29  C19 UNL     1      15.971   3.598  51.983  1.00  0.00     0.027 A 
ENDBRANCH  11  20
BRANCH   1  30
HETATM   30  C2  UNL     1      22.503  -0.940  53.105  1.00  0.00     0.118 C 
HETATM   31  C1  UNL     1      21.908  -1.610  54.303  1.00  0.00     0.026 C 
ENDBRANCH   1  30
TORSDOF 2
ENDMDL
MODEL 7
REMARK VINA RESULT:      -8.6      3.397     10.609
REMARK  2 active torsions:
REMARK  status: ('A' for Active; 'I' for Inactive)
REMARK    1  A    between atoms: C2_2  and  N1_3 
REMARK    2  A    between atoms: C10_13  and  C11_14 
ROOT
HETATM    1  N1  UNL     1      32.164   7.691  47.096  1.00  0.00    -0.390 N 
HETATM    2  C3  UNL     1      30.997   7.435  47.843  1.00  0.00     0.086 C 
HETATM    3  C4  UNL     1      29.903   7.293  48.518  1.00  0.00     0.026 C 
HETATM    4  C5  UNL     1      28.963   8.406  48.777  1.00  0.00    -0.028 C 
HETATM    5  C6  UNL     1      29.546   9.520  49.215  1.00  0.00     0.018 C 
HETATM    6  C7  UNL     1      29.122  10.827  48.753  1.00  0.00    -0.041 C 
HETATM    7  C8  UNL     1      28.100  10.839  47.859  1.00  0.00     0.095 C 
HETATM    8  N2  UNL     1      27.447   9.608  47.547  1.00  0.00    -0.357 N 
HETATM    9  C9  UNL     1      26.751   8.977  46.459  1.00  0.00     0.274 A 
HETATM   10  N3  UNL     1      26.341   7.693  46.949  1.00  0.00    -0.271 NA
HETATM   11  C10 UNL     1      26.727   7.480  48.161  1.00  0.00     0.068 A 
HETATM   12  C20 UNL     1      27.479   8.624  48.656  1.00  0.00     0.171 A 
HETATM   13  C21 UNL     1      29.592  12.214  48.968  1.00  0.00     0.059 C 
HETATM   14  C22 UNL     1      31.136  12.254  48.812  1.00  0.00     0.118 C 
HETATM   15  N5  UNL     1      31.392  11.429  47.718  1.00  0.00    -0.421 N 
HETATM   16  C23 UNL     1      32.701  11.389  47.161  1.00  0.00     0.115 C 
HETATM   17  C24 UNL     1      32.625  10.029  46.352  1.00  0.00     0.039 C 
HETATM   18  C25 UNL     1      32.629   8.990  47.483  1.00  0.00     0.123 C 
HETATM   19  H23 UNL     1      30.619  11.141  47.112  1.00  0.00     0.153 HD
ENDROOT
BRANCH  11  20
HETATM   20  C11 UNL     1      26.427   6.241  48.877  1.00  0.00    -0.009 A 
HETATM   21  C12 UNL     1      27.152   5.086  48.685  1.00  0.00     0.016 A 
HETATM   22  C13 UNL     1      26.826   3.939  49.350  1.00  0.00     0.033 A 
HETATM   23  C14 UNL     1      25.770   3.878  50.235  1.00  0.00     0.066 A 
HETATM   24  N4  UNL     1      25.457   2.726  50.886  1.00  0.00    -0.260 NA
HETATM   25  C18 UNL     1      25.036   5.019  50.443  1.00  0.00    -0.006 A 
HETATM   26  C15 UNL     1      24.423   2.685  51.741  1.00  0.00     0.117 A 
HETATM   27  C16 UNL     1      23.638   3.821  51.989  1.00  0.00     0.020 A 
HETATM   28  C17 UNL     1      23.978   4.984  51.314  1.00  0.00     0.015 A 
HETATM   29  C19 UNL     1      25.350   6.209  49.771  1.00  0.00     0.027 A 
ENDBRANCH  11  20
BRANCH   1  30
HETATM   30  C2  UNL     1      32.902   6.913  46.126  1.00  0.00     0.118 C 
HETATM   31  C1  UNL     1      32.659   5.441  46.234  1.00  0.00     0.026 C 
ENDBRANCH   1  30
TORSDOF 2
ENDMDL
MODEL 8
REMARK VINA RESULT:      -8.5      2.114      8.531
REMARK  2 active torsions:
REMARK  status: ('A' for Active; 'I' for Inactive)
REMARK    1  A    between atoms: C2_2  and  N1_3 
REMARK    2  A    between atoms: C10_13  and  C11_14 
ROOT
HETATM    1  N1  UNL     1      22.959   7.113  49.749  1.00  0.00    -0.390 N 
HETATM    2  C3  UNL     1      22.624   5.744  49.745  1.00  0.00     0.086 C 
HETATM    3  C4  UNL     1      22.411   4.469  49.756  1.00  0.00     0.026 C 
HETATM    4  C5  UNL     1      23.484   3.471  49.965  1.00  0.00    -0.028 C 
HETATM    5  C6  UNL     1      24.568   3.675  49.219  1.00  0.00     0.018 C 
HETATM    6  C7  UNL     1      25.901   3.483  49.757  1.00  0.00    -0.041 C 
HETATM    7  C8  UNL     1      25.968   3.081  51.052  1.00  0.00     0.095 C 
HETATM    8  N2  UNL     1      24.755   2.759  51.734  1.00  0.00    -0.357 N 
HETATM    9  C9  UNL     1      24.203   2.772  53.060  1.00  0.00     0.274 A 
HETATM   10  N3  UNL     1      22.877   2.240  52.938  1.00  0.00    -0.271 NA
HETATM   11  C10 UNL     1      22.573   1.945  51.720  1.00  0.00     0.068 A 
HETATM   12  C20 UNL     1      23.686   2.261  50.835  1.00  0.00     0.171 A 
HETATM   13  C21 UNL     1      27.274   3.692  49.243  1.00  0.00     0.059 C 
HETATM   14  C22 UNL     1      27.351   5.084  48.561  1.00  0.00     0.118 C 
HETATM   15  N5  UNL     1      26.622   5.921  49.403  1.00  0.00    -0.421 N 
HETATM   16  C23 UNL     1      26.648   7.327  49.189  1.00  0.00     0.115 C 
HETATM   17  C24 UNL     1      25.356   7.763  49.997  1.00  0.00     0.039 C 
HETATM   18  C25 UNL     1      24.230   7.233  49.098  1.00  0.00     0.123 C 
HETATM   19  H23 UNL     1      26.371   5.597  50.341  1.00  0.00     0.153 HD
ENDROOT
BRANCH  11  20
HETATM   20  C11 UNL     1      21.276   1.385  51.344  1.00  0.00    -0.009 A 
HETATM   21  C12 UNL     1      20.723   1.581  50.098  1.00  0.00     0.016 A 
HETATM   22  C13 UNL     1      19.496   1.068  49.790  1.00  0.00     0.033 A 
HETATM   23  C14 UNL     1      18.757   0.337  50.698  1.00  0.00     0.066 A 
HETATM   24  N4  UNL     1      17.535  -0.164  50.376  1.00  0.00    -0.260 NA
HETATM   25  C18 UNL     1      19.292   0.128  51.946  1.00  0.00    -0.006 A 
HETATM   26  C15 UNL     1      16.829  -0.869  51.274  1.00  0.00     0.117 A 
HETATM   27  C16 UNL     1      17.327  -1.110  52.564  1.00  0.00     0.020 A 
HETATM   28  C17 UNL     1      18.576  -0.590  52.868  1.00  0.00     0.015 A 
HETATM   29  C19 UNL     1      20.549   0.647  52.285  1.00  0.00     0.027 A 
ENDBRANCH  11  20
BRANCH   1  30
HETATM   30  C2  UNL     1      22.273   8.292  50.230  1.00  0.00     0.118 C 
HETATM   31  C1  UNL     1      20.784   8.201  50.121  1.00  0.00     0.026 C 
ENDBRANCH   1  30
TORSDOF 2
ENDMDL
MODEL 9
REMARK VINA RESULT:      -8.5      5.219     12.718
REMARK  2 active torsions:
REMARK  status: ('A' for Active; 'I' for Inactive)
REMARK    1  A    between atoms: C2_2  and  N1_3 
REMARK    2  A    between atoms: C10_13  and  C11_14 
ROOT
HETATM    1  N1  UNL     1      32.832  10.046  44.416  1.00  0.00    -0.390 N 
HETATM    2  C3  UNL     1      31.979   9.043  44.917  1.00  0.00     0.086 C 
HETATM    3  C4  UNL     1      31.271   8.062  45.374  1.00  0.00     0.026 C 
HETATM    4  C5  UNL     1      31.825   6.713  45.623  1.00  0.00    -0.028 C 
HETATM    5  C6  UNL     1      32.550   6.228  44.617  1.00  0.00     0.018 C 
HETATM    6  C7  UNL     1      33.775   5.490  44.857  1.00  0.00    -0.041 C 
HETATM    7  C8  UNL     1      34.124   5.323  46.158  1.00  0.00     0.095 C 
HETATM    8  N2  UNL     1      33.219   5.759  47.173  1.00  0.00    -0.357 N 
HETATM    9  C9  UNL     1      33.235   6.258  48.520  1.00  0.00     0.274 A 
HETATM   10  N3  UNL     1      31.860   6.441  48.886  1.00  0.00    -0.271 NA
HETATM   11  C10 UNL     1      31.050   6.144  47.928  1.00  0.00     0.068 A 
HETATM   12  C20 UNL     1      31.797   5.720  46.753  1.00  0.00     0.171 A 
HETATM   13  C21 UNL     1      34.827   4.905  43.995  1.00  0.00     0.059 C 
HETATM   14  C22 UNL     1      35.232   5.945  42.915  1.00  0.00     0.118 C 
HETATM   15  N5  UNL     1      35.272   7.157  43.602  1.00  0.00    -0.421 N 
HETATM   16  C23 UNL     1      35.806   8.309  42.962  1.00  0.00     0.115 C 
HETATM   17  C24 UNL     1      35.196   9.452  43.876  1.00  0.00     0.039 C 
HETATM   18  C25 UNL     1      33.713   9.413  43.479  1.00  0.00     0.123 C 
HETATM   19  H23 UNL     1      35.260   7.156  44.626  1.00  0.00     0.153 HD
ENDROOT
BRANCH  11  20
HETATM   20  C11 UNL     1      29.597   6.249  48.063  1.00  0.00    -0.009 A 
HETATM   21  C12 UNL     1      28.915   7.412  47.784  1.00  0.00     0.016 A 
HETATM   22  C13 UNL     1      27.561   7.483  47.949  1.00  0.00     0.033 A 
HETATM   23  C14 UNL     1      26.819   6.410  48.396  1.00  0.00     0.066 A 
HETATM   24  N4  UNL     1      25.472   6.499  48.559  1.00  0.00    -0.260 NA
HETATM   25  C18 UNL     1      27.481   5.240  48.678  1.00  0.00    -0.006 A 
HETATM   26  C15 UNL     1      24.767   5.445  48.999  1.00  0.00     0.117 A 
HETATM   27  C16 UNL     1      25.392   4.226  49.304  1.00  0.00     0.020 A 
HETATM   28  C17 UNL     1      26.766   4.160  49.129  1.00  0.00     0.015 A 
HETATM   29  C19 UNL     1      28.870   5.143  48.518  1.00  0.00     0.027 A 
ENDBRANCH  11  20
BRANCH   1  30
HETATM   30  C2  UNL     1      32.924  11.469  44.654  1.00  0.00     0.118 C 
HETATM   31  C1  UNL     1      32.385  11.886  45.985  1.00  0.00     0.026 C 
ENDBRANCH   1  30
TORSDOF 2
ENDMDL
