MODEL 1
REMARK VINA RESULT:      -7.5      0.000      0.000
REMARK  6 active torsions:
REMARK  status: ('A' for Active; 'I' for Inactive)
REMARK    1  A    between atoms: C2_2  and  C3_3 
REMARK    2  A    between atoms: C3_3  and  C4_4 
REMARK    3  A    between atoms: C3_3  and  N4_16 
REMARK    4  A    between atoms: C6_9  and  C7_10 
REMARK    5  A    between atoms: C8_11  and  C9_12 
REMARK    6  A    between atoms: C14_19  and  N5_20 
ROOT
HETATM    1  C4  UNL     1      22.595   0.943  52.296  1.00  0.00     0.101 A 
HETATM    2  N1  UNL     1      21.340   0.840  52.945  1.00  0.00    -0.273 N 
HETATM    3  N2  UNL     1      21.149   0.088  54.092  1.00  0.00    -0.168 NA
HETATM    4  C5  UNL     1      22.107  -0.569  54.641  1.00  0.00     0.255 A 
HETATM    5  N3  UNL     1      23.406  -0.521  54.053  1.00  0.00    -0.238 NA
HETATM    6  C6  UNL     1      23.613   0.175  52.980  1.00  0.00     0.088 A 
HETATM    7  H6  UNL     1      20.486   1.314  52.610  1.00  0.00     0.189 HD
ENDROOT
BRANCH   1   8
HETATM    8  C3  UNL     1      22.819   1.648  51.236  1.00  0.00     0.038 C 
BRANCH   8   9
HETATM    9  C2  UNL     1      22.640   1.721  49.781  1.00  0.00     0.055 C 
HETATM   10  C1  UNL     1      21.446   0.961  49.244  1.00  0.00     0.011 C 
ENDBRANCH   8   9
BRANCH   8  11
HETATM   11  N4  UNL     1      23.546   2.871  51.514  1.00  0.00    -0.378 N 
HETATM   12  C12 UNL     1      23.669   3.691  52.697  1.00  0.00     0.125 C 
HETATM   13  C13 UNL     1      23.090   5.059  52.623  1.00  0.00     0.044 C 
HETATM   14  C14 UNL     1      23.743   5.782  51.479  1.00  0.00     0.077 C 
HETATM   15  C15 UNL     1      24.761   4.906  50.864  1.00  0.00     0.049 C 
HETATM   16  C16 UNL     1      24.368   3.515  50.529  1.00  0.00     0.082 C 
HETATM   17  C17 UNL     1      25.704   2.784  50.295  1.00  0.00     0.032 C 
BRANCH  14  18
HETATM   18  N5  UNL     1      24.384   7.014  51.918  1.00  0.00    -0.426 N 
HETATM   19  H19 UNL     1      23.729   7.743  52.216  1.00  0.00     0.150 HD
HETATM   20  H20 UNL     1      25.235   6.875  52.470  1.00  0.00     0.150 HD
ENDBRANCH  14  18
ENDBRANCH   8  11
ENDBRANCH   1   8
BRANCH   6  21
HETATM   21  C7  UNL     1      24.985   0.141  52.540  1.00  0.00     0.034 C 
HETATM   22  C8  UNL     1      25.815  -0.764  53.048  1.00  0.00     0.004 C 
BRANCH  22  23
HETATM   23  C9  UNL     1      27.224  -1.015  52.783  1.00  0.00     0.019 C 
HETATM   24  C10 UNL     1      28.154  -0.632  53.588  1.00  0.00     0.008 C 
HETATM   25  C11 UNL     1      29.559  -0.923  53.248  1.00  0.00     0.062 C 
HETATM   26 CL1  UNL     1      27.717   0.228  55.065  1.00  0.00    -0.089 Cl
ENDBRANCH  22  23
ENDBRANCH   6  21
TORSDOF 6
ENDMDL
MODEL 2
REMARK VINA RESULT:      -7.5      2.515      4.093
REMARK  6 active torsions:
REMARK  status: ('A' for Active; 'I' for Inactive)
REMARK    1  A    between atoms: C2_2  and  C3_3 
REMARK    2  A    between atoms: C3_3  and  C4_4 
REMARK    3  A    between atoms: C3_3  and  N4_16 
REMARK    4  A    between atoms: C6_9  and  C7_10 
REMARK    5  A    between atoms: C8_11  and  C9_12 
REMARK    6  A    between atoms: C14_19  and  N5_20 
ROOT
HETATM    1  C4  UNL     1      25.546   2.690  51.505  1.00  0.00     0.101 A 
HETATM    2  N1  UNL     1      26.937   2.937  51.397  1.00  0.00    -0.273 N 
HETATM    3  N2  UNL     1      27.851   2.497  52.340  1.00  0.00    -0.168 NA
HETATM    4  C5  UNL     1      27.489   1.833  53.378  1.00  0.00     0.255 A 
HETATM    5  N3  UNL     1      26.106   1.539  53.566  1.00  0.00    -0.238 NA
HETATM    6  C6  UNL     1      25.229   1.938  52.700  1.00  0.00     0.088 A 
HETATM    7  H6  UNL     1      27.363   3.460  50.616  1.00  0.00     0.189 HD
ENDROOT
BRANCH   1   8
HETATM    8  C3  UNL     1      24.663   3.067  50.639  1.00  0.00     0.038 C 
BRANCH   8   9
HETATM    9  C2  UNL     1      23.924   2.683  49.431  1.00  0.00     0.055 C 
HETATM   10  C1  UNL     1      22.525   2.157  49.676  1.00  0.00     0.011 C 
ENDBRANCH   8   9
BRANCH   8  11
HETATM   11  N4  UNL     1      24.162   4.404  50.888  1.00  0.00    -0.378 N 
HETATM   12  C12 UNL     1      23.492   5.005  52.018  1.00  0.00     0.125 C 
HETATM   13  C13 UNL     1      22.085   5.438  51.807  1.00  0.00     0.044 C 
HETATM   14  C14 UNL     1      22.064   6.421  50.670  1.00  0.00     0.077 C 
HETATM   15  C15 UNL     1      23.445   6.651  50.198  1.00  0.00     0.049 C 
HETATM   16  C16 UNL     1      24.293   5.464  49.929  1.00  0.00     0.082 C 
HETATM   17  C17 UNL     1      25.726   6.025  49.850  1.00  0.00     0.032 C 
BRANCH  14  18
HETATM   18  N5  UNL     1      21.485   7.695  51.072  1.00  0.00    -0.426 N 
HETATM   19  H19 UNL     1      22.168   8.375  51.417  1.00  0.00     0.150 HD
HETATM   20  H20 UNL     1      20.736   8.032  50.460  1.00  0.00     0.150 HD
ENDBRANCH  14  18
ENDBRANCH   8  11
ENDBRANCH   1   8
BRANCH   6  21
HETATM   21  C7  UNL     1      23.886   1.529  53.025  1.00  0.00     0.034 C 
HETATM   22  C8  UNL     1      23.517   0.268  52.823  1.00  0.00     0.004 C 
BRANCH  22  23
HETATM   23  C9  UNL     1      22.246  -0.399  53.059  1.00  0.00     0.019 C 
HETATM   24  C10 UNL     1      22.019  -1.090  54.122  1.00  0.00     0.008 C 
HETATM   25  C11 UNL     1      20.704  -1.737  54.289  1.00  0.00     0.062 C 
HETATM   26 CL1  UNL     1      23.287  -1.242  55.340  1.00  0.00    -0.089 Cl
ENDBRANCH  22  23
ENDBRANCH   6  21
TORSDOF 6
ENDMDL
MODEL 3
REMARK VINA RESULT:      -7.4      1.704      3.229
REMARK  6 active torsions:
REMARK  status: ('A' for Active; 'I' for Inactive)
REMARK    1  A    between atoms: C2_2  and  C3_3 
REMARK    2  A    between atoms: C3_3  and  C4_4 
REMARK    3  A    between atoms: C3_3  and  N4_16 
REMARK    4  A    between atoms: C6_9  and  C7_10 
REMARK    5  A    between atoms: C8_11  and  C9_12 
REMARK    6  A    between atoms: C14_19  and  N5_20 
ROOT
HETATM    1  C4  UNL     1      22.755   0.886  53.132  1.00  0.00     0.101 A 
HETATM    2  N1  UNL     1      21.556   0.647  53.848  1.00  0.00    -0.273 N 
HETATM    3  N2  UNL     1      21.427  -0.377  54.773  1.00  0.00    -0.168 NA
HETATM    4  C5  UNL     1      22.396  -1.178  55.037  1.00  0.00     0.255 A 
HETATM    5  N3  UNL     1      23.641  -1.009  54.362  1.00  0.00    -0.238 NA
HETATM    6  C6  UNL     1      23.789  -0.061  53.492  1.00  0.00     0.088 A 
HETATM    7  H6  UNL     1      20.701   1.212  53.731  1.00  0.00     0.189 HD
ENDROOT
BRANCH   1   8
HETATM    8  C3  UNL     1      22.921   1.840  52.275  1.00  0.00     0.038 C 
BRANCH   8   9
HETATM    9  C2  UNL     1      23.779   2.962  51.879  1.00  0.00     0.055 C 
HETATM   10  C1  UNL     1      24.609   2.725  50.635  1.00  0.00     0.011 C 
ENDBRANCH   8   9
BRANCH   8  11
HETATM   11  N4  UNL     1      21.869   1.896  51.280  1.00  0.00    -0.378 N 
HETATM   12  C12 UNL     1      21.346   0.921  50.351  1.00  0.00     0.125 C 
HETATM   13  C13 UNL     1      21.559   1.196  48.904  1.00  0.00     0.044 C 
HETATM   14  C14 UNL     1      20.940   2.528  48.587  1.00  0.00     0.077 C 
HETATM   15  C15 UNL     1      20.297   3.071  49.801  1.00  0.00     0.049 C 
HETATM   16  C16 UNL     1      21.083   3.076  51.059  1.00  0.00     0.082 C 
HETATM   17  C17 UNL     1      20.037   3.314  52.166  1.00  0.00     0.032 C 
BRANCH  14  18
HETATM   18  N5  UNL     1      19.941   2.419  47.533  1.00  0.00    -0.426 N 
HETATM   19  H19 UNL     1      20.064   3.091  46.769  1.00  0.00     0.150 HD
HETATM   20  H20 UNL     1      19.682   1.458  47.292  1.00  0.00     0.150 HD
ENDBRANCH  14  18
ENDBRANCH   8  11
ENDBRANCH   1   8
BRANCH   6  21
HETATM   21  C7  UNL     1      25.115  -0.011  52.929  1.00  0.00     0.034 C 
HETATM   22  C8  UNL     1      26.035  -0.877  53.340  1.00  0.00     0.004 C 
BRANCH  22  23
HETATM   23  C9  UNL     1      27.425  -1.044  52.945  1.00  0.00     0.019 C 
HETATM   24  C10 UNL     1      28.402  -0.613  53.664  1.00  0.00     0.008 C 
HETATM   25  C11 UNL     1      29.785  -0.820  53.193  1.00  0.00     0.062 C 
HETATM   26 CL1  UNL     1      28.056   0.212  55.185  1.00  0.00    -0.089 Cl
ENDBRANCH  22  23
ENDBRANCH   6  21
TORSDOF 6
ENDMDL
MODEL 4
REMARK VINA RESULT:      -7.3      2.548      4.342
REMARK  6 active torsions:
REMARK  status: ('A' for Active; 'I' for Inactive)
REMARK    1  A    between atoms: C2_2  and  C3_3 
REMARK    2  A    between atoms: C3_3  and  C4_4 
REMARK    3  A    between atoms: C3_3  and  N4_16 
REMARK    4  A    between atoms: C6_9  and  C7_10 
REMARK    5  A    between atoms: C8_11  and  C9_12 
REMARK    6  A    between atoms: C14_19  and  N5_20 
ROOT
HETATM    1  C4  UNL     1      25.369   2.784  51.219  1.00  0.00     0.101 A 
HETATM    2  N1  UNL     1      26.768   2.999  51.146  1.00  0.00    -0.273 N 
HETATM    3  N2  UNL     1      27.645   2.567  52.128  1.00  0.00    -0.168 NA
HETATM    4  C5  UNL     1      27.238   1.940  53.172  1.00  0.00     0.255 A 
HETATM    5  N3  UNL     1      25.844   1.679  53.327  1.00  0.00    -0.238 NA
HETATM    6  C6  UNL     1      25.002   2.072  52.425  1.00  0.00     0.088 A 
HETATM    7  H6  UNL     1      27.227   3.491  50.364  1.00  0.00     0.189 HD
ENDROOT
BRANCH   1   8
HETATM    8  C3  UNL     1      24.521   3.154  50.317  1.00  0.00     0.038 C 
BRANCH   8   9
HETATM    9  C2  UNL     1      23.612   2.694  49.261  1.00  0.00     0.055 C 
HETATM   10  C1  UNL     1      22.199   2.396  49.717  1.00  0.00     0.011 C 
ENDBRANCH   8   9
BRANCH   8  11
HETATM   11  N4  UNL     1      24.354   4.593  50.254  1.00  0.00    -0.378 N 
HETATM   12  C12 UNL     1      24.448   5.544  49.172  1.00  0.00     0.125 C 
HETATM   13  C13 UNL     1      25.558   6.533  49.246  1.00  0.00     0.044 C 
HETATM   14  C14 UNL     1      25.417   7.296  50.533  1.00  0.00     0.077 C 
HETATM   15  C15 UNL     1      24.206   6.837  51.244  1.00  0.00     0.049 C 
HETATM   16  C16 UNL     1      24.008   5.376  51.406  1.00  0.00     0.082 C 
HETATM   17  C17 UNL     1      22.527   5.230  51.807  1.00  0.00     0.032 C 
BRANCH  14  18
HETATM   18  N5  UNL     1      25.311   8.729  50.298  1.00  0.00    -0.426 N 
HETATM   19  H19 UNL     1      26.003   9.288  50.806  1.00  0.00     0.150 HD
HETATM   20  H20 UNL     1      25.102   8.986  49.329  1.00  0.00     0.150 HD
ENDBRANCH  14  18
ENDBRANCH   8  11
ENDBRANCH   1   8
BRANCH   6  21
HETATM   21  C7  UNL     1      23.641   1.699  52.720  1.00  0.00     0.034 C 
HETATM   22  C8  UNL     1      23.288   0.419  52.681  1.00  0.00     0.004 C 
BRANCH  22  23
HETATM   23  C9  UNL     1      22.006  -0.220  52.932  1.00  0.00     0.019 C 
HETATM   24  C10 UNL     1      21.790  -0.947  53.973  1.00  0.00     0.008 C 
HETATM   25  C11 UNL     1      20.463  -1.562  54.156  1.00  0.00     0.062 C 
HETATM   26 CL1  UNL     1      23.089  -1.182  55.144  1.00  0.00    -0.089 Cl
ENDBRANCH  22  23
ENDBRANCH   6  21
TORSDOF 6
ENDMDL
MODEL 5
REMARK VINA RESULT:      -7.1      8.122     10.763
REMARK  6 active torsions:
REMARK  status: ('A' for Active; 'I' for Inactive)
REMARK    1  A    between atoms: C2_2  and  C3_3 
REMARK    2  A    between atoms: C3_3  and  C4_4 
REMARK    3  A    between atoms: C3_3  and  N4_16 
REMARK    4  A    between atoms: C6_9  and  C7_10 
REMARK    5  A    between atoms: C8_11  and  C9_12 
REMARK    6  A    between atoms: C14_19  and  N5_20 
ROOT
HETATM    1  C4  UNL     1      32.896   7.229  47.323  1.00  0.00     0.101 A 
HETATM    2  N1  UNL     1      33.577   8.206  48.090  1.00  0.00    -0.273 N 
HETATM    3  N2  UNL     1      34.836   7.992  48.628  1.00  0.00    -0.168 NA
HETATM    4  C5  UNL     1      35.466   6.886  48.461  1.00  0.00     0.255 A 
HETATM    5  N3  UNL     1      34.854   5.846  47.700  1.00  0.00    -0.238 NA
HETATM    6  C6  UNL     1      33.678   6.018  47.186  1.00  0.00     0.088 A 
HETATM    7  H6  UNL     1      33.186   9.136  48.303  1.00  0.00     0.189 HD
ENDROOT
BRANCH   1   8
HETATM    8  C3  UNL     1      31.730   7.395  46.789  1.00  0.00     0.038 C 
BRANCH   8   9
HETATM    9  C2  UNL     1      31.010   7.712  45.550  1.00  0.00     0.055 C 
HETATM   10  C1  UNL     1      31.891   8.027  44.360  1.00  0.00     0.011 C 
ENDBRANCH   8   9
BRANCH   8  11
HETATM   11  N4  UNL     1      30.646   7.230  47.736  1.00  0.00    -0.378 N 
HETATM   12  C12 UNL     1      30.249   6.135  48.591  1.00  0.00     0.125 C 
HETATM   13  C13 UNL     1      28.945   5.488  48.285  1.00  0.00     0.044 C 
HETATM   14  C14 UNL     1      27.876   6.543  48.344  1.00  0.00     0.077 C 
HETATM   15  C15 UNL     1      28.482   7.833  48.734  1.00  0.00     0.049 C 
HETATM   16  C16 UNL     1      29.699   8.274  48.009  1.00  0.00     0.082 C 
HETATM   17  C17 UNL     1      30.284   9.397  48.887  1.00  0.00     0.032 C 
BRANCH  14  18
HETATM   18  N5  UNL     1      26.837   6.201  49.306  1.00  0.00    -0.426 N 
HETATM   19  H19 UNL     1      25.885   6.259  48.932  1.00  0.00     0.150 HD
HETATM   20  H20 UNL     1      27.068   5.411  49.916  1.00  0.00     0.150 HD
ENDBRANCH  14  18
ENDBRANCH   8  11
ENDBRANCH   1   8
BRANCH   6  21
HETATM   21  C7  UNL     1      33.222   4.884  46.422  1.00  0.00     0.034 C 
HETATM   22  C8  UNL     1      32.724   3.825  47.052  1.00  0.00     0.004 C 
BRANCH  22  23
HETATM   23  C9  UNL     1      32.202   2.571  46.533  1.00  0.00     0.019 C 
HETATM   24  C10 UNL     1      32.402   1.445  47.124  1.00  0.00     0.008 C 
HETATM   25  C11 UNL     1      31.840   0.215  46.534  1.00  0.00     0.062 C 
HETATM   26 CL1  UNL     1      33.340   1.410  48.618  1.00  0.00    -0.089 Cl
ENDBRANCH  22  23
ENDBRANCH   6  21
TORSDOF 6
ENDMDL
MODEL 6
REMARK VINA RESULT:      -7.1      2.346      4.987
REMARK  6 active torsions:
REMARK  status: ('A' for Active; 'I' for Inactive)
REMARK    1  A    between atoms: C2_2  and  C3_3 
REMARK    2  A    between atoms: C3_3  and  C4_4 
REMARK    3  A    between atoms: C3_3  and  N4_16 
REMARK    4  A    between atoms: C6_9  and  C7_10 
REMARK    5  A    between atoms: C8_11  and  C9_12 
REMARK    6  A    between atoms: C14_19  and  N5_20 
ROOT
HETATM    1  C4  UNL     1      21.948   2.642  51.476  1.00  0.00     0.101 A 
HETATM    2  N1  UNL     1      21.391   3.936  51.627  1.00  0.00    -0.273 N 
HETATM    3  N2  UNL     1      22.099   4.999  52.165  1.00  0.00    -0.168 NA
HETATM    4  C5  UNL     1      23.314   4.872  52.563  1.00  0.00     0.255 A 
HETATM    5  N3  UNL     1      23.954   3.602  52.447  1.00  0.00    -0.238 NA
HETATM    6  C6  UNL     1      23.315   2.592  51.948  1.00  0.00     0.088 A 
HETATM    7  H6  UNL     1      20.426   4.176  51.352  1.00  0.00     0.189 HD
ENDROOT
BRANCH   1   8
HETATM    8  C3  UNL     1      21.327   1.631  50.963  1.00  0.00     0.038 C 
BRANCH   8   9
HETATM    9  C2  UNL     1      21.248   0.730  49.807  1.00  0.00     0.055 C 
HETATM   10  C1  UNL     1      21.659   1.346  48.486  1.00  0.00     0.011 C 
ENDBRANCH   8   9
BRANCH   8  11
HETATM   11  N4  UNL     1      20.256   1.138  51.806  1.00  0.00    -0.378 N 
HETATM   12  C12 UNL     1      20.186   0.808  53.210  1.00  0.00     0.125 C 
HETATM   13  C13 UNL     1      19.962  -0.623  53.550  1.00  0.00     0.044 C 
HETATM   14  C14 UNL     1      18.680  -1.061  52.898  1.00  0.00     0.077 C 
HETATM   15  C15 UNL     1      18.069   0.087  52.198  1.00  0.00     0.049 C 
HETATM   16  C16 UNL     1      18.934   0.893  51.302  1.00  0.00     0.082 C 
HETATM   17  C17 UNL     1      18.137   2.189  51.060  1.00  0.00     0.032 C 
BRANCH  14  18
HETATM   18  N5  UNL     1      17.730  -1.577  53.875  1.00  0.00    -0.426 N 
HETATM   19  H19 UNL     1      16.982  -2.146  53.471  1.00  0.00     0.150 HD
HETATM   20  H20 UNL     1      18.154  -1.892  54.753  1.00  0.00     0.150 HD
ENDBRANCH  14  18
ENDBRANCH   8  11
ENDBRANCH   1   8
BRANCH   6  21
HETATM   21  C7  UNL     1      24.117   1.396  51.874  1.00  0.00     0.034 C 
HETATM   22  C8  UNL     1      25.109   1.216  52.740  1.00  0.00     0.004 C 
BRANCH  22  23
HETATM   23  C9  UNL     1      26.055   0.121  52.884  1.00  0.00     0.019 C 
HETATM   24  C10 UNL     1      27.320   0.318  53.029  1.00  0.00     0.008 C 
HETATM   25  C11 UNL     1      28.215  -0.846  53.169  1.00  0.00     0.062 C 
HETATM   26 CL1  UNL     1      27.938   1.970  53.054  1.00  0.00    -0.089 Cl
ENDBRANCH  22  23
ENDBRANCH   6  21
TORSDOF 6
ENDMDL
MODEL 7
REMARK VINA RESULT:      -7.1      2.753      6.471
REMARK  6 active torsions:
REMARK  status: ('A' for Active; 'I' for Inactive)
REMARK    1  A    between atoms: C2_2  and  C3_3 
REMARK    2  A    between atoms: C3_3  and  C4_4 
REMARK    3  A    between atoms: C3_3  and  N4_16 
REMARK    4  A    between atoms: C6_9  and  C7_10 
REMARK    5  A    between atoms: C8_11  and  C9_12 
REMARK    6  A    between atoms: C14_19  and  N5_20 
ROOT
HETATM    1  C4  UNL     1      24.946   2.084  51.891  1.00  0.00     0.101 A 
HETATM    2  N1  UNL     1      25.804   3.164  51.567  1.00  0.00    -0.273 N 
HETATM    3  N2  UNL     1      25.568   4.015  50.500  1.00  0.00    -0.168 NA
HETATM    4  C5  UNL     1      24.548   3.874  49.733  1.00  0.00     0.255 A 
HETATM    5  N3  UNL     1      23.630   2.812  49.987  1.00  0.00    -0.238 NA
HETATM    6  C6  UNL     1      23.826   2.001  50.978  1.00  0.00     0.088 A 
HETATM    7  H6  UNL     1      26.660   3.389  52.098  1.00  0.00     0.189 HD
ENDROOT
BRANCH   1   8
HETATM    8  C3  UNL     1      25.120   1.280  52.888  1.00  0.00     0.038 C 
BRANCH   8   9
HETATM    9  C2  UNL     1      24.574   0.818  54.169  1.00  0.00     0.055 C 
HETATM   10  C1  UNL     1      23.984  -0.577  54.148  1.00  0.00     0.011 C 
ENDBRANCH   8   9
BRANCH   8  11
HETATM   11  N4  UNL     1      26.330   0.490  52.772  1.00  0.00    -0.378 N 
HETATM   12  C12 UNL     1      26.775  -0.484  51.802  1.00  0.00     0.125 C 
HETATM   13  C13 UNL     1      26.925  -1.884  52.283  1.00  0.00     0.044 C 
HETATM   14  C14 UNL     1      27.897  -1.882  53.429  1.00  0.00     0.077 C 
HETATM   15  C15 UNL     1      28.400  -0.509  53.642  1.00  0.00     0.049 C 
HETATM   16  C16 UNL     1      27.406   0.589  53.717  1.00  0.00     0.082 C 
HETATM   17  C17 UNL     1      28.238   1.874  53.542  1.00  0.00     0.032 C 
BRANCH  14  18
HETATM   18  N5  UNL     1      29.028  -2.764  53.175  1.00  0.00    -0.426 N 
HETATM   19  H19 UNL     1      29.600  -2.490  52.371  1.00  0.00     0.150 HD
HETATM   20  H20 UNL     1      29.509  -3.090  54.019  1.00  0.00     0.150 HD
ENDBRANCH  14  18
ENDBRANCH   8  11
ENDBRANCH   1   8
BRANCH   6  21
HETATM   21  C7  UNL     1      22.789   1.009  51.112  1.00  0.00     0.034 C 
HETATM   22  C8  UNL     1      21.517   1.392  51.158  1.00  0.00     0.004 C 
BRANCH  22  23
HETATM   23  C9  UNL     1      20.296   0.612  51.287  1.00  0.00     0.019 C 
HETATM   24  C10 UNL     1      19.829   0.247  52.430  1.00  0.00     0.008 C 
HETATM   25  C11 UNL     1      18.585  -0.543  52.477  1.00  0.00     0.062 C 
HETATM   26 CL1  UNL     1      20.693   0.703  53.900  1.00  0.00    -0.089 Cl
ENDBRANCH  22  23
ENDBRANCH   6  21
TORSDOF 6
ENDMDL
MODEL 8
REMARK VINA RESULT:      -7.1      1.915      2.664
REMARK  6 active torsions:
REMARK  status: ('A' for Active; 'I' for Inactive)
REMARK    1  A    between atoms: C2_2  and  C3_3 
REMARK    2  A    between atoms: C3_3  and  C4_4 
REMARK    3  A    between atoms: C3_3  and  N4_16 
REMARK    4  A    between atoms: C6_9  and  C7_10 
REMARK    5  A    between atoms: C8_11  and  C9_12 
REMARK    6  A    between atoms: C14_19  and  N5_20 
ROOT
HETATM    1  C4  UNL     1      21.907   3.320  50.703  1.00  0.00     0.101 A 
HETATM    2  N1  UNL     1      20.710   3.968  51.096  1.00  0.00    -0.273 N 
HETATM    3  N2  UNL     1      19.947   3.544  52.172  1.00  0.00    -0.168 NA
HETATM    4  C5  UNL     1      20.283   2.528  52.883  1.00  0.00     0.255 A 
HETATM    5  N3  UNL     1      21.476   1.817  52.558  1.00  0.00    -0.238 NA
HETATM    6  C6  UNL     1      22.208   2.191  51.557  1.00  0.00     0.088 A 
HETATM    7  H6  UNL     1      20.324   4.793  50.612  1.00  0.00     0.189 HD
ENDROOT
BRANCH   1   8
HETATM    8  C3  UNL     1      22.656   3.695  49.718  1.00  0.00     0.038 C 
BRANCH   8   9
HETATM    9  C2  UNL     1      22.854   3.628  48.265  1.00  0.00     0.055 C 
HETATM   10  C1  UNL     1      22.507   2.296  47.633  1.00  0.00     0.011 C 
ENDBRANCH   8   9
BRANCH   8  11
HETATM   11  N4  UNL     1      23.783   4.502  50.140  1.00  0.00    -0.378 N 
HETATM   12  C12 UNL     1      23.979   5.410  51.246  1.00  0.00     0.125 C 
HETATM   13  C13 UNL     1      24.171   6.846  50.906  1.00  0.00     0.044 C 
HETATM   14  C14 UNL     1      25.360   6.953  49.992  1.00  0.00     0.077 C 
HETATM   15  C15 UNL     1      25.948   5.613  49.795  1.00  0.00     0.049 C 
HETATM   16  C16 UNL     1      25.035   4.500  49.437  1.00  0.00     0.082 C 
HETATM   17  C17 UNL     1      25.862   3.226  49.693  1.00  0.00     0.032 C 
BRANCH  14  18
HETATM   18  N5  UNL     1      26.378   7.840  50.538  1.00  0.00    -0.426 N 
HETATM   19  H19 UNL     1      26.251   8.063  51.529  1.00  0.00     0.150 HD
HETATM   20  H20 UNL     1      27.328   7.650  50.205  1.00  0.00     0.150 HD
ENDBRANCH  14  18
ENDBRANCH   8  11
ENDBRANCH   1   8
BRANCH   6  21
HETATM   21  C7  UNL     1      23.391   1.385  51.388  1.00  0.00     0.034 C 
HETATM   22  C8  UNL     1      24.078   0.996  52.457  1.00  0.00     0.004 C 
BRANCH  22  23
HETATM   23  C9  UNL     1      25.285   0.192  52.568  1.00  0.00     0.019 C 
HETATM   24  C10 UNL     1      26.358   0.634  53.127  1.00  0.00     0.008 C 
HETATM   25  C11 UNL     1      27.542  -0.243  53.199  1.00  0.00     0.062 C 
HETATM   26 CL1  UNL     1      26.376   2.271  53.784  1.00  0.00    -0.089 Cl
ENDBRANCH  22  23
ENDBRANCH   6  21
TORSDOF 6
ENDMDL
MODEL 9
REMARK VINA RESULT:      -7.0      3.061      5.786
REMARK  6 active torsions:
REMARK  status: ('A' for Active; 'I' for Inactive)
REMARK    1  A    between atoms: C2_2  and  C3_3 
REMARK    2  A    between atoms: C3_3  and  C4_4 
REMARK    3  A    between atoms: C3_3  and  N4_16 
REMARK    4  A    between atoms: C6_9  and  C7_10 
REMARK    5  A    between atoms: C8_11  and  C9_12 
REMARK    6  A    between atoms: C14_19  and  N5_20 
ROOT
HETATM    1  C4  UNL     1      22.672   1.380  52.731  1.00  0.00     0.101 A 
HETATM    2  N1  UNL     1      21.964   0.671  53.732  1.00  0.00    -0.273 N 
HETATM    3  N2  UNL     1      20.852  -0.107  53.456  1.00  0.00    -0.168 NA
HETATM    4  C5  UNL     1      20.393  -0.234  52.263  1.00  0.00     0.255 A 
HETATM    5  N3  UNL     1      21.045   0.446  51.192  1.00  0.00    -0.238 NA
HETATM    6  C6  UNL     1      22.087   1.180  51.422  1.00  0.00     0.088 A 
HETATM    7  H6  UNL     1      22.224   0.686  54.731  1.00  0.00     0.189 HD
ENDROOT
BRANCH   1   8
HETATM    8  C3  UNL     1      23.724   2.101  52.945  1.00  0.00     0.038 C 
BRANCH   8   9
HETATM    9  C2  UNL     1      24.225   3.466  53.139  1.00  0.00     0.055 C 
HETATM   10  C1  UNL     1      23.321   4.561  52.614  1.00  0.00     0.011 C 
ENDBRANCH   8   9
BRANCH   8  11
HETATM   11  N4  UNL     1      24.940   1.317  53.027  1.00  0.00    -0.378 N 
HETATM   12  C12 UNL     1      25.204  -0.042  53.439  1.00  0.00     0.125 C 
HETATM   13  C13 UNL     1      26.018  -0.220  54.671  1.00  0.00     0.044 C 
HETATM   14  C14 UNL     1      27.335   0.473  54.464  1.00  0.00     0.077 C 
HETATM   15  C15 UNL     1      27.381   1.041  53.101  1.00  0.00     0.049 C 
HETATM   16  C16 UNL     1      26.219   1.843  52.644  1.00  0.00     0.082 C 
HETATM   17  C17 UNL     1      26.394   1.937  51.116  1.00  0.00     0.032 C 
BRANCH  14  18
HETATM   18  N5  UNL     1      28.456  -0.441  54.632  1.00  0.00    -0.426 N 
HETATM   19  H19 UNL     1      29.316   0.007  54.963  1.00  0.00     0.150 HD
HETATM   20  H20 UNL     1      28.204  -1.352  55.027  1.00  0.00     0.150 HD
ENDBRANCH  14  18
ENDBRANCH   8  11
ENDBRANCH   1   8
BRANCH   6  21
HETATM   21  C7  UNL     1      22.642   1.766  50.228  1.00  0.00     0.034 C 
HETATM   22  C8  UNL     1      21.965   1.695  49.086  1.00  0.00     0.004 C 
BRANCH  22  23
HETATM   23  C9  UNL     1      22.288   2.193  47.758  1.00  0.00     0.019 C 
HETATM   24  C10 UNL     1      21.626   3.147  47.201  1.00  0.00     0.008 C 
HETATM   25  C11 UNL     1      22.016   3.596  45.851  1.00  0.00     0.062 C 
HETATM   26 CL1  UNL     1      20.278   3.883  48.069  1.00  0.00    -0.089 Cl
ENDBRANCH  22  23
ENDBRANCH   6  21
TORSDOF 6
ENDMDL
