MODEL 1
REMARK VINA RESULT:      -8.6      0.000      0.000
REMARK  6 active torsions:
REMARK  status: ('A' for Active; 'I' for Inactive)
REMARK    1  A    between atoms: C2_2  and  C3_3 
REMARK    2  A    between atoms: C4_4  and  C5_5 
REMARK    3  A    between atoms: C6_6  and  C7_7 
REMARK       I    between atoms: C7_7  and  N1_9 
REMARK    4  A    between atoms: N1_9  and  C8_10 
REMARK    5  A    between atoms: C12_14  and  N2_15 
REMARK    6  A    between atoms: N2_15  and  C13_16 
ROOT
HETATM    1  C8  UNL     1      27.197   1.581  53.992  1.00  0.00     0.039 A 
HETATM    2  C9  UNL     1      28.381   1.895  53.443  1.00  0.00     0.027 A 
HETATM    3  C10 UNL     1      29.363   0.848  53.695  1.00  0.00     0.000 A 
HETATM    4  C11 UNL     1      28.748  -0.074  54.390  1.00  0.00     0.005 A 
HETATM    5  C12 UNL     1      27.315   0.266  54.664  1.00  0.00     0.172 A 
ENDROOT
BRANCH   5   6
HETATM    6  N2  UNL     1      26.502  -0.767  54.020  1.00  0.00    -0.209 N 
HETATM    7  H15 UNL     1      26.931  -1.407  53.321  1.00  0.00     0.179 HD
BRANCH   6   8
HETATM    8  C13 UNL     1      25.128  -0.889  54.355  1.00  0.00     0.723 A 
HETATM    9  N3  UNL     1      24.703  -1.397  55.523  1.00  0.00    -0.075 NA
HETATM   10  C14 UNL     1      23.377  -1.496  55.821  1.00  0.00     0.139 A 
HETATM   11  C15 UNL     1      22.403  -1.068  54.910  1.00  0.00     0.053 A 
HETATM   12  C16 UNL     1      22.883  -0.555  53.726  1.00  0.00     0.094 A 
HETATM   13  C17 UNL     1      21.885  -0.103  52.785  1.00  0.00     0.034 A 
HETATM   14  N4  UNL     1      24.192  -0.475  53.470  1.00  0.00    -0.062 NA
HETATM   15  C18 UNL     1      22.119   0.424  51.597  1.00  0.00     0.021 A 
HETATM   16  S1  UNL     1      20.141  -0.119  52.955  1.00  0.00    -0.100 SA
HETATM   17  C19 UNL     1      21.219   0.864  50.691  1.00  0.00     0.008 A 
HETATM   18  C20 UNL     1      19.836   0.668  51.233  1.00  0.00     0.050 A 
ENDBRANCH   6   8
ENDBRANCH   5   6
BRANCH   1  19
HETATM   19  N1  UNL     1      26.172   2.576  53.782  1.00  0.00    -0.325 N 
HETATM   20  C7  UNL     1      25.515   2.476  52.499  1.00  0.00     0.245 C 
HETATM   21  O1  UNL     1      26.150   1.472  52.022  1.00  0.00    -0.268 OA
HETATM   22  H10 UNL     1      26.009   3.267  54.574  1.00  0.00     0.169 HD
BRANCH  20  23
HETATM   23  C6  UNL     1      24.479   3.447  52.231  1.00  0.00     0.074 C 
HETATM   24  C5  UNL     1      23.647   4.074  51.419  1.00  0.00     0.005 C 
BRANCH  24  25
HETATM   25  C4  UNL     1      23.496   3.859  50.002  1.00  0.00    -0.004 C 
HETATM   26  C3  UNL     1      24.402   4.282  49.161  1.00  0.00    -0.027 C 
BRANCH  26  27
HETATM   27  C2  UNL     1      25.684   5.007  49.348  1.00  0.00     0.022 C 
HETATM   28  C1  UNL     1      26.834   3.991  49.304  1.00  0.00     0.009 C 
ENDBRANCH  26  27
ENDBRANCH  24  25
ENDBRANCH  20  23
ENDBRANCH   1  19
TORSDOF 6
ENDMDL
MODEL 2
REMARK VINA RESULT:      -8.4      1.178      1.615
REMARK  6 active torsions:
REMARK  status: ('A' for Active; 'I' for Inactive)
REMARK    1  A    between atoms: C2_2  and  C3_3 
REMARK    2  A    between atoms: C4_4  and  C5_5 
REMARK    3  A    between atoms: C6_6  and  C7_7 
REMARK       I    between atoms: C7_7  and  N1_9 
REMARK    4  A    between atoms: N1_9  and  C8_10 
REMARK    5  A    between atoms: C12_14  and  N2_15 
REMARK    6  A    between atoms: N2_15  and  C13_16 
ROOT
HETATM    1  C8  UNL     1      27.383   1.584  53.569  1.00  0.00     0.039 A 
HETATM    2  C9  UNL     1      28.724   1.604  53.497  1.00  0.00     0.027 A 
HETATM    3  C10 UNL     1      29.306   0.639  54.422  1.00  0.00     0.000 A 
HETATM    4  C11 UNL     1      28.302   0.059  55.029  1.00  0.00     0.005 A 
HETATM    5  C12 UNL     1      26.972   0.575  54.573  1.00  0.00     0.172 A 
ENDROOT
BRANCH   5   6
HETATM    6  N2  UNL     1      26.260  -0.553  53.973  1.00  0.00    -0.209 N 
HETATM    7  H15 UNL     1      26.787  -1.284  53.452  1.00  0.00     0.179 HD
BRANCH   6   8
HETATM    8  C13 UNL     1      24.850  -0.645  54.105  1.00  0.00     0.723 A 
HETATM    9  N3  UNL     1      24.251  -1.220  55.161  1.00  0.00    -0.075 NA
HETATM   10  C14 UNL     1      22.894  -1.288  55.264  1.00  0.00     0.139 A 
HETATM   11  C15 UNL     1      22.070  -0.755  54.266  1.00  0.00     0.053 A 
HETATM   12  C16 UNL     1      22.726  -0.176  53.203  1.00  0.00     0.094 A 
HETATM   13  C17 UNL     1      21.883   0.385  52.173  1.00  0.00     0.034 A 
HETATM   14  N4  UNL     1      24.059  -0.129  53.136  1.00  0.00    -0.062 NA
HETATM   15  C18 UNL     1      22.296   0.989  51.073  1.00  0.00     0.021 A 
HETATM   16  S1  UNL     1      20.133   0.427  52.100  1.00  0.00    -0.100 SA
HETATM   17  C19 UNL     1      21.545   1.530  50.090  1.00  0.00     0.008 A 
HETATM   18  C20 UNL     1      20.095   1.351  50.420  1.00  0.00     0.050 A 
ENDBRANCH   6   8
ENDBRANCH   5   6
BRANCH   1  19
HETATM   19  N1  UNL     1      26.736   2.518  52.678  1.00  0.00    -0.325 N 
HETATM   20  C7  UNL     1      26.461   1.980  51.366  1.00  0.00     0.245 C 
HETATM   21  O1  UNL     1      26.935   0.802  51.526  1.00  0.00    -0.268 OA
HETATM   22  H10 UNL     1      26.533   3.487  53.068  1.00  0.00     0.169 HD
BRANCH  20  23
HETATM   23  C6  UNL     1      25.813   2.870  50.430  1.00  0.00     0.074 C 
HETATM   24  C5  UNL     1      25.840   3.817  49.510  1.00  0.00     0.005 C 
BRANCH  24  25
HETATM   25  C4  UNL     1      27.006   4.482  48.985  1.00  0.00    -0.004 C 
HETATM   26  C3  UNL     1      26.964   5.746  48.658  1.00  0.00    -0.027 C 
BRANCH  26  27
HETATM   27  C2  UNL     1      25.881   6.761  48.708  1.00  0.00     0.022 C 
HETATM   28  C1  UNL     1      25.966   7.504  50.048  1.00  0.00     0.009 C 
ENDBRANCH  26  27
ENDBRANCH  24  25
ENDBRANCH  20  23
ENDBRANCH   1  19
TORSDOF 6
ENDMDL
MODEL 3
REMARK VINA RESULT:      -7.9      2.322      5.613
REMARK  6 active torsions:
REMARK  status: ('A' for Active; 'I' for Inactive)
REMARK    1  A    between atoms: C2_2  and  C3_3 
REMARK    2  A    between atoms: C4_4  and  C5_5 
REMARK    3  A    between atoms: C6_6  and  C7_7 
REMARK       I    between atoms: C7_7  and  N1_9 
REMARK    4  A    between atoms: N1_9  and  C8_10 
REMARK    5  A    between atoms: C12_14  and  N2_15 
REMARK    6  A    between atoms: N2_15  and  C13_16 
ROOT
HETATM    1  C8  UNL     1      25.833   3.525  49.579  1.00  0.00     0.039 A 
HETATM    2  C9  UNL     1      26.979   4.111  49.196  1.00  0.00     0.027 A 
HETATM    3  C10 UNL     1      26.749   5.500  48.818  1.00  0.00     0.000 A 
HETATM    4  C11 UNL     1      25.469   5.719  48.983  1.00  0.00     0.005 A 
HETATM    5  C12 UNL     1      24.734   4.513  49.480  1.00  0.00     0.172 A 
ENDROOT
BRANCH   5   6
HETATM    6  N2  UNL     1      24.176   4.862  50.788  1.00  0.00    -0.209 N 
HETATM    7  H15 UNL     1      24.672   5.542  51.400  1.00  0.00     0.179 HD
BRANCH   6   8
HETATM    8  C13 UNL     1      22.958   4.271  51.213  1.00  0.00     0.723 A 
HETATM    9  N3  UNL     1      21.759   4.837  51.001  1.00  0.00    -0.075 NA
HETATM   10  C14 UNL     1      20.604   4.243  51.415  1.00  0.00     0.139 A 
HETATM   11  C15 UNL     1      20.629   3.012  52.081  1.00  0.00     0.053 A 
HETATM   12  C16 UNL     1      21.879   2.469  52.277  1.00  0.00     0.094 A 
HETATM   13  C17 UNL     1      21.913   1.194  52.954  1.00  0.00     0.034 A 
HETATM   14  N4  UNL     1      22.989   3.082  51.857  1.00  0.00    -0.062 NA
HETATM   15  C18 UNL     1      22.995   0.494  53.242  1.00  0.00     0.021 A 
HETATM   16  S1  UNL     1      20.569   0.245  53.558  1.00  0.00    -0.100 SA
HETATM   17  C19 UNL     1      23.071  -0.700  53.867  1.00  0.00     0.008 A 
HETATM   18  C20 UNL     1      21.691  -1.164  54.217  1.00  0.00     0.050 A 
ENDBRANCH   6   8
ENDBRANCH   5   6
BRANCH   1  19
HETATM   19  N1  UNL     1      25.985   2.143  49.969  1.00  0.00    -0.325 N 
HETATM   20  C7  UNL     1      26.325   1.962  51.361  1.00  0.00     0.245 C 
HETATM   21  O1  UNL     1      26.359   3.189  51.723  1.00  0.00    -0.268 OA
HETATM   22  H10 UNL     1      25.837   1.414  49.208  1.00  0.00     0.169 HD
BRANCH  20  23
HETATM   23  C6  UNL     1      26.490   0.599  51.810  1.00  0.00     0.074 C 
HETATM   24  C5  UNL     1      26.723  -0.302  52.747  1.00  0.00     0.005 C 
BRANCH  24  25
HETATM   25  C4  UNL     1      26.977  -0.053  54.143  1.00  0.00    -0.004 C 
HETATM   26  C3  UNL     1      28.188   0.192  54.569  1.00  0.00    -0.027 C 
BRANCH  26  27
HETATM   27  C2  UNL     1      29.497   0.283  53.875  1.00  0.00     0.022 C 
HETATM   28  C1  UNL     1      30.050  -1.136  53.679  1.00  0.00     0.009 C 
ENDBRANCH  26  27
ENDBRANCH  24  25
ENDBRANCH  20  23
ENDBRANCH   1  19
TORSDOF 6
ENDMDL
MODEL 4
REMARK VINA RESULT:      -7.7      5.429      9.855
REMARK  6 active torsions:
REMARK  status: ('A' for Active; 'I' for Inactive)
REMARK    1  A    between atoms: C2_2  and  C3_3 
REMARK    2  A    between atoms: C4_4  and  C5_5 
REMARK    3  A    between atoms: C6_6  and  C7_7 
REMARK       I    between atoms: C7_7  and  N1_9 
REMARK    4  A    between atoms: N1_9  and  C8_10 
REMARK    5  A    between atoms: C12_14  and  N2_15 
REMARK    6  A    between atoms: N2_15  and  C13_16 
ROOT
HETATM    1  C8  UNL     1      25.843   5.656  49.604  1.00  0.00     0.039 A 
HETATM    2  C9  UNL     1      24.662   5.780  48.977  1.00  0.00     0.027 A 
HETATM    3  C10 UNL     1      24.753   6.748  47.890  1.00  0.00     0.000 A 
HETATM    4  C11 UNL     1      25.987   7.183  47.886  1.00  0.00     0.005 A 
HETATM    5  C12 UNL     1      26.826   6.556  48.957  1.00  0.00     0.172 A 
ENDROOT
BRANCH   5   6
HETATM    6  N2  UNL     1      27.898   5.821  48.284  1.00  0.00    -0.209 N 
HETATM    7  H15 UNL     1      27.678   4.961  47.741  1.00  0.00     0.179 HD
BRANCH   6   8
HETATM    8  C13 UNL     1      29.235   6.289  48.375  1.00  0.00     0.723 A 
HETATM    9  N3  UNL     1      29.545   7.558  48.686  1.00  0.00    -0.075 NA
HETATM   10  C14 UNL     1      30.839   7.978  48.773  1.00  0.00     0.139 A 
HETATM   11  C15 UNL     1      31.898   7.092  48.539  1.00  0.00     0.053 A 
HETATM   12  C16 UNL     1      31.534   5.802  48.224  1.00  0.00     0.094 A 
HETATM   13  C17 UNL     1      32.621   4.880  47.990  1.00  0.00     0.034 A 
HETATM   14  N4  UNL     1      30.254   5.429  48.147  1.00  0.00    -0.062 NA
HETATM   15  C18 UNL     1      32.503   3.602  47.680  1.00  0.00     0.021 A 
HETATM   16  S1  UNL     1      34.344   5.188  48.060  1.00  0.00    -0.100 SA
HETATM   17  C19 UNL     1      33.489   2.706  47.460  1.00  0.00     0.008 A 
HETATM   18  C20 UNL     1      34.816   3.382  47.620  1.00  0.00     0.050 A 
ENDBRANCH   6   8
ENDBRANCH   5   6
BRANCH   1  19
HETATM   19  N1  UNL     1      25.828   4.712  50.696  1.00  0.00    -0.325 N 
HETATM   20  C7  UNL     1      26.221   3.374  50.318  1.00  0.00     0.245 C 
HETATM   21  O1  UNL     1      26.443   3.571  49.073  1.00  0.00    -0.268 OA
HETATM   22  H10 UNL     1      25.534   5.087  51.648  1.00  0.00     0.169 HD
BRANCH  20  23
HETATM   23  C6  UNL     1      26.225   2.384  51.371  1.00  0.00     0.074 C 
HETATM   24  C5  UNL     1      26.773   1.797  52.419  1.00  0.00     0.005 C 
BRANCH  24  25
HETATM   25  C4  UNL     1      28.029   2.132  53.041  1.00  0.00    -0.004 C 
HETATM   26  C3  UNL     1      28.782   1.203  53.568  1.00  0.00    -0.027 C 
BRANCH  26  27
HETATM   27  C2  UNL     1      28.627  -0.268  53.686  1.00  0.00     0.022 C 
HETATM   28  C1  UNL     1      30.021  -0.912  53.673  1.00  0.00     0.009 C 
ENDBRANCH  26  27
ENDBRANCH  24  25
ENDBRANCH  20  23
ENDBRANCH   1  19
TORSDOF 6
ENDMDL
MODEL 5
REMARK VINA RESULT:      -7.4      2.701      6.407
REMARK  6 active torsions:
REMARK  status: ('A' for Active; 'I' for Inactive)
REMARK    1  A    between atoms: C2_2  and  C3_3 
REMARK    2  A    between atoms: C4_4  and  C5_5 
REMARK    3  A    between atoms: C6_6  and  C7_7 
REMARK       I    between atoms: C7_7  and  N1_9 
REMARK    4  A    between atoms: N1_9  and  C8_10 
REMARK    5  A    between atoms: C12_14  and  N2_15 
REMARK    6  A    between atoms: N2_15  and  C13_16 
ROOT
HETATM    1  C8  UNL     1      23.425   0.488  53.137  1.00  0.00     0.039 A 
HETATM    2  C9  UNL     1      23.179  -0.650  53.807  1.00  0.00     0.027 A 
HETATM    3  C10 UNL     1      21.796  -0.693  54.265  1.00  0.00     0.000 A 
HETATM    4  C11 UNL     1      21.239   0.420  53.859  1.00  0.00     0.005 A 
HETATM    5  C12 UNL     1      22.186   1.300  53.103  1.00  0.00     0.172 A 
ENDROOT
BRANCH   5   6
HETATM    6  N2  UNL     1      21.648   1.441  51.749  1.00  0.00    -0.209 N 
HETATM    7  H15 UNL     1      21.178   0.635  51.289  1.00  0.00     0.179 HD
BRANCH   6   8
HETATM    8  C13 UNL     1      21.768   2.682  51.071  1.00  0.00     0.723 A 
HETATM    9  N3  UNL     1      20.723   3.493  50.842  1.00  0.00    -0.075 NA
HETATM   10  C14 UNL     1      20.869   4.683  50.193  1.00  0.00     0.139 A 
HETATM   11  C15 UNL     1      22.125   5.104  49.740  1.00  0.00     0.053 A 
HETATM   12  C16 UNL     1      23.167   4.242  49.997  1.00  0.00     0.094 A 
HETATM   13  C17 UNL     1      24.468   4.673  49.541  1.00  0.00     0.034 A 
HETATM   14  N4  UNL     1      22.984   3.083  50.635  1.00  0.00    -0.062 NA
HETATM   15  C18 UNL     1      25.601   4.010  49.683  1.00  0.00     0.021 A 
HETATM   16  S1  UNL     1      24.894   6.154  48.707  1.00  0.00    -0.100 SA
HETATM   17  C19 UNL     1      26.836   4.378  49.279  1.00  0.00     0.008 A 
HETATM   18  C20 UNL     1      26.758   5.714  48.607  1.00  0.00     0.050 A 
ENDBRANCH   6   8
ENDBRANCH   5   6
BRANCH   1  19
HETATM   19  N1  UNL     1      24.780   0.600  52.653  1.00  0.00    -0.325 N 
HETATM   20  C7  UNL     1      25.397   1.876  52.932  1.00  0.00     0.245 C 
HETATM   21  O1  UNL     1      24.426   2.443  53.543  1.00  0.00    -0.268 OA
HETATM   22  H10 UNL     1      25.179  -0.248  52.149  1.00  0.00     0.169 HD
BRANCH  20  23
HETATM   23  C6  UNL     1      26.755   2.047  52.470  1.00  0.00     0.074 C 
HETATM   24  C5  UNL     1      28.051   2.188  52.681  1.00  0.00     0.005 C 
BRANCH  24  25
HETATM   25  C4  UNL     1      28.723   2.219  53.956  1.00  0.00    -0.004 C 
HETATM   26  C3  UNL     1      29.010   1.112  54.588  1.00  0.00    -0.027 C 
BRANCH  26  27
HETATM   27  C2  UNL     1      28.782  -0.318  54.260  1.00  0.00     0.022 C 
HETATM   28  C1  UNL     1      30.023  -0.862  53.539  1.00  0.00     0.009 C 
ENDBRANCH  26  27
ENDBRANCH  24  25
ENDBRANCH  20  23
ENDBRANCH   1  19
TORSDOF 6
ENDMDL
MODEL 6
REMARK VINA RESULT:      -7.4      2.703      5.554
REMARK  6 active torsions:
REMARK  status: ('A' for Active; 'I' for Inactive)
REMARK    1  A    between atoms: C2_2  and  C3_3 
REMARK    2  A    between atoms: C4_4  and  C5_5 
REMARK    3  A    between atoms: C6_6  and  C7_7 
REMARK       I    between atoms: C7_7  and  N1_9 
REMARK    4  A    between atoms: N1_9  and  C8_10 
REMARK    5  A    between atoms: C12_14  and  N2_15 
REMARK    6  A    between atoms: N2_15  and  C13_16 
ROOT
HETATM    1  C8  UNL     1      19.838   1.227  51.465  1.00  0.00     0.039 A 
HETATM    2  C9  UNL     1      18.639   1.680  51.063  1.00  0.00     0.027 A 
HETATM    3  C10 UNL     1      17.586   0.733  51.409  1.00  0.00     0.000 A 
HETATM    4  C11 UNL     1      18.174  -0.268  52.012  1.00  0.00     0.005 A 
HETATM    5  C12 UNL     1      19.656  -0.087  52.124  1.00  0.00     0.172 A 
ENDROOT
BRANCH   5   6
HETATM    6  N2  UNL     1      19.974  -0.044  53.552  1.00  0.00    -0.209 N 
HETATM    7  H15 UNL     1      19.246   0.241  54.239  1.00  0.00     0.179 HD
BRANCH   6   8
HETATM    8  C13 UNL     1      21.277  -0.394  53.994  1.00  0.00     0.723 A 
HETATM    9  N3  UNL     1      21.500  -1.274  54.984  1.00  0.00    -0.075 NA
HETATM   10  C14 UNL     1      22.763  -1.597  55.383  1.00  0.00     0.139 A 
HETATM   11  C15 UNL     1      23.880  -1.018  54.769  1.00  0.00     0.053 A 
HETATM   12  C16 UNL     1      23.604  -0.123  53.760  1.00  0.00     0.094 A 
HETATM   13  C17 UNL     1      24.751   0.472  53.115  1.00  0.00     0.034 A 
HETATM   14  N4  UNL     1      22.352   0.169  53.397  1.00  0.00    -0.062 NA
HETATM   15  C18 UNL     1      24.721   1.348  52.127  1.00  0.00     0.021 A 
HETATM   16  S1  UNL     1      26.450   0.200  53.446  1.00  0.00    -0.100 SA
HETATM   17  C19 UNL     1      25.765   1.923  51.494  1.00  0.00     0.008 A 
HETATM   18  C20 UNL     1      27.043   1.414  52.086  1.00  0.00     0.050 A 
ENDBRANCH   6   8
ENDBRANCH   5   6
BRANCH   1  19
HETATM   19  N1  UNL     1      20.932   2.116  51.154  1.00  0.00    -0.325 N 
HETATM   20  C7  UNL     1      21.131   3.162  52.131  1.00  0.00     0.245 C 
HETATM   21  O1  UNL     1      20.188   2.864  52.943  1.00  0.00    -0.268 OA
HETATM   22  H10 UNL     1      21.469   1.917  50.257  1.00  0.00     0.169 HD
BRANCH  20  23
HETATM   23  C6  UNL     1      22.213   4.084  51.873  1.00  0.00     0.074 C 
HETATM   24  C5  UNL     1      23.090   4.661  51.071  1.00  0.00     0.005 C 
BRANCH  24  25
HETATM   25  C4  UNL     1      23.263   4.419  49.661  1.00  0.00    -0.004 C 
HETATM   26  C3  UNL     1      24.438   4.536  49.102  1.00  0.00    -0.027 C 
BRANCH  26  27
HETATM   27  C2  UNL     1      25.774   4.895  49.640  1.00  0.00     0.022 C 
HETATM   28  C1  UNL     1      26.241   6.194  48.969  1.00  0.00     0.009 C 
ENDBRANCH  26  27
ENDBRANCH  24  25
ENDBRANCH  20  23
ENDBRANCH   1  19
TORSDOF 6
ENDMDL
MODEL 7
REMARK VINA RESULT:      -7.1      2.424      5.872
REMARK  6 active torsions:
REMARK  status: ('A' for Active; 'I' for Inactive)
REMARK    1  A    between atoms: C2_2  and  C3_3 
REMARK    2  A    between atoms: C4_4  and  C5_5 
REMARK    3  A    between atoms: C6_6  and  C7_7 
REMARK       I    between atoms: C7_7  and  N1_9 
REMARK    4  A    between atoms: N1_9  and  C8_10 
REMARK    5  A    between atoms: C12_14  and  N2_15 
REMARK    6  A    between atoms: N2_15  and  C13_16 
ROOT
HETATM    1  C8  UNL     1      23.371   3.578  50.063  1.00  0.00     0.039 A 
HETATM    2  C9  UNL     1      22.594   4.561  50.547  1.00  0.00     0.027 A 
HETATM    3  C10 UNL     1      21.675   5.045  49.524  1.00  0.00     0.000 A 
HETATM    4  C11 UNL     1      21.918   4.341  48.448  1.00  0.00     0.005 A 
HETATM    5  C12 UNL     1      23.008   3.335  48.648  1.00  0.00     0.172 A 
ENDROOT
BRANCH   5   6
HETATM    6  N2  UNL     1      22.412   2.014  48.442  1.00  0.00    -0.209 N 
HETATM    7  H15 UNL     1      22.634   1.470  47.583  1.00  0.00     0.179 HD
BRANCH   6   8
HETATM    8  C13 UNL     1      21.533   1.479  49.420  1.00  0.00     0.723 A 
HETATM    9  N3  UNL     1      20.199   1.461  49.270  1.00  0.00    -0.075 NA
HETATM   10  C14 UNL     1      19.379   0.935  50.223  1.00  0.00     0.139 A 
HETATM   11  C15 UNL     1      19.904   0.391  51.402  1.00  0.00     0.053 A 
HETATM   12  C16 UNL     1      21.276   0.431  51.513  1.00  0.00     0.094 A 
HETATM   13  C17 UNL     1      21.827  -0.136  52.721  1.00  0.00     0.034 A 
HETATM   14  N4  UNL     1      22.047   0.956  50.557  1.00  0.00    -0.062 NA
HETATM   15  C18 UNL     1      23.107  -0.208  53.034  1.00  0.00     0.021 A 
HETATM   16  S1  UNL     1      20.976  -0.874  54.064  1.00  0.00    -0.100 SA
HETATM   17  C19 UNL     1      23.664  -0.733  54.146  1.00  0.00     0.008 A 
HETATM   18  C20 UNL     1      22.582  -1.259  55.039  1.00  0.00     0.050 A 
ENDBRANCH   6   8
ENDBRANCH   5   6
BRANCH   1  19
HETATM   19  N1  UNL     1      24.310   3.049  51.024  1.00  0.00    -0.325 N 
HETATM   20  C7  UNL     1      25.687   3.116  50.593  1.00  0.00     0.245 C 
HETATM   21  O1  UNL     1      25.516   3.657  49.446  1.00  0.00    -0.268 OA
HETATM   22  H10 UNL     1      23.902   2.671  51.931  1.00  0.00     0.169 HD
BRANCH  20  23
HETATM   23  C6  UNL     1      26.673   2.601  51.514  1.00  0.00     0.074 C 
HETATM   24  C5  UNL     1      27.210   1.626  52.226  1.00  0.00     0.005 C 
BRANCH  24  25
HETATM   25  C4  UNL     1      26.764   0.257  52.293  1.00  0.00    -0.004 C 
HETATM   26  C3  UNL     1      27.345  -0.597  53.094  1.00  0.00    -0.027 C 
BRANCH  26  27
HETATM   27  C2  UNL     1      28.473  -0.468  54.051  1.00  0.00     0.022 C 
HETATM   28  C1  UNL     1      29.769  -0.884  53.341  1.00  0.00     0.009 C 
ENDBRANCH  26  27
ENDBRANCH  24  25
ENDBRANCH  20  23
ENDBRANCH   1  19
TORSDOF 6
ENDMDL
MODEL 8
REMARK VINA RESULT:      -7.1      3.068      6.886
REMARK  6 active torsions:
REMARK  status: ('A' for Active; 'I' for Inactive)
REMARK    1  A    between atoms: C2_2  and  C3_3 
REMARK    2  A    between atoms: C4_4  and  C5_5 
REMARK    3  A    between atoms: C6_6  and  C7_7 
REMARK       I    between atoms: C7_7  and  N1_9 
REMARK    4  A    between atoms: N1_9  and  C8_10 
REMARK    5  A    between atoms: C12_14  and  N2_15 
REMARK    6  A    between atoms: N2_15  and  C13_16 
ROOT
HETATM    1  C8  UNL     1      20.548   0.175  53.299  1.00  0.00     0.039 A 
HETATM    2  C9  UNL     1      20.141  -0.958  53.895  1.00  0.00     0.027 A 
HETATM    3  C10 UNL     1      18.831  -1.361  53.399  1.00  0.00     0.000 A 
HETATM    4  C11 UNL     1      18.479  -0.462  52.514  1.00  0.00     0.005 A 
HETATM    5  C12 UNL     1      19.508   0.612  52.339  1.00  0.00     0.172 A 
ENDROOT
BRANCH   5   6
HETATM    6  N2  UNL     1      19.965   0.543  50.950  1.00  0.00    -0.209 N 
HETATM    7  H15 UNL     1      19.939  -0.363  50.438  1.00  0.00     0.179 HD
BRANCH   6   8
HETATM    8  C13 UNL     1      20.440   1.715  50.308  1.00  0.00     0.723 A 
HETATM    9  N3  UNL     1      19.637   2.559  49.640  1.00  0.00    -0.075 NA
HETATM   10  C14 UNL     1      20.120   3.682  49.037  1.00  0.00     0.139 A 
HETATM   11  C15 UNL     1      21.483   3.997  49.095  1.00  0.00     0.053 A 
HETATM   12  C16 UNL     1      22.269   3.105  49.789  1.00  0.00     0.094 A 
HETATM   13  C17 UNL     1      23.675   3.428  49.861  1.00  0.00     0.034 A 
HETATM   14  N4  UNL     1      21.758   2.014  50.366  1.00  0.00    -0.062 NA
HETATM   15  C18 UNL     1      24.605   2.720  50.475  1.00  0.00     0.021 A 
HETATM   16  S1  UNL     1      24.511   4.810  49.182  1.00  0.00    -0.100 SA
HETATM   17  C19 UNL     1      25.925   2.987  50.571  1.00  0.00     0.008 A 
HETATM   18  C20 UNL     1      26.224   4.266  49.851  1.00  0.00     0.050 A 
ENDBRANCH   6   8
ENDBRANCH   5   6
BRANCH   1  19
HETATM   19  N1  UNL     1      21.843   0.636  53.744  1.00  0.00    -0.325 N 
HETATM   20  C7  UNL     1      22.950   0.052  53.023  1.00  0.00     0.245 C 
HETATM   21  O1  UNL     1      22.297  -0.698  52.218  1.00  0.00    -0.268 OA
HETATM   22  H10 UNL     1      21.850   1.342  54.540  1.00  0.00     0.169 HD
BRANCH  20  23
HETATM   23  C6  UNL     1      24.272   0.476  53.424  1.00  0.00     0.074 C 
HETATM   24  C5  UNL     1      25.589   0.428  53.342  1.00  0.00     0.005 C 
BRANCH  24  25
HETATM   25  C4  UNL     1      26.371  -0.407  52.465  1.00  0.00    -0.004 C 
HETATM   26  C3  UNL     1      27.575  -0.788  52.802  1.00  0.00    -0.027 C 
BRANCH  26  27
HETATM   27  C2  UNL     1      28.408  -0.533  54.005  1.00  0.00     0.022 C 
HETATM   28  C1  UNL     1      29.838  -0.209  53.552  1.00  0.00     0.009 C 
ENDBRANCH  26  27
ENDBRANCH  24  25
ENDBRANCH  20  23
ENDBRANCH   1  19
TORSDOF 6
ENDMDL
MODEL 9
REMARK VINA RESULT:      -7.1      1.572      2.067
REMARK  6 active torsions:
REMARK  status: ('A' for Active; 'I' for Inactive)
REMARK    1  A    between atoms: C2_2  and  C3_3 
REMARK    2  A    between atoms: C4_4  and  C5_5 
REMARK    3  A    between atoms: C6_6  and  C7_7 
REMARK       I    between atoms: C7_7  and  N1_9 
REMARK    4  A    between atoms: N1_9  and  C8_10 
REMARK    5  A    between atoms: C12_14  and  N2_15 
REMARK    6  A    between atoms: N2_15  and  C13_16 
ROOT
HETATM    1  C8  UNL     1      25.482   2.019  52.334  1.00  0.00     0.039 A 
HETATM    2  C9  UNL     1      26.719   2.284  51.883  1.00  0.00     0.027 A 
HETATM    3  C10 UNL     1      27.726   1.703  52.763  1.00  0.00     0.000 A 
HETATM    4  C11 UNL     1      27.072   1.099  53.723  1.00  0.00     0.005 A 
HETATM    5  C12 UNL     1      25.586   1.220  53.577  1.00  0.00     0.172 A 
ENDROOT
BRANCH   5   6
HETATM    6  N2  UNL     1      25.062  -0.137  53.415  1.00  0.00    -0.209 N 
HETATM    7  H15 UNL     1      25.706  -0.919  53.175  1.00  0.00     0.179 HD
BRANCH   6   8
HETATM    8  C13 UNL     1      23.675  -0.380  53.587  1.00  0.00     0.723 A 
HETATM    9  N3  UNL     1      23.171  -0.996  54.669  1.00  0.00    -0.075 NA
HETATM   10  C14 UNL     1      21.832  -1.210  54.812  1.00  0.00     0.139 A 
HETATM   11  C15 UNL     1      20.929  -0.793  53.827  1.00  0.00     0.053 A 
HETATM   12  C16 UNL     1      21.490  -0.167  52.736  1.00  0.00     0.094 A 
HETATM   13  C17 UNL     1      20.565   0.276  51.719  1.00  0.00     0.034 A 
HETATM   14  N4  UNL     1      22.808   0.025  52.632  1.00  0.00    -0.062 NA
HETATM   15  C18 UNL     1      20.880   0.898  50.598  1.00  0.00     0.021 A 
HETATM   16  S1  UNL     1      18.819   0.123  51.695  1.00  0.00    -0.100 SA
HETATM   17  C19 UNL     1      20.049   1.332  49.627  1.00  0.00     0.008 A 
HETATM   18  C20 UNL     1      18.636   1.001  50.000  1.00  0.00     0.050 A 
ENDBRANCH   6   8
ENDBRANCH   5   6
BRANCH   1  19
HETATM   19  N1  UNL     1      24.430   2.566  51.510  1.00  0.00    -0.325 N 
HETATM   20  C7  UNL     1      23.592   3.525  52.192  1.00  0.00     0.245 C 
HETATM   21  O1  UNL     1      24.156   3.507  53.341  1.00  0.00    -0.268 OA
HETATM   22  H10 UNL     1      24.378   2.215  50.507  1.00  0.00     0.169 HD
BRANCH  20  23
HETATM   23  C6  UNL     1      22.520   4.107  51.417  1.00  0.00     0.074 C 
HETATM   24  C5  UNL     1      21.997   5.082  50.696  1.00  0.00     0.005 C 
BRANCH  24  25
HETATM   25  C4  UNL     1      22.619   6.336  50.354  1.00  0.00    -0.004 C 
HETATM   26  C3  UNL     1      23.626   6.377  49.522  1.00  0.00    -0.027 C 
BRANCH  26  27
HETATM   27  C2  UNL     1      24.351   5.322  48.770  1.00  0.00     0.022 C 
HETATM   28  C1  UNL     1      25.747   5.151  49.385  1.00  0.00     0.009 C 
ENDBRANCH  26  27
ENDBRANCH  24  25
ENDBRANCH  20  23
ENDBRANCH   1  19
TORSDOF 6
ENDMDL
