MODEL 1
REMARK VINA RESULT:      -8.0      0.000      0.000
REMARK  5 active torsions:
REMARK  status: ('A' for Active; 'I' for Inactive)
REMARK    1  A    between atoms: C1_2  and  N1_3 
REMARK    2  A    between atoms: N1_3  and  C2_4 
REMARK    3  A    between atoms: C2_4  and  C3_5 
REMARK    4  A    between atoms: C12_16  and  C13_17 
REMARK    5  A    between atoms: C14_18  and  C15_19 
ROOT
HETATM    1  C3  UNL     1      25.026   2.524  52.155  1.00  0.00     0.065 C 
HETATM    2  C4  UNL     1      23.978   1.539  52.605  1.00  0.00    -0.023 A 
HETATM    3  C5  UNL     1      24.369   0.298  53.018  1.00  0.00     0.010 A 
HETATM    4  C6  UNL     1      23.509  -0.663  53.454  1.00  0.00     0.001 A 
HETATM    5  C7  UNL     1      22.156  -0.427  53.503  1.00  0.00     0.002 A 
HETATM    6  C8  UNL     1      21.727   0.799  53.098  1.00  0.00     0.030 A 
HETATM    7  C9  UNL     1      22.595   1.785  52.652  1.00  0.00     0.038 A 
HETATM    8  N2  UNL     1      21.651   2.846  52.370  1.00  0.00    -0.364 N 
HETATM    9  C10 UNL     1      21.845   3.958  51.464  1.00  0.00     0.105 C 
HETATM   10  C11 UNL     1      22.758   4.316  50.547  1.00  0.00     0.100 C 
HETATM   11  N3  UNL     1      23.934   3.593  50.182  1.00  0.00    -0.389 N 
HETATM   12  C12 UNL     1      24.946   2.696  50.675  1.00  0.00     0.114 C 
HETATM   13  H10 UNL     1      20.752   2.822  52.852  1.00  0.00     0.165 HD
HETATM   14  H13 UNL     1      24.147   3.774  49.150  1.00  0.00     0.159 HD
ENDROOT
BRANCH  12  15
HETATM   15  C13 UNL     1      26.222   3.054  50.070  1.00  0.00    -0.001 C 
HETATM   16  C14 UNL     1      26.950   3.942  49.412  1.00  0.00     0.009 C 
BRANCH  16  17
HETATM   17  C15 UNL     1      26.642   5.260  48.916  1.00  0.00    -0.036 A 
HETATM   18  C16 UNL     1      27.346   6.252  48.436  1.00  0.00     0.011 A 
HETATM   19  C17 UNL     1      26.163   7.056  48.248  1.00  0.00     0.002 A 
HETATM   20  C18 UNL     1      25.446   6.067  48.727  1.00  0.00     0.011 A 
ENDBRANCH  16  17
ENDBRANCH  12  15
BRANCH   1  21
HETATM   21  C2  UNL     1      26.355   1.992  52.572  1.00  0.00     0.133 C 
BRANCH  21  22
HETATM   22  N1  UNL     1      26.935   2.665  53.746  1.00  0.00    -0.367 N 
HETATM   23  H2  UNL     1      27.017   3.231  54.643  1.00  0.00     0.161 HD
BRANCH  22  24
HETATM   24  C1  UNL     1      28.366   2.402  53.718  1.00  0.00     0.348 C 
HETATM   25  O1  UNL     1      29.328   2.372  54.566  1.00  0.00    -0.284 OA
ENDBRANCH  22  24
ENDBRANCH  21  22
ENDBRANCH   1  21
TORSDOF 5
ENDMDL
MODEL 2
REMARK VINA RESULT:      -7.9      2.637      4.201
REMARK  5 active torsions:
REMARK  status: ('A' for Active; 'I' for Inactive)
REMARK    1  A    between atoms: C1_2  and  N1_3 
REMARK    2  A    between atoms: N1_3  and  C2_4 
REMARK    3  A    between atoms: C2_4  and  C3_5 
REMARK    4  A    between atoms: C12_16  and  C13_17 
REMARK    5  A    between atoms: C14_18  and  C15_19 
ROOT
HETATM    1  C3  UNL     1      23.555   1.620  51.643  1.00  0.00     0.065 C 
HETATM    2  C4  UNL     1      23.186   0.715  52.790  1.00  0.00    -0.023 A 
HETATM    3  C5  UNL     1      21.881   0.648  53.187  1.00  0.00     0.010 A 
HETATM    4  C6  UNL     1      21.437  -0.144  54.202  1.00  0.00     0.001 A 
HETATM    5  C7  UNL     1      22.308  -0.943  54.904  1.00  0.00     0.002 A 
HETATM    6  C8  UNL     1      23.617  -0.902  54.538  1.00  0.00     0.030 A 
HETATM    7  C9  UNL     1      24.080  -0.100  53.505  1.00  0.00     0.038 A 
HETATM    8  N2  UNL     1      25.488  -0.437  53.533  1.00  0.00    -0.364 N 
HETATM    9  C10 UNL     1      26.581   0.370  53.034  1.00  0.00     0.105 C 
HETATM   10  C11 UNL     1      26.731   1.621  52.567  1.00  0.00     0.100 C 
HETATM   11  N3  UNL     1      25.710   2.609  52.422  1.00  0.00    -0.389 N 
HETATM   12  C12 UNL     1      24.308   2.800  52.161  1.00  0.00     0.114 C 
HETATM   13  H10 UNL     1      25.753  -1.333  53.942  1.00  0.00     0.165 HD
HETATM   14  H13 UNL     1      26.140   3.576  52.569  1.00  0.00     0.159 HD
ENDROOT
BRANCH  12  15
HETATM   15  C13 UNL     1      24.144   3.991  51.337  1.00  0.00    -0.001 C 
HETATM   16  C14 UNL     1      24.634   4.797  50.410  1.00  0.00     0.009 C 
BRANCH  16  17
HETATM   17  C15 UNL     1      25.870   4.773  49.668  1.00  0.00    -0.036 A 
HETATM   18  C16 UNL     1      26.765   3.859  49.398  1.00  0.00     0.011 A 
HETATM   19  C17 UNL     1      27.556   4.798  48.639  1.00  0.00     0.002 A 
HETATM   20  C18 UNL     1      26.664   5.723  48.903  1.00  0.00     0.011 A 
ENDBRANCH  16  17
ENDBRANCH  12  15
BRANCH   1  21
HETATM   21  C2  UNL     1      22.291   2.033  50.967  1.00  0.00     0.133 C 
BRANCH  21  22
HETATM   22  N1  UNL     1      21.984   1.275  49.743  1.00  0.00    -0.367 N 
HETATM   23  H2  UNL     1      21.657   0.495  49.097  1.00  0.00     0.161 HD
BRANCH  22  24
HETATM   24  C1  UNL     1      22.342   2.127  48.620  1.00  0.00     0.348 C 
HETATM   25  O1  UNL     1      22.646   1.967  47.384  1.00  0.00    -0.284 OA
ENDBRANCH  22  24
ENDBRANCH  21  22
ENDBRANCH   1  21
TORSDOF 5
ENDMDL
MODEL 3
REMARK VINA RESULT:      -7.8      2.702      5.968
REMARK  5 active torsions:
REMARK  status: ('A' for Active; 'I' for Inactive)
REMARK    1  A    between atoms: C1_2  and  N1_3 
REMARK    2  A    between atoms: N1_3  and  C2_4 
REMARK    3  A    between atoms: C2_4  and  C3_5 
REMARK    4  A    between atoms: C12_16  and  C13_17 
REMARK    5  A    between atoms: C14_18  and  C15_19 
ROOT
HETATM    1  C3  UNL     1      26.035  -0.142  52.690  1.00  0.00     0.065 C 
HETATM    2  C4  UNL     1      27.168   0.705  53.208  1.00  0.00    -0.023 A 
HETATM    3  C5  UNL     1      27.933   0.230  54.235  1.00  0.00     0.010 A 
HETATM    4  C6  UNL     1      28.987   0.906  54.771  1.00  0.00     0.001 A 
HETATM    5  C7  UNL     1      29.348   2.142  54.291  1.00  0.00     0.002 A 
HETATM    6  C8  UNL     1      28.608   2.649  53.268  1.00  0.00     0.030 A 
HETATM    7  C9  UNL     1      27.533   1.969  52.715  1.00  0.00     0.038 A 
HETATM    8  N2  UNL     1      27.129   2.917  51.697  1.00  0.00    -0.364 N 
HETATM    9  C10 UNL     1      25.821   3.027  51.088  1.00  0.00     0.105 C 
HETATM   10  C11 UNL     1      24.606   2.494  51.294  1.00  0.00     0.100 C 
HETATM   11  N3  UNL     1      24.243   1.553  52.304  1.00  0.00    -0.389 N 
HETATM   12  C12 UNL     1      24.733   0.460  53.104  1.00  0.00     0.114 C 
HETATM   13  H10 UNL     1      27.828   3.582  51.364  1.00  0.00     0.165 HD
HETATM   14  H13 UNL     1      23.226   1.720  52.587  1.00  0.00     0.159 HD
ENDROOT
BRANCH  12  15
HETATM   15  C13 UNL     1      23.669  -0.523  53.253  1.00  0.00    -0.001 C 
HETATM   16  C14 UNL     1      22.422  -0.884  52.997  1.00  0.00     0.009 C 
BRANCH  16  17
HETATM   17  C15 UNL     1      21.365  -0.239  52.259  1.00  0.00    -0.036 A 
HETATM   18  C16 UNL     1      21.275   0.330  51.085  1.00  0.00     0.011 A 
HETATM   19  C17 UNL     1      19.879   0.635  51.294  1.00  0.00     0.002 A 
HETATM   20  C18 UNL     1      19.958   0.065  52.474  1.00  0.00     0.011 A 
ENDBRANCH  16  17
ENDBRANCH  12  15
BRANCH   1  21
HETATM   21  C2  UNL     1      26.203  -1.515  53.249  1.00  0.00     0.133 C 
BRANCH  21  22
HETATM   22  N1  UNL     1      26.688  -2.508  52.276  1.00  0.00    -0.367 N 
HETATM   23  H2  UNL     1      26.709  -3.193  51.462  1.00  0.00     0.161 HD
BRANCH  22  24
HETATM   24  C1  UNL     1      28.090  -2.747  52.583  1.00  0.00     0.348 C 
HETATM   25  O1  UNL     1      28.763  -3.242  53.557  1.00  0.00    -0.284 OA
ENDBRANCH  22  24
ENDBRANCH  21  22
ENDBRANCH   1  21
TORSDOF 5
ENDMDL
MODEL 4
REMARK VINA RESULT:      -7.6      3.462      5.747
REMARK  5 active torsions:
REMARK  status: ('A' for Active; 'I' for Inactive)
REMARK    1  A    between atoms: C1_2  and  N1_3 
REMARK    2  A    between atoms: N1_3  and  C2_4 
REMARK    3  A    between atoms: C2_4  and  C3_5 
REMARK    4  A    between atoms: C12_16  and  C13_17 
REMARK    5  A    between atoms: C14_18  and  C15_19 
ROOT
HETATM    1  C3  UNL     1      22.447   0.999  52.481  1.00  0.00     0.065 C 
HETATM    2  C4  UNL     1      22.067   1.552  51.132  1.00  0.00    -0.023 A 
HETATM    3  C5  UNL     1      21.613   0.696  50.170  1.00  0.00     0.010 A 
HETATM    4  C6  UNL     1      21.232   1.090  48.923  1.00  0.00     0.001 A 
HETATM    5  C7  UNL     1      21.287   2.413  48.555  1.00  0.00     0.002 A 
HETATM    6  C8  UNL     1      21.735   3.297  49.487  1.00  0.00     0.030 A 
HETATM    7  C9  UNL     1      22.125   2.906  50.760  1.00  0.00     0.038 A 
HETATM    8  N2  UNL     1      22.488   4.191  51.320  1.00  0.00    -0.364 N 
HETATM    9  C10 UNL     1      23.388   4.429  52.428  1.00  0.00     0.105 C 
HETATM   10  C11 UNL     1      24.238   3.695  53.164  1.00  0.00     0.100 C 
HETATM   11  N3  UNL     1      24.507   2.300  53.024  1.00  0.00    -0.389 N 
HETATM   12  C12 UNL     1      23.931   1.039  52.636  1.00  0.00     0.114 C 
HETATM   13  H10 UNL     1      22.074   5.025  50.902  1.00  0.00     0.165 HD
HETATM   14  H13 UNL     1      25.522   2.112  53.302  1.00  0.00     0.159 HD
ENDROOT
BRANCH  12  15
HETATM   15  C13 UNL     1      24.442   0.000  53.521  1.00  0.00    -0.001 C 
HETATM   16  C14 UNL     1      25.485  -0.621  54.047  1.00  0.00     0.009 C 
BRANCH  16  17
HETATM   17  C15 UNL     1      26.904  -0.431  53.879  1.00  0.00    -0.036 A 
HETATM   18  C16 UNL     1      27.795  -0.848  53.018  1.00  0.00     0.011 A 
HETATM   19  C17 UNL     1      28.849  -0.135  53.699  1.00  0.00     0.002 A 
HETATM   20  C18 UNL     1      27.963   0.291  54.569  1.00  0.00     0.011 A 
ENDBRANCH  16  17
ENDBRANCH  12  15
BRANCH   1  21
HETATM   21  C2  UNL     1      21.927  -0.397  52.561  1.00  0.00     0.133 C 
BRANCH  21  22
HETATM   22  N1  UNL     1      20.762  -0.558  53.448  1.00  0.00    -0.367 N 
HETATM   23  H2  UNL     1      19.798  -0.424  53.877  1.00  0.00     0.161 HD
BRANCH  22  24
HETATM   24  C1  UNL     1      21.095  -1.613  54.392  1.00  0.00     0.348 C 
HETATM   25  O1  UNL     1      22.002  -1.828  55.273  1.00  0.00    -0.284 OA
ENDBRANCH  22  24
ENDBRANCH  21  22
ENDBRANCH   1  21
TORSDOF 5
ENDMDL
MODEL 5
REMARK VINA RESULT:      -6.9      2.673      5.848
REMARK  5 active torsions:
REMARK  status: ('A' for Active; 'I' for Inactive)
REMARK    1  A    between atoms: C1_2  and  N1_3 
REMARK    2  A    between atoms: N1_3  and  C2_4 
REMARK    3  A    between atoms: C2_4  and  C3_5 
REMARK    4  A    between atoms: C12_16  and  C13_17 
REMARK    5  A    between atoms: C14_18  and  C15_19 
ROOT
HETATM    1  C3  UNL     1      24.150   3.620  49.833  1.00  0.00     0.065 C 
HETATM    2  C4  UNL     1      23.432   4.298  48.695  1.00  0.00    -0.023 A 
HETATM    3  C5  UNL     1      23.695   5.614  48.437  1.00  0.00     0.010 A 
HETATM    4  C6  UNL     1      23.113   6.319  47.428  1.00  0.00     0.001 A 
HETATM    5  C7  UNL     1      22.201   5.726  46.589  1.00  0.00     0.002 A 
HETATM    6  C8  UNL     1      21.913   4.416  46.815  1.00  0.00     0.030 A 
HETATM    7  C9  UNL     1      22.500   3.688  47.839  1.00  0.00     0.038 A 
HETATM    8  N2  UNL     1      21.871   2.401  47.629  1.00  0.00    -0.364 N 
HETATM    9  C10 UNL     1      21.698   1.351  48.610  1.00  0.00     0.105 C 
HETATM   10  C11 UNL     1      21.874   1.222  49.936  1.00  0.00     0.100 C 
HETATM   11  N3  UNL     1      22.342   2.224  50.839  1.00  0.00    -0.389 N 
HETATM   12  C12 UNL     1      23.193   3.379  50.953  1.00  0.00     0.114 C 
HETATM   13  H10 UNL     1      21.508   2.197  46.697  1.00  0.00     0.165 HD
HETATM   14  H13 UNL     1      21.888   2.070  51.794  1.00  0.00     0.159 HD
ENDROOT
BRANCH  12  15
HETATM   15  C13 UNL     1      23.834   3.360  52.261  1.00  0.00    -0.001 C 
HETATM   16  C14 UNL     1      24.516   2.688  53.173  1.00  0.00     0.009 C 
BRANCH  16  17
HETATM   17  C15 UNL     1      25.012   1.334  53.201  1.00  0.00    -0.036 A 
HETATM   18  C16 UNL     1      26.199   0.788  53.242  1.00  0.00     0.011 A 
HETATM   19  C17 UNL     1      25.635  -0.541  53.237  1.00  0.00     0.002 A 
HETATM   20  C18 UNL     1      24.437  -0.003  53.197  1.00  0.00     0.011 A 
ENDBRANCH  16  17
ENDBRANCH  12  15
BRANCH   1  21
HETATM   21  C2  UNL     1      25.271   4.508  50.256  1.00  0.00     0.133 C 
BRANCH  21  22
HETATM   22  N1  UNL     1      26.610   3.927  50.059  1.00  0.00    -0.367 N 
HETATM   23  H2  UNL     1      27.465   3.306  50.178  1.00  0.00     0.161 HD
BRANCH  22  24
HETATM   24  C1  UNL     1      27.221   4.647  48.952  1.00  0.00     0.348 C 
HETATM   25  O1  UNL     1      28.395   4.764  48.448  1.00  0.00    -0.284 OA
ENDBRANCH  22  24
ENDBRANCH  21  22
ENDBRANCH   1  21
TORSDOF 5
ENDMDL
MODEL 6
REMARK VINA RESULT:      -6.9      2.434      6.049
REMARK  5 active torsions:
REMARK  status: ('A' for Active; 'I' for Inactive)
REMARK    1  A    between atoms: C1_2  and  N1_3 
REMARK    2  A    between atoms: N1_3  and  C2_4 
REMARK    3  A    between atoms: C2_4  and  C3_5 
REMARK    4  A    between atoms: C12_16  and  C13_17 
REMARK    5  A    between atoms: C14_18  and  C15_19 
ROOT
HETATM    1  C3  UNL     1      23.456   3.255  50.622  1.00  0.00     0.065 C 
HETATM    2  C4  UNL     1      22.475   4.366  50.357  1.00  0.00    -0.023 A 
HETATM    3  C5  UNL     1      22.536   5.499  51.119  1.00  0.00     0.010 A 
HETATM    4  C6  UNL     1      21.707   6.567  50.957  1.00  0.00     0.001 A 
HETATM    5  C7  UNL     1      20.733   6.562  49.988  1.00  0.00     0.002 A 
HETATM    6  C8  UNL     1      20.640   5.450  49.209  1.00  0.00     0.030 A 
HETATM    7  C9  UNL     1      21.480   4.357  49.366  1.00  0.00     0.038 A 
HETATM    8  N2  UNL     1      20.973   3.496  48.317  1.00  0.00    -0.364 N 
HETATM    9  C10 UNL     1      21.099   2.056  48.243  1.00  0.00     0.105 C 
HETATM   10  C11 UNL     1      21.522   1.075  49.056  1.00  0.00     0.100 C 
HETATM   11  N3  UNL     1      22.028   1.221  50.384  1.00  0.00    -0.389 N 
HETATM   12  C12 UNL     1      22.749   2.106  51.261  1.00  0.00     0.114 C 
HETATM   13  H10 UNL     1      20.475   3.935  47.542  1.00  0.00     0.165 HD
HETATM   14  H13 UNL     1      21.772   0.353  50.951  1.00  0.00     0.159 HD
ENDROOT
BRANCH  12  15
HETATM   15  C13 UNL     1      23.611   1.309  52.123  1.00  0.00    -0.001 C 
HETATM   16  C14 UNL     1      23.726   0.368  53.046  1.00  0.00     0.009 C 
BRANCH  16  17
HETATM   17  C15 UNL     1      22.743  -0.439  53.725  1.00  0.00    -0.036 A 
HETATM   18  C16 UNL     1      22.736  -1.159  54.815  1.00  0.00     0.011 A 
HETATM   19  C17 UNL     1      21.356  -1.531  54.612  1.00  0.00     0.002 A 
HETATM   20  C18 UNL     1      21.351  -0.808  53.516  1.00  0.00     0.011 A 
ENDBRANCH  16  17
ENDBRANCH  12  15
BRANCH   1  21
HETATM   21  C2  UNL     1      24.527   3.796  51.508  1.00  0.00     0.133 C 
BRANCH  21  22
HETATM   22  N1  UNL     1      25.756   4.192  50.799  1.00  0.00    -0.367 N 
HETATM   23  H2  UNL     1      26.473   4.782  50.281  1.00  0.00     0.161 HD
BRANCH  22  24
HETATM   24  C1  UNL     1      26.616   3.019  50.763  1.00  0.00     0.348 C 
HETATM   25  O1  UNL     1      27.225   2.279  51.616  1.00  0.00    -0.284 OA
ENDBRANCH  22  24
ENDBRANCH  21  22
ENDBRANCH   1  21
TORSDOF 5
ENDMDL
MODEL 7
REMARK VINA RESULT:      -6.8      4.564      6.571
REMARK  5 active torsions:
REMARK  status: ('A' for Active; 'I' for Inactive)
REMARK    1  A    between atoms: C1_2  and  N1_3 
REMARK    2  A    between atoms: N1_3  and  C2_4 
REMARK    3  A    between atoms: C2_4  and  C3_5 
REMARK    4  A    between atoms: C12_16  and  C13_17 
REMARK    5  A    between atoms: C14_18  and  C15_19 
ROOT
HETATM    1  C3  UNL     1      19.057  -0.374  53.105  1.00  0.00     0.065 C 
HETATM    2  C4  UNL     1      17.877  -1.306  53.019  1.00  0.00    -0.023 A 
HETATM    3  C5  UNL     1      18.037  -2.613  53.384  1.00  0.00     0.010 A 
HETATM    4  C6  UNL     1      17.036  -3.536  53.357  1.00  0.00     0.001 A 
HETATM    5  C7  UNL     1      15.771  -3.191  52.946  1.00  0.00     0.002 A 
HETATM    6  C8  UNL     1      15.572  -1.898  52.574  1.00  0.00     0.030 A 
HETATM    7  C9  UNL     1      16.584  -0.949  52.599  1.00  0.00     0.038 A 
HETATM    8  N2  UNL     1      15.855   0.212  52.133  1.00  0.00    -0.364 N 
HETATM    9  C10 UNL     1      16.414   1.391  51.507  1.00  0.00     0.105 C 
HETATM   10  C11 UNL     1      17.614   1.762  51.032  1.00  0.00     0.100 C 
HETATM   11  N3  UNL     1      18.810   0.983  51.025  1.00  0.00    -0.389 N 
HETATM   12  C12 UNL     1      19.533  -0.044  51.730  1.00  0.00     0.114 C 
HETATM   13  H10 UNL     1      14.842   0.216  52.254  1.00  0.00     0.165 HD
HETATM   14  H13 UNL     1      19.394   1.250  50.170  1.00  0.00     0.159 HD
ENDROOT
BRANCH  12  15
HETATM   15  C13 UNL     1      20.956   0.264  51.674  1.00  0.00    -0.001 C 
HETATM   16  C14 UNL     1      21.972   0.785  51.007  1.00  0.00     0.009 C 
BRANCH  16  17
HETATM   17  C15 UNL     1      22.051   1.422  49.716  1.00  0.00    -0.036 A 
HETATM   18  C16 UNL     1      21.495   1.216  48.551  1.00  0.00     0.011 A 
HETATM   19  C17 UNL     1      22.198   2.335  47.970  1.00  0.00     0.002 A 
HETATM   20  C18 UNL     1      22.762   2.552  49.135  1.00  0.00     0.011 A 
ENDBRANCH  16  17
ENDBRANCH  12  15
BRANCH   1  21
HETATM   21  C2  UNL     1      20.118  -1.058  53.900  1.00  0.00     0.133 C 
BRANCH  21  22
HETATM   22  N1  UNL     1      20.729  -0.216  54.943  1.00  0.00    -0.367 N 
HETATM   23  H2  UNL     1      20.851   0.533  55.688  1.00  0.00     0.161 HD
BRANCH  22  24
HETATM   24  C1  UNL     1      22.086  -0.703  55.134  1.00  0.00     0.348 C 
HETATM   25  O1  UNL     1      22.643  -1.785  55.541  1.00  0.00    -0.284 OA
ENDBRANCH  22  24
ENDBRANCH  21  22
ENDBRANCH   1  21
TORSDOF 5
ENDMDL
MODEL 8
REMARK VINA RESULT:      -6.7      3.154      6.482
REMARK  5 active torsions:
REMARK  status: ('A' for Active; 'I' for Inactive)
REMARK    1  A    between atoms: C1_2  and  N1_3 
REMARK    2  A    between atoms: N1_3  and  C2_4 
REMARK    3  A    between atoms: C2_4  and  C3_5 
REMARK    4  A    between atoms: C12_16  and  C13_17 
REMARK    5  A    between atoms: C14_18  and  C15_19 
ROOT
HETATM    1  C3  UNL     1      22.999   1.478  52.453  1.00  0.00     0.065 C 
HETATM    2  C4  UNL     1      24.313   0.771  52.661  1.00  0.00    -0.023 A 
HETATM    3  C5  UNL     1      25.376   1.103  51.868  1.00  0.00     0.010 A 
HETATM    4  C6  UNL     1      26.609   0.537  51.977  1.00  0.00     0.001 A 
HETATM    5  C7  UNL     1      26.859  -0.430  52.921  1.00  0.00     0.002 A 
HETATM    6  C8  UNL     1      25.825  -0.788  53.729  1.00  0.00     0.030 A 
HETATM    7  C9  UNL     1      24.565  -0.218  53.626  1.00  0.00     0.038 A 
HETATM    8  N2  UNL     1      23.878  -0.927  54.686  1.00  0.00    -0.364 N 
HETATM    9  C10 UNL     1      22.451  -1.134  54.806  1.00  0.00     0.105 C 
HETATM   10  C11 UNL     1      21.372  -0.931  54.032  1.00  0.00     0.100 C 
HETATM   11  N3  UNL     1      21.354  -0.381  52.714  1.00  0.00    -0.389 N 
HETATM   12  C12 UNL     1      22.021   0.538  51.830  1.00  0.00     0.114 C 
HETATM   13  H10 UNL     1      24.445  -1.326  55.435  1.00  0.00     0.165 HD
HETATM   14  H13 UNL     1      20.547  -0.819  52.166  1.00  0.00     0.159 HD
ENDROOT
BRANCH  12  15
HETATM   15  C13 UNL     1      21.019   1.212  51.015  1.00  0.00    -0.001 C 
HETATM   16  C14 UNL     1      19.744   1.386  50.710  1.00  0.00     0.009 C 
BRANCH  16  17
HETATM   17  C15 UNL     1      18.539   0.794  51.236  1.00  0.00    -0.036 A 
HETATM   18  C16 UNL     1      17.327   1.225  51.471  1.00  0.00     0.011 A 
HETATM   19  C17 UNL     1      16.917  -0.069  51.962  1.00  0.00     0.002 A 
HETATM   20  C18 UNL     1      18.130  -0.513  51.728  1.00  0.00     0.011 A 
ENDBRANCH  16  17
ENDBRANCH  12  15
BRANCH   1  21
HETATM   21  C2  UNL     1      23.252   2.660  51.580  1.00  0.00     0.133 C 
BRANCH  21  22
HETATM   22  N1  UNL     1      23.167   3.955  52.276  1.00  0.00    -0.367 N 
HETATM   23  H2  UNL     1      23.061   4.676  53.050  1.00  0.00     0.161 HD
BRANCH  22  24
HETATM   24  C1  UNL     1      23.367   4.986  51.269  1.00  0.00     0.348 C 
HETATM   25  O1  UNL     1      23.203   6.256  51.186  1.00  0.00    -0.284 OA
ENDBRANCH  22  24
ENDBRANCH  21  22
ENDBRANCH   1  21
TORSDOF 5
ENDMDL
MODEL 9
REMARK VINA RESULT:      -6.7      2.924      4.724
REMARK  5 active torsions:
REMARK  status: ('A' for Active; 'I' for Inactive)
REMARK    1  A    between atoms: C1_2  and  N1_3 
REMARK    2  A    between atoms: N1_3  and  C2_4 
REMARK    3  A    between atoms: C2_4  and  C3_5 
REMARK    4  A    between atoms: C12_16  and  C13_17 
REMARK    5  A    between atoms: C14_18  and  C15_19 
ROOT
HETATM    1  C3  UNL     1      23.332   2.023  51.603  1.00  0.00     0.065 C 
HETATM    2  C4  UNL     1      24.344   1.139  52.283  1.00  0.00    -0.023 A 
HETATM    3  C5  UNL     1      23.928   0.299  53.277  1.00  0.00     0.010 A 
HETATM    4  C6  UNL     1      24.754  -0.550  53.949  1.00  0.00     0.001 A 
HETATM    5  C7  UNL     1      26.095  -0.609  53.652  1.00  0.00     0.002 A 
HETATM    6  C8  UNL     1      26.547   0.213  52.667  1.00  0.00     0.030 A 
HETATM    7  C9  UNL     1      25.714   1.082  51.977  1.00  0.00     0.038 A 
HETATM    8  N2  UNL     1      26.670   1.685  51.072  1.00  0.00    -0.364 N 
HETATM    9  C10 UNL     1      26.549   2.970  50.417  1.00  0.00     0.105 C 
HETATM   10  C11 UNL     1      25.720   4.024  50.490  1.00  0.00     0.100 C 
HETATM   11  N3  UNL     1      24.589   4.165  51.350  1.00  0.00    -0.389 N 
HETATM   12  C12 UNL     1      23.545   3.440  52.025  1.00  0.00     0.114 C 
HETATM   13  H10 UNL     1      27.522   1.163  50.864  1.00  0.00     0.165 HD
HETATM   14  H13 UNL     1      24.469   5.197  51.601  1.00  0.00     0.159 HD
ENDROOT
BRANCH  12  15
HETATM   15  C13 UNL     1      22.326   4.237  51.992  1.00  0.00    -0.001 C 
HETATM   16  C14 UNL     1      21.713   5.345  51.611  1.00  0.00     0.009 C 
BRANCH  16  17
HETATM   17  C15 UNL     1      22.174   6.497  50.876  1.00  0.00    -0.036 A 
HETATM   18  C16 UNL     1      21.707   7.201  49.878  1.00  0.00     0.011 A 
HETATM   19  C17 UNL     1      22.855   8.075  49.903  1.00  0.00     0.002 A 
HETATM   20  C18 UNL     1      23.333   7.376  50.906  1.00  0.00     0.011 A 
ENDBRANCH  16  17
ENDBRANCH  12  15
BRANCH   1  21
HETATM   21  C2  UNL     1      21.975   1.538  51.987  1.00  0.00     0.133 C 
BRANCH  21  22
HETATM   22  N1  UNL     1      21.332   0.680  50.977  1.00  0.00    -0.367 N 
HETATM   23  H2  UNL     1      20.732  -0.081  50.538  1.00  0.00     0.161 HD
BRANCH  22  24
HETATM   24  C1  UNL     1      21.773   1.159  49.676  1.00  0.00     0.348 C 
HETATM   25  O1  UNL     1      21.265   1.285  48.505  1.00  0.00    -0.284 OA
ENDBRANCH  22  24
ENDBRANCH  21  22
ENDBRANCH   1  21
TORSDOF 5
ENDMDL
