MODEL 1
REMARK VINA RESULT:     -10.0      0.000      0.000
REMARK  3 active torsions:
REMARK  status: ('A' for Active; 'I' for Inactive)
REMARK    1  A    between atoms: O1_2  and  C2_3 
REMARK    2  A    between atoms: C10_12  and  N2_13 
REMARK    3  A    between atoms: N2_13  and  C11_14 
ROOT
HETATM    1  C2  UNL     1      26.354  -0.913  53.059  1.00  0.00     0.069 A 
HETATM    2  C3  UNL     1      25.130  -0.808  53.675  1.00  0.00     0.039 A 
HETATM    3  C4  UNL     1      24.399   0.359  53.605  1.00  0.00     0.040 A 
HETATM    4  C5  UNL     1      24.895   1.447  52.907  1.00  0.00     0.086 A 
HETATM    5  C6  UNL     1      26.136   1.390  52.262  1.00  0.00    -0.004 A 
HETATM    6  C7  UNL     1      26.839   0.184  52.363  1.00  0.00     0.048 A 
HETATM    7  C8  UNL     1      26.916   2.366  51.455  1.00  0.00     0.161 C 
HETATM    8  N1  UNL     1      26.078   3.177  50.588  1.00  0.00    -0.379 N 
HETATM    9  C9  UNL     1      24.900   3.833  51.007  1.00  0.00     0.129 A 
HETATM   10  C10 UNL     1      24.636   4.937  50.222  1.00  0.00     0.160 A 
HETATM   11  N3  UNL     1      23.575   5.728  50.414  1.00  0.00    -0.222 NA
HETATM   12  C23 UNL     1      22.699   5.478  51.402  1.00  0.00     0.238 A 
HETATM   13  N4  UNL     1      22.909   4.416  52.198  1.00  0.00    -0.215 NA
HETATM   14  C24 UNL     1      23.975   3.622  52.004  1.00  0.00     0.202 A 
HETATM   15  O2  UNL     1      24.042   2.556  52.925  1.00  0.00    -0.289 OA
HETATM   16  H9  UNL     1      26.246   3.362  49.575  1.00  0.00     0.160 HD
ENDROOT
BRANCH  10  17
HETATM   17  N2  UNL     1      25.452   5.352  49.137  1.00  0.00    -0.339 N 
HETATM   18  H10 UNL     1      25.705   5.142  48.150  1.00  0.00     0.167 HD
BRANCH  17  19
HETATM   19  C11 UNL     1      26.353   6.421  49.110  1.00  0.00     0.034 C 
HETATM   20  C12 UNL     1      26.036   7.538  49.763  1.00  0.00     0.029 C 
HETATM   21  C13 UNL     1      26.849   8.748  50.083  1.00  0.00     0.003 C 
HETATM   22  C14 UNL     1      28.092   9.204  49.749  1.00  0.00     0.011 C 
HETATM   23  C15 UNL     1      28.883   8.672  48.570  1.00  0.00    -0.035 C 
HETATM   24  C16 UNL     1      28.592   8.211  47.274  1.00  0.00     0.022 C 
HETATM   25  C22 UNL     1      30.221   8.684  49.286  1.00  0.00     0.011 C 
HETATM   26  C17 UNL     1      28.488   6.768  47.813  1.00  0.00    -0.033 C 
HETATM   27  C18 UNL     1      27.513   5.920  48.290  1.00  0.00     0.041 C 
HETATM   28  C19 UNL     1      29.626   5.798  48.084  1.00  0.00     0.011 C 
HETATM   29  C20 UNL     1      30.830   6.296  48.509  1.00  0.00     0.001 C 
HETATM   30  C21 UNL     1      31.107   7.661  49.073  1.00  0.00     0.001 C 
ENDBRANCH  17  19
ENDBRANCH  10  17
BRANCH   1  31
HETATM   31  O1  UNL     1      27.160  -2.033  53.070  1.00  0.00    -0.356 OA
HETATM   32  C1  UNL     1      28.573  -1.972  53.058  1.00  0.00     0.210 C 
ENDBRANCH   1  31
TORSDOF 3
ENDMDL
MODEL 2
REMARK VINA RESULT:      -9.8      2.899      7.947
REMARK  3 active torsions:
REMARK  status: ('A' for Active; 'I' for Inactive)
REMARK    1  A    between atoms: O1_2  and  C2_3 
REMARK    2  A    between atoms: C10_12  and  N2_13 
REMARK    3  A    between atoms: N2_13  and  C11_14 
ROOT
HETATM    1  C2  UNL     1      31.771   8.014  48.922  1.00  0.00     0.069 A 
HETATM    2  C3  UNL     1      31.102   9.193  49.151  1.00  0.00     0.039 A 
HETATM    3  C4  UNL     1      29.728   9.254  49.069  1.00  0.00     0.040 A 
HETATM    4  C5  UNL     1      29.000   8.118  48.753  1.00  0.00     0.086 A 
HETATM    5  C6  UNL     1      29.635   6.895  48.512  1.00  0.00    -0.004 A 
HETATM    6  C7  UNL     1      31.032   6.885  48.607  1.00  0.00     0.048 A 
HETATM    7  C8  UNL     1      29.141   5.537  48.159  1.00  0.00     0.161 C 
HETATM    8  N1  UNL     1      27.906   5.192  48.844  1.00  0.00    -0.379 N 
HETATM    9  C9  UNL     1      26.778   6.036  48.923  1.00  0.00     0.129 A 
HETATM   10  C10 UNL     1      25.618   5.308  49.090  1.00  0.00     0.160 A 
HETATM   11  N3  UNL     1      24.412   5.875  49.193  1.00  0.00    -0.222 NA
HETATM   12  C23 UNL     1      24.271   7.210  49.137  1.00  0.00     0.238 A 
HETATM   13  N4  UNL     1      25.368   7.968  48.975  1.00  0.00    -0.215 NA
HETATM   14  C24 UNL     1      26.580   7.398  48.871  1.00  0.00     0.202 A 
HETATM   15  O2  UNL     1      27.619   8.336  48.707  1.00  0.00    -0.289 OA
HETATM   16  H9  UNL     1      27.717   4.299  49.349  1.00  0.00     0.160 HD
ENDROOT
BRANCH  10  17
HETATM   17  N2  UNL     1      25.576   3.891  49.168  1.00  0.00    -0.339 N 
HETATM   18  H10 UNL     1      25.840   3.016  48.672  1.00  0.00     0.167 HD
BRANCH  17  19
HETATM   19  C11 UNL     1      25.028   3.111  50.191  1.00  0.00     0.034 C 
HETATM   20  C12 UNL     1      23.715   2.888  50.190  1.00  0.00     0.029 C 
HETATM   21  C13 UNL     1      22.878   1.960  51.006  1.00  0.00     0.003 C 
HETATM   22  C14 UNL     1      23.095   1.139  52.076  1.00  0.00     0.011 C 
HETATM   23  C15 UNL     1      24.302   1.259  52.985  1.00  0.00    -0.035 C 
HETATM   24  C16 UNL     1      25.090   2.304  53.499  1.00  0.00     0.022 C 
HETATM   25  C22 UNL     1      24.512  -0.237  53.130  1.00  0.00     0.011 C 
HETATM   26  C17 UNL     1      26.049   2.168  52.297  1.00  0.00    -0.033 C 
HETATM   27  C18 UNL     1      26.207   2.719  51.043  1.00  0.00     0.041 C 
HETATM   28  C19 UNL     1      27.184   1.172  52.127  1.00  0.00     0.011 C 
HETATM   29  C20 UNL     1      27.050  -0.078  52.673  1.00  0.00     0.001 C 
HETATM   30  C21 UNL     1      25.787  -0.738  53.149  1.00  0.00     0.001 C 
ENDBRANCH  17  19
ENDBRANCH  10  17
BRANCH   1  31
HETATM   31  O1  UNL     1      33.140   7.849  48.980  1.00  0.00    -0.356 OA
HETATM   32  C1  UNL     1      33.821   6.782  48.348  1.00  0.00     0.210 C 
ENDBRANCH   1  31
TORSDOF 3
ENDMDL
MODEL 3
REMARK VINA RESULT:      -9.8      2.666      4.057
REMARK  3 active torsions:
REMARK  status: ('A' for Active; 'I' for Inactive)
REMARK    1  A    between atoms: O1_2  and  C2_3 
REMARK    2  A    between atoms: C10_12  and  N2_13 
REMARK    3  A    between atoms: N2_13  and  C11_14 
ROOT
HETATM    1  C2  UNL     1      19.845   0.502  52.500  1.00  0.00     0.069 A 
HETATM    2  C3  UNL     1      20.473   0.183  53.680  1.00  0.00     0.039 A 
HETATM    3  C4  UNL     1      21.844   0.265  53.796  1.00  0.00     0.040 A 
HETATM    4  C5  UNL     1      22.609   0.674  52.717  1.00  0.00     0.086 A 
HETATM    5  C6  UNL     1      22.016   1.010  51.495  1.00  0.00    -0.004 A 
HETATM    6  C7  UNL     1      20.622   0.910  51.427  1.00  0.00     0.048 A 
HETATM    7  C8  UNL     1      22.556   1.472  50.188  1.00  0.00     0.161 C 
HETATM    8  N1  UNL     1      23.670   2.394  50.333  1.00  0.00    -0.379 N 
HETATM    9  C9  UNL     1      24.775   2.179  51.185  1.00  0.00     0.129 A 
HETATM   10  C10 UNL     1      25.893   2.847  50.733  1.00  0.00     0.160 A 
HETATM   11  N3  UNL     1      27.071   2.805  51.365  1.00  0.00    -0.222 NA
HETATM   12  C23 UNL     1      27.221   2.093  52.494  1.00  0.00     0.238 A 
HETATM   13  N4  UNL     1      26.163   1.422  52.980  1.00  0.00    -0.215 NA
HETATM   14  C24 UNL     1      24.981   1.465  52.344  1.00  0.00     0.202 A 
HETATM   15  O2  UNL     1      23.981   0.707  52.987  1.00  0.00    -0.289 OA
HETATM   16  H9  UNL     1      23.778   3.304  49.835  1.00  0.00     0.160 HD
ENDROOT
BRANCH  10  17
HETATM   17  N2  UNL     1      25.920   3.645  49.558  1.00  0.00    -0.339 N 
HETATM   18  H10 UNL     1      25.817   3.617  48.523  1.00  0.00     0.167 HD
BRANCH  17  19
HETATM   19  C11 UNL     1      26.153   5.020  49.469  1.00  0.00     0.034 C 
HETATM   20  C12 UNL     1      25.401   5.843  50.199  1.00  0.00     0.029 C 
HETATM   21  C13 UNL     1      25.530   7.305  50.470  1.00  0.00     0.003 C 
HETATM   22  C14 UNL     1      26.326   8.315  50.010  1.00  0.00     0.011 C 
HETATM   23  C15 UNL     1      27.126   8.224  48.725  1.00  0.00    -0.035 C 
HETATM   24  C16 UNL     1      26.949   7.648  47.455  1.00  0.00     0.022 C 
HETATM   25  C22 UNL     1      28.354   8.924  49.279  1.00  0.00     0.011 C 
HETATM   26  C17 UNL     1      27.649   6.362  47.943  1.00  0.00    -0.033 C 
HETATM   27  C18 UNL     1      27.298   5.150  48.498  1.00  0.00     0.041 C 
HETATM   28  C19 UNL     1      29.143   6.101  48.039  1.00  0.00     0.011 C 
HETATM   29  C20 UNL     1      29.977   7.147  48.339  1.00  0.00     0.001 C 
HETATM   30  C21 UNL     1      29.599   8.479  48.921  1.00  0.00     0.001 C 
ENDBRANCH  17  19
ENDBRANCH  10  17
BRANCH   1  31
HETATM   31  O1  UNL     1      18.482   0.454  52.282  1.00  0.00    -0.356 OA
HETATM   32  C1  UNL     1      17.885  -0.344  51.279  1.00  0.00     0.210 C 
ENDBRANCH   1  31
TORSDOF 3
ENDMDL
MODEL 4
REMARK VINA RESULT:      -9.8      1.989      2.820
REMARK  3 active torsions:
REMARK  status: ('A' for Active; 'I' for Inactive)
REMARK    1  A    between atoms: O1_2  and  C2_3 
REMARK    2  A    between atoms: C10_12  and  N2_13 
REMARK    3  A    between atoms: N2_13  and  C11_14 
ROOT
HETATM    1  C2  UNL     1      27.738  -0.881  53.470  1.00  0.00     0.069 A 
HETATM    2  C3  UNL     1      26.756  -1.718  52.997  1.00  0.00     0.039 A 
HETATM    3  C4  UNL     1      25.475  -1.255  52.781  1.00  0.00     0.040 A 
HETATM    4  C5  UNL     1      25.162   0.069  53.041  1.00  0.00     0.086 A 
HETATM    5  C6  UNL     1      26.128   0.960  53.524  1.00  0.00    -0.004 A 
HETATM    6  C7  UNL     1      27.412   0.442  53.726  1.00  0.00     0.048 A 
HETATM    7  C8  UNL     1      26.098   2.401  53.889  1.00  0.00     0.161 C 
HETATM    8  N1  UNL     1      25.270   3.192  52.994  1.00  0.00    -0.379 N 
HETATM    9  C9  UNL     1      23.961   2.837  52.601  1.00  0.00     0.129 A 
HETATM   10  C10 UNL     1      23.221   3.951  52.262  1.00  0.00     0.160 A 
HETATM   11  N3  UNL     1      21.949   3.882  51.855  1.00  0.00    -0.222 NA
HETATM   12  C23 UNL     1      21.320   2.699  51.755  1.00  0.00     0.238 A 
HETATM   13  N4  UNL     1      21.994   1.581  52.074  1.00  0.00    -0.215 NA
HETATM   14  C24 UNL     1      23.272   1.651  52.483  1.00  0.00     0.202 A 
HETATM   15  O2  UNL     1      23.827   0.388  52.775  1.00  0.00    -0.289 OA
HETATM   16  H9  UNL     1      25.542   4.094  52.547  1.00  0.00     0.160 HD
ENDROOT
BRANCH  10  17
HETATM   17  N2  UNL     1      23.720   5.279  52.309  1.00  0.00    -0.339 N 
HETATM   18  H10 UNL     1      23.925   6.076  52.945  1.00  0.00     0.167 HD
BRANCH  17  19
HETATM   19  C11 UNL     1      24.179   6.054  51.239  1.00  0.00     0.034 C 
HETATM   20  C12 UNL     1      23.924   7.361  51.242  1.00  0.00     0.029 C 
HETATM   21  C13 UNL     1      24.435   8.460  50.371  1.00  0.00     0.003 C 
HETATM   22  C14 UNL     1      25.200   8.533  49.242  1.00  0.00     0.011 C 
HETATM   23  C15 UNL     1      25.448   7.350  48.328  1.00  0.00    -0.035 C 
HETATM   24  C16 UNL     1      24.713   6.237  47.881  1.00  0.00     0.022 C 
HETATM   25  C22 UNL     1      26.907   7.679  48.071  1.00  0.00     0.011 C 
HETATM   26  C17 UNL     1      25.265   5.403  49.057  1.00  0.00    -0.033 C 
HETATM   27  C18 UNL     1      24.899   5.078  50.345  1.00  0.00     0.041 C 
HETATM   28  C19 UNL     1      26.608   4.696  49.138  1.00  0.00     0.011 C 
HETATM   29  C20 UNL     1      27.687   5.254  48.504  1.00  0.00     0.001 C 
HETATM   30  C21 UNL     1      27.822   6.663  47.999  1.00  0.00     0.001 C 
ENDBRANCH  17  19
ENDBRANCH  10  17
BRANCH   1  31
HETATM   31  O1  UNL     1      29.046  -1.245  53.718  1.00  0.00    -0.356 OA
HETATM   32  C1  UNL     1      30.147  -0.384  53.500  1.00  0.00     0.210 C 
ENDBRANCH   1  31
TORSDOF 3
ENDMDL
MODEL 5
REMARK VINA RESULT:      -9.5      2.477      3.044
REMARK  3 active torsions:
REMARK  status: ('A' for Active; 'I' for Inactive)
REMARK    1  A    between atoms: O1_2  and  C2_3 
REMARK    2  A    between atoms: C10_12  and  N2_13 
REMARK    3  A    between atoms: N2_13  and  C11_14 
ROOT
HETATM    1  C2  UNL     1      22.539   0.537  52.522  1.00  0.00     0.069 A 
HETATM    2  C3  UNL     1      21.426   0.700  51.732  1.00  0.00     0.039 A 
HETATM    3  C4  UNL     1      21.059   1.947  51.275  1.00  0.00     0.040 A 
HETATM    4  C5  UNL     1      21.814   3.059  51.608  1.00  0.00     0.086 A 
HETATM    5  C6  UNL     1      22.956   2.945  52.409  1.00  0.00    -0.004 A 
HETATM    6  C7  UNL     1      23.287   1.658  52.849  1.00  0.00     0.048 A 
HETATM    7  C8  UNL     1      23.946   3.927  52.926  1.00  0.00     0.161 C 
HETATM    8  N1  UNL     1      24.266   4.966  51.960  1.00  0.00    -0.379 N 
HETATM    9  C9  UNL     1      23.303   5.694  51.228  1.00  0.00     0.129 A 
HETATM   10  C10 UNL     1      23.787   6.931  50.857  1.00  0.00     0.160 A 
HETATM   11  N3  UNL     1      23.068   7.812  50.154  1.00  0.00    -0.222 NA
HETATM   12  C23 UNL     1      21.814   7.525  49.767  1.00  0.00     0.238 A 
HETATM   13  N4  UNL     1      21.292   6.333  50.102  1.00  0.00    -0.215 NA
HETATM   14  C24 UNL     1      22.015   5.449  50.808  1.00  0.00     0.202 A 
HETATM   15  O2  UNL     1      21.318   4.252  51.072  1.00  0.00    -0.289 OA
HETATM   16  H9  UNL     1      25.224   5.285  51.701  1.00  0.00     0.160 HD
ENDROOT
BRANCH  10  17
HETATM   17  N2  UNL     1      25.087   7.404  51.180  1.00  0.00    -0.339 N 
HETATM   18  H10 UNL     1      25.727   7.624  51.969  1.00  0.00     0.167 HD
BRANCH  17  19
HETATM   19  C11 UNL     1      26.094   7.795  50.292  1.00  0.00     0.034 C 
HETATM   20  C12 UNL     1      26.572   9.035  50.376  1.00  0.00     0.029 C 
HETATM   21  C13 UNL     1      27.753   9.676  49.725  1.00  0.00     0.003 C 
HETATM   22  C14 UNL     1      28.654   9.310  48.766  1.00  0.00     0.011 C 
HETATM   23  C15 UNL     1      28.423   8.164  47.802  1.00  0.00    -0.035 C 
HETATM   24  C16 UNL     1      27.323   7.612  47.122  1.00  0.00     0.022 C 
HETATM   25  C22 UNL     1      29.852   7.656  47.848  1.00  0.00     0.011 C 
HETATM   26  C17 UNL     1      27.096   6.630  48.292  1.00  0.00    -0.033 C 
HETATM   27  C18 UNL     1      26.357   6.572  49.453  1.00  0.00     0.041 C 
HETATM   28  C19 UNL     1      27.813   5.314  48.546  1.00  0.00     0.011 C 
HETATM   29  C20 UNL     1      29.128   5.197  48.177  1.00  0.00     0.001 C 
HETATM   30  C21 UNL     1      30.086   6.306  47.845  1.00  0.00     0.001 C 
ENDBRANCH  17  19
ENDBRANCH  10  17
BRANCH   1  31
HETATM   31  O1  UNL     1      22.990  -0.665  53.029  1.00  0.00    -0.356 OA
HETATM   32  C1  UNL     1      22.207  -1.499  53.860  1.00  0.00     0.210 C 
ENDBRANCH   1  31
TORSDOF 3
ENDMDL
MODEL 6
REMARK VINA RESULT:      -9.1      1.128      2.487
REMARK  3 active torsions:
REMARK  status: ('A' for Active; 'I' for Inactive)
REMARK    1  A    between atoms: O1_2  and  C2_3 
REMARK    2  A    between atoms: C10_12  and  N2_13 
REMARK    3  A    between atoms: N2_13  and  C11_14 
ROOT
HETATM    1  C2  UNL     1      26.808  -0.840  53.193  1.00  0.00     0.069 A 
HETATM    2  C3  UNL     1      25.619  -0.877  53.881  1.00  0.00     0.039 A 
HETATM    3  C4  UNL     1      24.718   0.162  53.793  1.00  0.00     0.040 A 
HETATM    4  C5  UNL     1      25.004   1.264  53.005  1.00  0.00     0.086 A 
HETATM    5  C6  UNL     1      26.201   1.349  52.285  1.00  0.00    -0.004 A 
HETATM    6  C7  UNL     1      27.082   0.268  52.407  1.00  0.00     0.048 A 
HETATM    7  C8  UNL     1      26.778   2.375  51.376  1.00  0.00     0.161 C 
HETATM    8  N1  UNL     1      25.780   2.995  50.521  1.00  0.00    -0.379 N 
HETATM    9  C9  UNL     1      24.542   3.497  50.979  1.00  0.00     0.129 A 
HETATM   10  C10 UNL     1      24.071   4.496  50.152  1.00  0.00     0.160 A 
HETATM   11  N3  UNL     1      22.915   5.133  50.369  1.00  0.00    -0.222 NA
HETATM   12  C23 UNL     1      22.144   4.822  51.424  1.00  0.00     0.238 A 
HETATM   13  N4  UNL     1      22.556   3.856  52.262  1.00  0.00    -0.215 NA
HETATM   14  C24 UNL     1      23.717   3.216  52.044  1.00  0.00     0.202 A 
HETATM   15  O2  UNL     1      23.996   2.235  53.016  1.00  0.00    -0.289 OA
HETATM   16  H9  UNL     1      25.862   3.137  49.491  1.00  0.00     0.160 HD
ENDROOT
BRANCH  10  17
HETATM   17  N2  UNL     1      24.752   4.955  48.995  1.00  0.00    -0.339 N 
HETATM   18  H10 UNL     1      24.832   4.833  47.965  1.00  0.00     0.167 HD
BRANCH  17  19
HETATM   19  C11 UNL     1      25.744   5.939  48.926  1.00  0.00     0.034 C 
HETATM   20  C12 UNL     1      26.991   5.568  48.639  1.00  0.00     0.029 C 
HETATM   21  C13 UNL     1      28.201   6.377  48.305  1.00  0.00     0.003 C 
HETATM   22  C14 UNL     1      28.510   7.707  48.292  1.00  0.00     0.011 C 
HETATM   23  C15 UNL     1      27.696   8.757  49.021  1.00  0.00    -0.035 C 
HETATM   24  C16 UNL     1      26.979   8.832  50.228  1.00  0.00     0.022 C 
HETATM   25  C22 UNL     1      27.798   9.797  47.920  1.00  0.00     0.011 C 
HETATM   26  C17 UNL     1      25.695   8.397  49.489  1.00  0.00    -0.033 C 
HETATM   27  C18 UNL     1      25.020   7.229  49.207  1.00  0.00     0.041 C 
HETATM   28  C19 UNL     1      24.752   9.272  48.680  1.00  0.00     0.011 C 
HETATM   29  C20 UNL     1      25.271  10.334  47.985  1.00  0.00     0.001 C 
HETATM   30  C21 UNL     1      26.711  10.579  47.632  1.00  0.00     0.001 C 
ENDBRANCH  17  19
ENDBRANCH  10  17
BRANCH   1  31
HETATM   31  O1  UNL     1      27.774  -1.826  53.214  1.00  0.00    -0.356 OA
HETATM   32  C1  UNL     1      29.161  -1.554  53.271  1.00  0.00     0.210 C 
ENDBRANCH   1  31
TORSDOF 3
ENDMDL
MODEL 7
REMARK VINA RESULT:      -8.9      2.569      8.445
REMARK  3 active torsions:
REMARK  status: ('A' for Active; 'I' for Inactive)
REMARK    1  A    between atoms: O1_2  and  C2_3 
REMARK    2  A    between atoms: C10_12  and  N2_13 
REMARK    3  A    between atoms: N2_13  and  C11_14 
ROOT
HETATM    1  C2  UNL     1      28.403   8.677  48.866  1.00  0.00     0.069 A 
HETATM    2  C3  UNL     1      27.539   9.545  49.490  1.00  0.00     0.039 A 
HETATM    3  C4  UNL     1      26.315   9.113  49.955  1.00  0.00     0.040 A 
HETATM    4  C5  UNL     1      25.940   7.789  49.796  1.00  0.00     0.086 A 
HETATM    5  C6  UNL     1      26.785   6.867  49.168  1.00  0.00    -0.004 A 
HETATM    6  C7  UNL     1      28.016   7.355  48.714  1.00  0.00     0.048 A 
HETATM    7  C8  UNL     1      26.667   5.418  48.856  1.00  0.00     0.161 C 
HETATM    8  N1  UNL     1      26.010   4.667  49.913  1.00  0.00    -0.379 N 
HETATM    9  C9  UNL     1      24.803   5.056  50.533  1.00  0.00     0.129 A 
HETATM   10  C10 UNL     1      24.124   3.966  51.037  1.00  0.00     0.160 A 
HETATM   11  N3  UNL     1      22.953   4.070  51.672  1.00  0.00    -0.222 NA
HETATM   12  C23 UNL     1      22.370   5.267  51.854  1.00  0.00     0.238 A 
HETATM   13  N4  UNL     1      22.989   6.363  51.383  1.00  0.00    -0.215 NA
HETATM   14  C24 UNL     1      24.166   6.259  50.744  1.00  0.00     0.202 A 
HETATM   15  O2  UNL     1      24.674   7.502  50.317  1.00  0.00    -0.289 OA
HETATM   16  H9  UNL     1      26.349   3.772  50.327  1.00  0.00     0.160 HD
ENDROOT
BRANCH  10  17
HETATM   17  N2  UNL     1      24.587   2.628  50.936  1.00  0.00    -0.339 N 
HETATM   18  H10 UNL     1      24.731   1.838  50.274  1.00  0.00     0.167 HD
BRANCH  17  19
HETATM   19  C11 UNL     1      25.096   1.824  51.961  1.00  0.00     0.034 C 
HETATM   20  C12 UNL     1      26.215   2.206  52.574  1.00  0.00     0.029 C 
HETATM   21  C13 UNL     1      26.884   1.686  53.803  1.00  0.00     0.003 C 
HETATM   22  C14 UNL     1      26.697   0.622  54.638  1.00  0.00     0.011 C 
HETATM   23  C15 UNL     1      25.876  -0.596  54.262  1.00  0.00    -0.035 C 
HETATM   24  C16 UNL     1      25.637  -1.341  53.094  1.00  0.00     0.022 C 
HETATM   25  C22 UNL     1      25.233  -0.754  55.628  1.00  0.00     0.011 C 
HETATM   26  C17 UNL     1      24.408  -0.458  52.786  1.00  0.00    -0.033 C 
HETATM   27  C18 UNL     1      24.119   0.683  52.070  1.00  0.00     0.041 C 
HETATM   28  C19 UNL     1      23.007  -0.591  53.359  1.00  0.00     0.011 C 
HETATM   29  C20 UNL     1      22.861  -1.043  54.645  1.00  0.00     0.001 C 
HETATM   30  C21 UNL     1      23.916  -1.121  55.712  1.00  0.00     0.001 C 
ENDBRANCH  17  19
ENDBRANCH  10  17
BRANCH   1  31
HETATM   31  O1  UNL     1      29.646   9.010  48.368  1.00  0.00    -0.356 OA
HETATM   32  C1  UNL     1      29.852  10.033  47.413  1.00  0.00     0.210 C 
ENDBRANCH   1  31
TORSDOF 3
ENDMDL
MODEL 8
REMARK VINA RESULT:      -8.9      3.532      5.200
REMARK  3 active torsions:
REMARK  status: ('A' for Active; 'I' for Inactive)
REMARK    1  A    between atoms: O1_2  and  C2_3 
REMARK    2  A    between atoms: C10_12  and  N2_13 
REMARK    3  A    between atoms: N2_13  and  C11_14 
ROOT
HETATM    1  C2  UNL     1      18.550  -0.202  51.834  1.00  0.00     0.069 A 
HETATM    2  C3  UNL     1      19.015  -0.344  53.120  1.00  0.00     0.039 A 
HETATM    3  C4  UNL     1      20.337  -0.099  53.426  1.00  0.00     0.040 A 
HETATM    4  C5  UNL     1      21.217   0.297  52.433  1.00  0.00     0.086 A 
HETATM    5  C6  UNL     1      20.792   0.456  51.109  1.00  0.00    -0.004 A 
HETATM    6  C7  UNL     1      19.441   0.195  50.850  1.00  0.00     0.048 A 
HETATM    7  C8  UNL     1      21.481   0.859  49.854  1.00  0.00     0.161 C 
HETATM    8  N1  UNL     1      22.463   1.909  50.063  1.00  0.00    -0.379 N 
HETATM    9  C9  UNL     1      23.438   1.895  51.085  1.00  0.00     0.129 A 
HETATM   10  C10 UNL     1      24.543   2.642  50.733  1.00  0.00     0.160 A 
HETATM   11  N3  UNL     1      25.606   2.788  51.531  1.00  0.00    -0.222 NA
HETATM   12  C23 UNL     1      25.647   2.199  52.738  1.00  0.00     0.238 A 
HETATM   13  N4  UNL     1      24.597   1.459  53.131  1.00  0.00    -0.215 NA
HETATM   14  C24 UNL     1      23.529   1.313  52.329  1.00  0.00     0.202 A 
HETATM   15  O2  UNL     1      22.521   0.507  52.895  1.00  0.00    -0.289 OA
HETATM   16  H9  UNL     1      22.558   2.778  49.495  1.00  0.00     0.160 HD
ENDROOT
BRANCH  10  17
HETATM   17  N2  UNL     1      24.674   3.331  49.498  1.00  0.00    -0.339 N 
HETATM   18  H10 UNL     1      24.299   3.396  48.531  1.00  0.00     0.167 HD
BRANCH  17  19
HETATM   19  C11 UNL     1      25.571   4.358  49.189  1.00  0.00     0.034 C 
HETATM   20  C12 UNL     1      26.871   4.074  49.133  1.00  0.00     0.029 C 
HETATM   21  C13 UNL     1      28.030   4.881  48.647  1.00  0.00     0.003 C 
HETATM   22  C14 UNL     1      28.213   6.167  48.226  1.00  0.00     0.011 C 
HETATM   23  C15 UNL     1      27.228   7.283  48.511  1.00  0.00    -0.035 C 
HETATM   24  C16 UNL     1      26.377   7.644  49.571  1.00  0.00     0.022 C 
HETATM   25  C22 UNL     1      27.354   7.929  47.143  1.00  0.00     0.011 C 
HETATM   26  C17 UNL     1      25.230   6.843  48.919  1.00  0.00    -0.033 C 
HETATM   27  C18 UNL     1      24.703   5.571  48.981  1.00  0.00     0.041 C 
HETATM   28  C19 UNL     1      24.305   7.295  47.800  1.00  0.00     0.011 C 
HETATM   29  C20 UNL     1      24.797   8.140  46.840  1.00  0.00     0.001 C 
HETATM   30  C21 UNL     1      26.237   8.439  46.536  1.00  0.00     0.001 C 
ENDBRANCH  17  19
ENDBRANCH  10  17
BRANCH   1  31
HETATM   31  O1  UNL     1      17.250  -0.422  51.427  1.00  0.00    -0.356 OA
HETATM   32  C1  UNL     1      16.150   0.330  51.901  1.00  0.00     0.210 C 
ENDBRANCH   1  31
TORSDOF 3
ENDMDL
MODEL 9
REMARK VINA RESULT:      -8.9      3.278      8.443
REMARK  3 active torsions:
REMARK  status: ('A' for Active; 'I' for Inactive)
REMARK    1  A    between atoms: O1_2  and  C2_3 
REMARK    2  A    between atoms: C10_12  and  N2_13 
REMARK    3  A    between atoms: N2_13  and  C11_14 
ROOT
HETATM    1  C2  UNL     1      31.481   7.732  48.031  1.00  0.00     0.069 A 
HETATM    2  C3  UNL     1      30.971   8.978  48.304  1.00  0.00     0.039 A 
HETATM    3  C4  UNL     1      29.629   9.152  48.566  1.00  0.00     0.040 A 
HETATM    4  C5  UNL     1      28.773   8.063  48.558  1.00  0.00     0.086 A 
HETATM    5  C6  UNL     1      29.245   6.773  48.286  1.00  0.00    -0.004 A 
HETATM    6  C7  UNL     1      30.615   6.650  48.026  1.00  0.00     0.048 A 
HETATM    7  C8  UNL     1      28.591   5.440  48.206  1.00  0.00     0.161 C 
HETATM    8  N1  UNL     1      27.557   5.258  49.212  1.00  0.00    -0.379 N 
HETATM    9  C9  UNL     1      26.544   6.201  49.489  1.00  0.00     0.129 A 
HETATM   10  C10 UNL     1      25.423   5.592  50.014  1.00  0.00     0.160 A 
HETATM   11  N3  UNL     1      24.324   6.268  50.362  1.00  0.00    -0.222 NA
HETATM   12  C23 UNL     1      24.258   7.601  50.212  1.00  0.00     0.238 A 
HETATM   13  N4  UNL     1      25.322   8.246  49.704  1.00  0.00    -0.215 NA
HETATM   14  C24 UNL     1      26.426   7.567  49.354  1.00  0.00     0.202 A 
HETATM   15  O2  UNL     1      27.444   8.395  48.841  1.00  0.00    -0.289 OA
HETATM   16  H9  UNL     1      27.449   4.428  49.833  1.00  0.00     0.160 HD
ENDROOT
BRANCH  10  17
HETATM   17  N2  UNL     1      25.313   4.194  50.241  1.00  0.00    -0.339 N 
HETATM   18  H10 UNL     1      25.858   3.333  50.448  1.00  0.00     0.167 HD
BRANCH  17  19
HETATM   19  C11 UNL     1      24.147   3.422  50.241  1.00  0.00     0.034 C 
HETATM   20  C12 UNL     1      23.546   3.174  49.078  1.00  0.00     0.029 C 
HETATM   21  C13 UNL     1      22.431   2.245  48.731  1.00  0.00     0.003 C 
HETATM   22  C14 UNL     1      21.574   1.446  49.433  1.00  0.00     0.011 C 
HETATM   23  C15 UNL     1      21.320   1.603  50.919  1.00  0.00    -0.035 C 
HETATM   24  C16 UNL     1      21.231   2.672  51.829  1.00  0.00     0.022 C 
HETATM   25  C22 UNL     1      21.277   0.114  51.209  1.00  0.00     0.011 C 
HETATM   26  C17 UNL     1      22.737   2.534  52.135  1.00  0.00    -0.033 C 
HETATM   27  C18 UNL     1      23.928   3.066  51.688  1.00  0.00     0.041 C 
HETATM   28  C19 UNL     1      23.402   1.556  53.090  1.00  0.00     0.011 C 
HETATM   29  C20 UNL     1      22.847   0.313  53.252  1.00  0.00     0.001 C 
HETATM   30  C21 UNL     1      21.842  -0.362  52.363  1.00  0.00     0.001 C 
ENDBRANCH  17  19
ENDBRANCH  10  17
BRANCH   1  31
HETATM   31  O1  UNL     1      32.805   7.454  47.757  1.00  0.00    -0.356 OA
HETATM   32  C1  UNL     1      33.251   6.948  46.514  1.00  0.00     0.210 C 
ENDBRANCH   1  31
TORSDOF 3
ENDMDL
