MODEL 1
REMARK VINA RESULT:      -7.7      0.000      0.000
REMARK  2 active torsions:
REMARK  status: ('A' for Active; 'I' for Inactive)
REMARK    1  A    between atoms: O1_2  and  C2_3 
REMARK    2  A    between atoms: N4_15  and  C11_16 
ROOT
HETATM    1  C2  UNL     1      22.764  -0.540  54.402  1.00  0.00     0.049 C 
HETATM    2  C3  UNL     1      22.001   0.262  53.613  1.00  0.00     0.012 C 
HETATM    3  C4  UNL     1      22.337   1.484  52.707  1.00  0.00     0.088 C 
HETATM    4  C5  UNL     1      23.788   1.744  52.921  1.00  0.00     0.038 C 
HETATM    5  C6  UNL     1      24.838   2.512  53.419  1.00  0.00     0.030 C 
HETATM    6  C7  UNL     1      26.131   1.705  53.001  1.00  0.00     0.176 C 
HETATM    7  C8  UNL     1      25.357   0.463  52.816  1.00  0.00     0.151 C 
HETATM    8  N1  UNL     1      24.142   0.330  52.470  1.00  0.00    -0.236 NA
HETATM    9  N2  UNL     1      25.761  -0.814  53.437  1.00  0.00    -0.217 NA
HETATM   10  C9  UNL     1      25.237  -0.431  54.712  1.00  0.00     0.122 C 
HETATM   11  C10 UNL     1      23.992  -1.086  55.073  1.00  0.00     0.143 C 
HETATM   12  N3  UNL     1      26.204   0.598  55.081  1.00  0.00    -0.305 N 
HETATM   13  N4  UNL     1      26.854   1.579  54.271  1.00  0.00    -0.206 NA
HETATM   14  H11 UNL     1      26.256   0.407  56.133  1.00  0.00     0.182 HD
ENDROOT
BRANCH  13  15
HETATM   15  C11 UNL     1      28.239   1.301  54.147  1.00  0.00     0.110 A 
HETATM   16  C12 UNL     1      28.790   0.197  54.936  1.00  0.00     0.014 A 
HETATM   17  C13 UNL     1      29.209  -0.534  53.914  1.00  0.00     0.011 A 
HETATM   18 CL1  UNL     1      30.008  -2.031  53.432  1.00  0.00    -0.089 Cl
HETATM   19  C14 UNL     1      28.714   0.499  52.972  1.00  0.00     0.076 A 
ENDBRANCH  13  15
BRANCH   1  20
HETATM   20  O1  UNL     1      21.772  -1.427  54.916  1.00  0.00    -0.360 OA
HETATM   21  C1  UNL     1      20.534  -1.582  54.236  1.00  0.00     0.209 C 
ENDBRANCH   1  20
TORSDOF 2
ENDMDL
MODEL 2
REMARK VINA RESULT:      -7.6      3.833      6.003
REMARK  2 active torsions:
REMARK  status: ('A' for Active; 'I' for Inactive)
REMARK    1  A    between atoms: O1_2  and  C2_3 
REMARK    2  A    between atoms: N4_15  and  C11_16 
ROOT
HETATM    1  C2  UNL     1      28.430   0.245  53.473  1.00  0.00     0.049 C 
HETATM    2  C3  UNL     1      28.000  -1.030  53.282  1.00  0.00     0.012 C 
HETATM    3  C4  UNL     1      26.647  -1.628  52.794  1.00  0.00     0.088 C 
HETATM    4  C5  UNL     1      25.739  -0.459  52.627  1.00  0.00     0.038 C 
HETATM    5  C6  UNL     1      24.641   0.307  53.010  1.00  0.00     0.030 C 
HETATM    6  C7  UNL     1      24.622   1.492  51.964  1.00  0.00     0.176 C 
HETATM    7  C8  UNL     1      26.037   1.270  51.612  1.00  0.00     0.151 C 
HETATM    8  N1  UNL     1      26.699   0.187  51.633  1.00  0.00    -0.236 NA
HETATM    9  N2  UNL     1      27.024   2.368  51.601  1.00  0.00    -0.217 NA
HETATM   10  C9  UNL     1      27.159   2.345  53.025  1.00  0.00     0.122 C 
HETATM   11  C10 UNL     1      28.393   1.747  53.503  1.00  0.00     0.143 C 
HETATM   12  N3  UNL     1      25.859   2.885  53.409  1.00  0.00    -0.305 N 
HETATM   13  N4  UNL     1      24.571   2.679  52.826  1.00  0.00    -0.206 NA
HETATM   14  H11 UNL     1      26.162   3.458  54.260  1.00  0.00     0.182 HD
ENDROOT
BRANCH  13  15
HETATM   15  C11 UNL     1      24.101   3.858  52.194  1.00  0.00     0.110 A 
HETATM   16  C12 UNL     1      23.312   3.710  50.968  1.00  0.00     0.014 A 
HETATM   17  C13 UNL     1      22.208   4.284  51.420  1.00  0.00     0.011 A 
HETATM   18 CL1  UNL     1      20.554   4.757  51.030  1.00  0.00    -0.089 Cl
HETATM   19  C14 UNL     1      22.867   4.522  52.728  1.00  0.00     0.076 A 
ENDBRANCH  13  15
BRANCH   1  20
HETATM   20  O1  UNL     1      29.761   0.010  53.930  1.00  0.00    -0.360 OA
HETATM   21  C1  UNL     1      30.308  -1.301  53.887  1.00  0.00     0.209 C 
ENDBRANCH   1  20
TORSDOF 2
ENDMDL
MODEL 3
REMARK VINA RESULT:      -7.6      3.075      4.149
REMARK  2 active torsions:
REMARK  status: ('A' for Active; 'I' for Inactive)
REMARK    1  A    between atoms: O1_2  and  C2_3 
REMARK    2  A    between atoms: N4_15  and  C11_16 
ROOT
HETATM    1  C2  UNL     1      23.257   4.644  51.613  1.00  0.00     0.049 C 
HETATM    2  C3  UNL     1      23.450   4.737  50.271  1.00  0.00     0.012 C 
HETATM    3  C4  UNL     1      24.436   4.032  49.293  1.00  0.00     0.088 C 
HETATM    4  C5  UNL     1      25.315   3.195  50.157  1.00  0.00     0.038 C 
HETATM    5  C6  UNL     1      26.545   2.908  50.745  1.00  0.00     0.030 C 
HETATM    6  C7  UNL     1      26.266   1.599  51.585  1.00  0.00     0.176 C 
HETATM    7  C8  UNL     1      24.813   1.848  51.586  1.00  0.00     0.151 C 
HETATM    8  N1  UNL     1      24.109   2.443  50.711  1.00  0.00    -0.236 NA
HETATM    9  N2  UNL     1      24.013   1.826  52.827  1.00  0.00    -0.217 NA
HETATM   10  C9  UNL     1      24.448   3.136  53.204  1.00  0.00     0.122 C 
HETATM   11  C10 UNL     1      23.450   4.176  53.027  1.00  0.00     0.143 C 
HETATM   12  N3  UNL     1      25.840   2.852  53.536  1.00  0.00    -0.305 N 
HETATM   13  N4  UNL     1      26.768   1.960  52.916  1.00  0.00    -0.206 NA
HETATM   14  H11 UNL     1      25.954   3.523  54.361  1.00  0.00     0.182 HD
ENDROOT
BRANCH  13  15
HETATM   15  C11 UNL     1      27.064   0.861  53.763  1.00  0.00     0.110 A 
HETATM   16  C12 UNL     1      27.481  -0.395  53.134  1.00  0.00     0.014 A 
HETATM   17  C13 UNL     1      28.676  -0.465  53.699  1.00  0.00     0.011 A 
HETATM   18 CL1  UNL     1      30.166  -1.401  53.832  1.00  0.00    -0.089 Cl
HETATM   19  C14 UNL     1      28.409   0.800  54.424  1.00  0.00     0.076 A 
ENDBRANCH  13  15
BRANCH   1  20
HETATM   20  O1  UNL     1      22.197   5.583  51.793  1.00  0.00    -0.360 OA
HETATM   21  C1  UNL     1      21.986   6.611  50.836  1.00  0.00     0.209 C 
ENDBRANCH   1  20
TORSDOF 2
ENDMDL
MODEL 4
REMARK VINA RESULT:      -7.3      3.254      5.757
REMARK  2 active torsions:
REMARK  status: ('A' for Active; 'I' for Inactive)
REMARK    1  A    between atoms: O1_2  and  C2_3 
REMARK    2  A    between atoms: N4_15  and  C11_16 
ROOT
HETATM    1  C2  UNL     1      28.454  -1.084  53.381  1.00  0.00     0.049 C 
HETATM    2  C3  UNL     1      29.406  -0.193  53.761  1.00  0.00     0.012 C 
HETATM    3  C4  UNL     1      29.375   1.342  54.022  1.00  0.00     0.088 C 
HETATM    4  C5  UNL     1      27.994   1.773  53.664  1.00  0.00     0.038 C 
HETATM    5  C6  UNL     1      27.090   2.441  52.842  1.00  0.00     0.030 C 
HETATM    6  C7  UNL     1      25.690   2.183  53.527  1.00  0.00     0.176 C 
HETATM    7  C8  UNL     1      26.211   1.019  54.269  1.00  0.00     0.151 C 
HETATM    8  N1  UNL     1      27.394   0.806  54.681  1.00  0.00    -0.236 NA
HETATM    9  N2  UNL     1      25.525  -0.288  54.261  1.00  0.00    -0.217 NA
HETATM   10  C9  UNL     1      26.038  -0.620  52.967  1.00  0.00     0.122 C 
HETATM   11  C10 UNL     1      27.104  -1.605  52.977  1.00  0.00     0.143 C 
HETATM   12  N3  UNL     1      25.275   0.317  52.148  1.00  0.00    -0.305 N 
HETATM   13  N4  UNL     1      24.882   1.663  52.419  1.00  0.00    -0.206 NA
HETATM   14  H11 UNL     1      25.123  -0.301  51.288  1.00  0.00     0.182 HD
ENDROOT
BRANCH  13  15
HETATM   15  C11 UNL     1      23.479   1.758  52.604  1.00  0.00     0.110 A 
HETATM   16  C12 UNL     1      22.695   2.428  51.564  1.00  0.00     0.014 A 
HETATM   17  C13 UNL     1      21.934   1.392  51.248  1.00  0.00     0.011 A 
HETATM   18 CL1  UNL     1      20.630   0.812  50.211  1.00  0.00    -0.089 Cl
HETATM   19  C14 UNL     1      22.624   0.572  52.273  1.00  0.00     0.076 A 
ENDBRANCH  13  15
BRANCH   1  20
HETATM   20  O1  UNL     1      29.218  -2.289  53.346  1.00  0.00    -0.360 OA
HETATM   21  C1  UNL     1      30.422  -2.391  54.094  1.00  0.00     0.209 C 
ENDBRANCH   1  20
TORSDOF 2
ENDMDL
MODEL 5
REMARK VINA RESULT:      -7.2      3.751      5.384
REMARK  2 active torsions:
REMARK  status: ('A' for Active; 'I' for Inactive)
REMARK    1  A    between atoms: O1_2  and  C2_3 
REMARK    2  A    between atoms: N4_15  and  C11_16 
ROOT
HETATM    1  C2  UNL     1      27.286   0.387  54.169  1.00  0.00     0.049 C 
HETATM    2  C3  UNL     1      26.230  -0.215  54.776  1.00  0.00     0.012 C 
HETATM    3  C4  UNL     1      24.694  -0.166  54.521  1.00  0.00     0.088 C 
HETATM    4  C5  UNL     1      24.509   0.832  53.431  1.00  0.00     0.038 C 
HETATM    5  C6  UNL     1      24.079   2.070  52.960  1.00  0.00     0.030 C 
HETATM    6  C7  UNL     1      24.447   2.040  51.423  1.00  0.00     0.176 C 
HETATM    7  C8  UNL     1      25.426   0.957  51.627  1.00  0.00     0.151 C 
HETATM    8  N1  UNL     1      25.420   0.035  52.502  1.00  0.00    -0.236 NA
HETATM    9  N2  UNL     1      26.808   1.041  51.114  1.00  0.00    -0.217 NA
HETATM   10  C9  UNL     1      27.220   1.897  52.184  1.00  0.00     0.122 C 
HETATM   11  C10 UNL     1      28.037   1.248  53.194  1.00  0.00     0.143 C 
HETATM   12  N3  UNL     1      26.507   3.116  51.818  1.00  0.00    -0.305 N 
HETATM   13  N4  UNL     1      25.206   3.284  51.251  1.00  0.00    -0.206 NA
HETATM   14  H11 UNL     1      27.240   3.835  52.120  1.00  0.00     0.182 HD
ENDROOT
BRANCH  13  15
HETATM   15  C11 UNL     1      25.287   3.756  49.916  1.00  0.00     0.110 A 
HETATM   16  C12 UNL     1      25.002   5.172  49.672  1.00  0.00     0.014 A 
HETATM   17  C13 UNL     1      26.187   5.488  49.174  1.00  0.00     0.011 A 
HETATM   18 CL1  UNL     1      27.183   6.783  48.507  1.00  0.00    -0.089 Cl
HETATM   19  C14 UNL     1      26.634   4.084  49.346  1.00  0.00     0.076 A 
ENDBRANCH  13  15
BRANCH   1  20
HETATM   20  O1  UNL     1      28.367  -0.127  54.946  1.00  0.00    -0.360 OA
HETATM   21  C1  UNL     1      29.466  -0.762  54.307  1.00  0.00     0.209 C 
ENDBRANCH   1  20
TORSDOF 2
ENDMDL
MODEL 6
REMARK VINA RESULT:      -7.2      2.531      3.729
REMARK  2 active torsions:
REMARK  status: ('A' for Active; 'I' for Inactive)
REMARK    1  A    between atoms: O1_2  and  C2_3 
REMARK    2  A    between atoms: N4_15  and  C11_16 
ROOT
HETATM    1  C2  UNL     1      20.475   2.907  52.239  1.00  0.00     0.049 C 
HETATM    2  C3  UNL     1      20.809   4.197  51.973  1.00  0.00     0.012 C 
HETATM    3  C4  UNL     1      22.177   4.922  51.800  1.00  0.00     0.088 C 
HETATM    4  C5  UNL     1      23.209   3.888  52.093  1.00  0.00     0.038 C 
HETATM    5  C6  UNL     1      24.212   3.346  52.893  1.00  0.00     0.030 C 
HETATM    6  C7  UNL     1      24.669   2.055  52.105  1.00  0.00     0.176 C 
HETATM    7  C8  UNL     1      23.414   2.020  51.333  1.00  0.00     0.151 C 
HETATM    8  N1  UNL     1      22.668   2.988  50.986  1.00  0.00    -0.236 NA
HETATM    9  N2  UNL     1      22.595   0.796  51.220  1.00  0.00    -0.217 NA
HETATM   10  C9  UNL     1      22.032   0.978  52.523  1.00  0.00     0.122 C 
HETATM   11  C10 UNL     1      20.657   1.443  52.525  1.00  0.00     0.143 C 
HETATM   12  N3  UNL     1      23.202   0.687  53.345  1.00  0.00    -0.305 N 
HETATM   13  N4  UNL     1      24.578   1.007  53.128  1.00  0.00    -0.206 NA
HETATM   14  H11 UNL     1      22.716   0.188  54.156  1.00  0.00     0.182 HD
ENDROOT
BRANCH  13  15
HETATM   15  C11 UNL     1      25.338  -0.161  52.859  1.00  0.00     0.110 A 
HETATM   16  C12 UNL     1      26.552  -0.017  52.052  1.00  0.00     0.014 A 
HETATM   17  C13 UNL     1      27.402  -0.454  52.967  1.00  0.00     0.011 A 
HETATM   18 CL1  UNL     1      29.095  -0.793  53.331  1.00  0.00    -0.089 Cl
HETATM   19  C14 UNL     1      26.278  -0.670  53.909  1.00  0.00     0.076 A 
ENDBRANCH  13  15
BRANCH   1  20
HETATM   20  O1  UNL     1      19.052   2.999  52.253  1.00  0.00    -0.360 OA
HETATM   21  C1  UNL     1      18.380   3.800  51.291  1.00  0.00     0.209 C 
ENDBRANCH   1  20
TORSDOF 2
ENDMDL
MODEL 7
REMARK VINA RESULT:      -7.2      3.934      5.789
REMARK  2 active torsions:
REMARK  status: ('A' for Active; 'I' for Inactive)
REMARK    1  A    between atoms: O1_2  and  C2_3 
REMARK    2  A    between atoms: N4_15  and  C11_16 
ROOT
HETATM    1  C2  UNL     1      26.081   0.314  54.374  1.00  0.00     0.049 C 
HETATM    2  C3  UNL     1      25.173  -0.689  54.498  1.00  0.00     0.012 C 
HETATM    3  C4  UNL     1      23.732  -0.885  53.941  1.00  0.00     0.088 C 
HETATM    4  C5  UNL     1      23.408   0.385  53.233  1.00  0.00     0.038 C 
HETATM    5  C6  UNL     1      22.706   1.582  53.118  1.00  0.00     0.030 C 
HETATM    6  C7  UNL     1      23.257   2.218  51.780  1.00  0.00     0.176 C 
HETATM    7  C8  UNL     1      24.470   1.381  51.823  1.00  0.00     0.151 C 
HETATM    8  N1  UNL     1      24.617   0.220  52.317  1.00  0.00    -0.236 NA
HETATM    9  N2  UNL     1      25.824   1.955  51.685  1.00  0.00    -0.217 NA
HETATM   10  C9  UNL     1      25.837   2.409  53.042  1.00  0.00     0.122 C 
HETATM   11  C10 UNL     1      26.672   1.623  53.932  1.00  0.00     0.143 C 
HETATM   12  N3  UNL     1      24.858   3.488  52.954  1.00  0.00    -0.305 N 
HETATM   13  N4  UNL     1      23.646   3.568  52.203  1.00  0.00    -0.206 NA
HETATM   14  H11 UNL     1      25.312   4.180  53.632  1.00  0.00     0.182 HD
ENDROOT
BRANCH  13  15
HETATM   15  C11 UNL     1      23.756   4.516  51.154  1.00  0.00     0.110 A 
HETATM   16  C12 UNL     1      22.541   4.857  50.409  1.00  0.00     0.014 A 
HETATM   17  C13 UNL     1      22.531   6.147  50.706  1.00  0.00     0.011 A 
HETATM   18 CL1  UNL     1      21.683   7.679  50.493  1.00  0.00    -0.089 Cl
HETATM   19  C14 UNL     1      23.774   5.975  51.497  1.00  0.00     0.076 A 
ENDBRANCH  13  15
BRANCH   1  20
HETATM   20  O1  UNL     1      27.157  -0.205  55.154  1.00  0.00    -0.360 OA
HETATM   21  C1  UNL     1      28.498   0.147  54.843  1.00  0.00     0.209 C 
ENDBRANCH   1  20
TORSDOF 2
ENDMDL
MODEL 8
REMARK VINA RESULT:      -7.0      3.665      5.064
REMARK  2 active torsions:
REMARK  status: ('A' for Active; 'I' for Inactive)
REMARK    1  A    between atoms: O1_2  and  C2_3 
REMARK    2  A    between atoms: N4_15  and  C11_16 
ROOT
HETATM    1  C2  UNL     1      23.815  -0.184  53.648  1.00  0.00     0.049 C 
HETATM    2  C3  UNL     1      24.907  -0.940  53.935  1.00  0.00     0.012 C 
HETATM    3  C4  UNL     1      26.419  -0.789  53.591  1.00  0.00     0.088 C 
HETATM    4  C5  UNL     1      26.503   0.410  52.712  1.00  0.00     0.038 C 
HETATM    5  C6  UNL     1      26.717   1.014  51.475  1.00  0.00     0.030 C 
HETATM    6  C7  UNL     1      26.514   2.554  51.763  1.00  0.00     0.176 C 
HETATM    7  C8  UNL     1      25.759   2.274  52.999  1.00  0.00     0.151 C 
HETATM    8  N1  UNL     1      25.867   1.285  53.788  1.00  0.00    -0.236 NA
HETATM    9  N2  UNL     1      24.445   2.890  53.272  1.00  0.00    -0.217 NA
HETATM   10  C9  UNL     1      23.767   1.977  52.403  1.00  0.00     0.122 C 
HETATM   11  C10 UNL     1      23.004   0.949  53.087  1.00  0.00     0.143 C 
HETATM   12  N3  UNL     1      24.251   2.455  51.112  1.00  0.00    -0.305 N 
HETATM   13  N4  UNL     1      25.540   2.946  50.739  1.00  0.00    -0.206 NA
HETATM   14  H11 UNL     1      23.362   2.305  50.536  1.00  0.00     0.182 HD
ENDROOT
BRANCH  13  15
HETATM   15  C11 UNL     1      25.495   4.335  50.456  1.00  0.00     0.110 A 
HETATM   16  C12 UNL     1      25.719   4.759  49.072  1.00  0.00     0.014 A 
HETATM   17  C13 UNL     1      24.543   5.340  48.892  1.00  0.00     0.011 A 
HETATM   18 CL1  UNL     1      23.514   6.214  47.756  1.00  0.00    -0.089 Cl
HETATM   19  C14 UNL     1      24.159   4.995  50.283  1.00  0.00     0.076 A 
ENDBRANCH  13  15
BRANCH   1  20
HETATM   20  O1  UNL     1      22.791  -0.946  54.285  1.00  0.00    -0.360 OA
HETATM   21  C1  UNL     1      21.543  -0.341  54.599  1.00  0.00     0.209 C 
ENDBRANCH   1  20
TORSDOF 2
ENDMDL
MODEL 9
REMARK VINA RESULT:      -6.9      3.941      6.552
REMARK  2 active torsions:
REMARK  status: ('A' for Active; 'I' for Inactive)
REMARK    1  A    between atoms: O1_2  and  C2_3 
REMARK    2  A    between atoms: N4_15  and  C11_16 
ROOT
HETATM    1  C2  UNL     1      26.346   2.491  51.587  1.00  0.00     0.049 C 
HETATM    2  C3  UNL     1      26.592   3.213  50.463  1.00  0.00     0.012 C 
HETATM    3  C4  UNL     1      25.661   3.820  49.371  1.00  0.00     0.088 C 
HETATM    4  C5  UNL     1      24.288   3.363  49.727  1.00  0.00     0.038 C 
HETATM    5  C6  UNL     1      23.153   2.591  49.496  1.00  0.00     0.030 C 
HETATM    6  C7  UNL     1      22.187   2.970  50.688  1.00  0.00     0.176 C 
HETATM    7  C8  UNL     1      23.306   3.489  51.496  1.00  0.00     0.151 C 
HETATM    8  N1  UNL     1      24.392   4.018  51.101  1.00  0.00    -0.236 NA
HETATM    9  N2  UNL     1      23.527   3.068  52.894  1.00  0.00    -0.217 NA
HETATM   10  C9  UNL     1      24.118   1.828  52.492  1.00  0.00     0.122 C 
HETATM   11  C10 UNL     1      25.560   1.771  52.646  1.00  0.00     0.143 C 
HETATM   12  N3  UNL     1      22.937   1.144  51.976  1.00  0.00    -0.305 N 
HETATM   13  N4  UNL     1      21.827   1.659  51.238  1.00  0.00    -0.206 NA
HETATM   14  H11 UNL     1      23.168   0.149  52.297  1.00  0.00     0.182 HD
ENDROOT
BRANCH  13  15
HETATM   15  C11 UNL     1      20.643   1.641  52.018  1.00  0.00     0.110 A 
HETATM   16  C12 UNL     1      19.532   0.805  51.557  1.00  0.00     0.014 A 
HETATM   17  C13 UNL     1      19.475   0.018  52.620  1.00  0.00     0.011 A 
HETATM   18 CL1  UNL     1      18.653  -1.351  53.370  1.00  0.00    -0.089 Cl
HETATM   19  C14 UNL     1      20.593   0.771  53.238  1.00  0.00     0.076 A 
ENDBRANCH  13  15
BRANCH   1  20
HETATM   20  O1  UNL     1      27.674   2.293  52.070  1.00  0.00    -0.360 OA
HETATM   21  C1  UNL     1      27.901   1.496  53.224  1.00  0.00     0.209 C 
ENDBRANCH   1  20
TORSDOF 2
ENDMDL
