MODEL 1
REMARK VINA RESULT:      -7.9      0.000      0.000
REMARK  6 active torsions:
REMARK  status: ('A' for Active; 'I' for Inactive)
REMARK    1  A    between atoms: C2_2  and  C3_3 
REMARK       I    between atoms: C3_3  and  N1_5 
REMARK    2  A    between atoms: N1_5  and  P1_6 
REMARK    3  A    between atoms: P1_6  and  C4_7 
REMARK    4  A    between atoms: C5_8  and  C6_9 
REMARK    5  A    between atoms: C9_12  and  N2_13 
REMARK    6  A    between atoms: N2_13  and  C10_14 
ROOT
HETATM    1  C6  UNL     1      21.914   3.374  52.233  1.00  0.00     0.027 C 
HETATM    2  C7  UNL     1      23.026   3.600  51.550  1.00  0.00     0.040 A 
HETATM    3  C8  UNL     1      24.310   3.131  52.128  1.00  0.00     0.118 A 
HETATM    4  C9  UNL     1      25.413   3.509  51.218  1.00  0.00     0.037 A 
HETATM    5  C16 UNL     1      25.355   4.137  50.063  1.00  0.00     0.085 A 
HETATM    6  C17 UNL     1      26.497   4.453  49.258  1.00  0.00     0.103 C 
HETATM    7  N3  UNL     1      27.422   4.723  48.620  1.00  0.00    -0.191 NA
HETATM    8  C18 UNL     1      24.023   4.524  49.618  1.00  0.00     0.141 A 
HETATM    9  N4  UNL     1      22.959   4.276  50.302  1.00  0.00    -0.264 NA
ENDROOT
BRANCH   4  10
HETATM   10  N2  UNL     1      26.671   3.108  51.733  1.00  0.00    -0.358 N 
HETATM   11  H11 UNL     1      27.560   3.615  51.763  1.00  0.00     0.166 HD
BRANCH  10  12
HETATM   12  C10 UNL     1      27.210   1.959  52.367  1.00  0.00     0.033 A 
HETATM   13  C11 UNL     1      28.177   2.173  53.339  1.00  0.00     0.029 A 
HETATM   14  C12 UNL     1      28.844   1.223  54.095  1.00  0.00     0.004 A 
HETATM   15  C13 UNL     1      28.464  -0.093  53.809  1.00  0.00     0.019 A 
HETATM   16  C14 UNL     1      27.511  -0.378  52.856  1.00  0.00     0.013 A 
HETATM   17 BR1  UNL     1      27.015  -2.182  52.489  1.00  0.00    -0.051 Br
HETATM   18  C15 UNL     1      26.882   0.616  52.136  1.00  0.00     0.048 A 
ENDBRANCH  10  12
ENDBRANCH   4  10
BRANCH   1  19
HETATM   19  C5  UNL     1      20.637   3.818  51.700  1.00  0.00     0.004 C 
HETATM   20  C4  UNL     1      19.732   2.958  51.272  1.00  0.00     0.025 C 
BRANCH  20  21
HETATM   21  P1  UNL     1      19.864   1.135  51.253  1.00  0.00    -0.003 P 
HETATM   22  H5  UNL     1      21.095   0.825  50.533  1.00  0.00     0.084 HD
BRANCH  21  23
HETATM   23  N1  UNL     1      20.107   0.492  52.932  1.00  0.00    -0.332 N 
HETATM   24  C3  UNL     1      21.320  -0.137  53.364  1.00  0.00     0.243 C 
HETATM   25  O1  UNL     1      22.155  -0.162  52.402  1.00  0.00    -0.268 OA
HETATM   26  H4  UNL     1      19.297   0.600  53.609  1.00  0.00     0.167 HD
BRANCH  24  27
HETATM   27  C2  UNL     1      21.493  -0.642  54.709  1.00  0.00     0.064 C 
HETATM   28  C1  UNL     1      22.521  -1.361  55.109  1.00  0.00     0.017 C 
ENDBRANCH  24  27
ENDBRANCH  21  23
ENDBRANCH  20  21
ENDBRANCH   1  19
TORSDOF 6
ENDMDL
MODEL 2
REMARK VINA RESULT:      -7.8      4.595      7.543
REMARK  6 active torsions:
REMARK  status: ('A' for Active; 'I' for Inactive)
REMARK    1  A    between atoms: C2_2  and  C3_3 
REMARK       I    between atoms: C3_3  and  N1_5 
REMARK    2  A    between atoms: N1_5  and  P1_6 
REMARK    3  A    between atoms: P1_6  and  C4_7 
REMARK    4  A    between atoms: C5_8  and  C6_9 
REMARK    5  A    between atoms: C9_12  and  N2_13 
REMARK    6  A    between atoms: N2_13  and  C10_14 
ROOT
HETATM    1  C6  UNL     1      27.694   5.177  48.528  1.00  0.00     0.027 C 
HETATM    2  C7  UNL     1      26.646   4.920  49.295  1.00  0.00     0.040 A 
HETATM    3  C8  UNL     1      26.404   3.512  49.698  1.00  0.00     0.118 A 
HETATM    4  C9  UNL     1      25.177   3.452  50.523  1.00  0.00     0.037 A 
HETATM    5  C16 UNL     1      24.385   4.434  50.901  1.00  0.00     0.085 A 
HETATM    6  C17 UNL     1      23.213   4.260  51.706  1.00  0.00     0.103 C 
HETATM    7  N3  UNL     1      22.259   4.115  52.342  1.00  0.00    -0.191 NA
HETATM    8  C18 UNL     1      24.757   5.763  50.437  1.00  0.00     0.141 A 
HETATM    9  N4  UNL     1      25.794   5.981  49.702  1.00  0.00    -0.264 NA
ENDROOT
BRANCH   4  10
HETATM   10  N2  UNL     1      24.880   2.124  50.918  1.00  0.00    -0.358 N 
HETATM   11  H11 UNL     1      24.213   1.455  50.524  1.00  0.00     0.166 HD
BRANCH  10  12
HETATM   12  C10 UNL     1      25.321   1.220  51.919  1.00  0.00     0.033 A 
HETATM   13  C11 UNL     1      24.349   0.670  52.742  1.00  0.00     0.029 A 
HETATM   14  C12 UNL     1      24.527  -0.230  53.779  1.00  0.00     0.004 A 
HETATM   15  C13 UNL     1      25.861  -0.599  53.983  1.00  0.00     0.019 A 
HETATM   16  C14 UNL     1      26.877  -0.091  53.203  1.00  0.00     0.013 A 
HETATM   17 BR1  UNL     1      28.685  -0.614  53.506  1.00  0.00    -0.051 Br
HETATM   18  C15 UNL     1      26.634   0.804  52.183  1.00  0.00     0.048 A 
ENDBRANCH  10  12
ENDBRANCH   4  10
BRANCH   1  19
HETATM   19  C5  UNL     1      27.964   6.543  48.111  1.00  0.00     0.004 C 
HETATM   20  C4  UNL     1      29.193   7.024  48.080  1.00  0.00     0.025 C 
BRANCH  20  21
HETATM   21  P1  UNL     1      30.734   6.145  48.522  1.00  0.00    -0.003 P 
HETATM   22  H5  UNL     1      30.530   5.620  49.867  1.00  0.00     0.084 HD
BRANCH  21  23
HETATM   23  N1  UNL     1      30.967   4.691  47.462  1.00  0.00    -0.332 N 
HETATM   24  C3  UNL     1      32.188   3.940  47.416  1.00  0.00     0.243 C 
HETATM   25  O1  UNL     1      33.036   4.454  48.215  1.00  0.00    -0.268 OA
HETATM   26  H4  UNL     1      30.145   4.402  46.856  1.00  0.00     0.167 HD
BRANCH  24  27
HETATM   27  C2  UNL     1      32.352   2.783  46.564  1.00  0.00     0.064 C 
HETATM   28  C1  UNL     1      32.621   1.569  46.998  1.00  0.00     0.017 C 
ENDBRANCH  24  27
ENDBRANCH  21  23
ENDBRANCH  20  21
ENDBRANCH   1  19
TORSDOF 6
ENDMDL
MODEL 3
REMARK VINA RESULT:      -7.8      2.567      5.320
REMARK  6 active torsions:
REMARK  status: ('A' for Active; 'I' for Inactive)
REMARK    1  A    between atoms: C2_2  and  C3_3 
REMARK       I    between atoms: C3_3  and  N1_5 
REMARK    2  A    between atoms: N1_5  and  P1_6 
REMARK    3  A    between atoms: P1_6  and  C4_7 
REMARK    4  A    between atoms: C5_8  and  C6_9 
REMARK    5  A    between atoms: C9_12  and  N2_13 
REMARK    6  A    between atoms: N2_13  and  C10_14 
ROOT
HETATM    1  C6  UNL     1      22.740   2.098  49.796  1.00  0.00     0.027 C 
HETATM    2  C7  UNL     1      22.706   1.385  50.911  1.00  0.00     0.040 A 
HETATM    3  C8  UNL     1      23.895   1.417  51.799  1.00  0.00     0.118 A 
HETATM    4  C9  UNL     1      23.651   0.537  52.963  1.00  0.00     0.037 A 
HETATM    5  C16 UNL     1      22.582  -0.175  53.252  1.00  0.00     0.085 A 
HETATM    6  C17 UNL     1      22.453  -0.999  54.416  1.00  0.00     0.103 C 
HETATM    7  N3  UNL     1      22.358  -1.676  55.348  1.00  0.00    -0.191 NA
HETATM    8  C18 UNL     1      21.489  -0.097  52.292  1.00  0.00     0.141 A 
HETATM    9  N4  UNL     1      21.550   0.619  51.221  1.00  0.00    -0.264 NA
ENDROOT
BRANCH   4  10
HETATM   10  N2  UNL     1      24.767   0.508  53.836  1.00  0.00    -0.358 N 
HETATM   11  H11 UNL     1      24.803   0.375  54.850  1.00  0.00     0.166 HD
BRANCH  10  12
HETATM   12  C10 UNL     1      26.175   0.632  53.717  1.00  0.00     0.033 A 
HETATM   13  C11 UNL     1      26.692   1.920  53.679  1.00  0.00     0.029 A 
HETATM   14  C12 UNL     1      28.020   2.297  53.572  1.00  0.00     0.004 A 
HETATM   15  C13 UNL     1      28.908   1.218  53.496  1.00  0.00     0.019 A 
HETATM   16  C14 UNL     1      28.464  -0.086  53.528  1.00  0.00     0.013 A 
HETATM   17 BR1  UNL     1      29.699  -1.534  53.423  1.00  0.00    -0.051 Br
HETATM   18  C15 UNL     1      27.125  -0.396  53.636  1.00  0.00     0.048 A 
ENDBRANCH  10  12
ENDBRANCH   4  10
BRANCH   1  19
HETATM   19  C5  UNL     1      21.595   2.092  48.901  1.00  0.00     0.004 C 
HETATM   20  C4  UNL     1      21.105   3.211  48.401  1.00  0.00     0.025 C 
BRANCH  20  21
HETATM   21  P1  UNL     1      21.709   4.910  48.698  1.00  0.00    -0.003 P 
HETATM   22  H5  UNL     1      21.589   5.139  50.133  1.00  0.00     0.084 HD
BRANCH  21  23
HETATM   23  N1  UNL     1      23.483   5.031  48.332  1.00  0.00    -0.332 N 
HETATM   24  C3  UNL     1      24.480   5.243  49.340  1.00  0.00     0.243 C 
HETATM   25  O1  UNL     1      23.922   5.327  50.482  1.00  0.00    -0.268 OA
HETATM   26  H4  UNL     1      23.771   4.937  47.314  1.00  0.00     0.167 HD
BRANCH  24  27
HETATM   27  C2  UNL     1      25.889   5.336  49.027  1.00  0.00     0.064 C 
HETATM   28  C1  UNL     1      26.755   4.358  49.190  1.00  0.00     0.017 C 
ENDBRANCH  24  27
ENDBRANCH  21  23
ENDBRANCH  20  21
ENDBRANCH   1  19
TORSDOF 6
ENDMDL
MODEL 4
REMARK VINA RESULT:      -7.7      5.380      8.581
REMARK  6 active torsions:
REMARK  status: ('A' for Active; 'I' for Inactive)
REMARK    1  A    between atoms: C2_2  and  C3_3 
REMARK       I    between atoms: C3_3  and  N1_5 
REMARK    2  A    between atoms: N1_5  and  P1_6 
REMARK    3  A    between atoms: P1_6  and  C4_7 
REMARK    4  A    between atoms: C5_8  and  C6_9 
REMARK    5  A    between atoms: C9_12  and  N2_13 
REMARK    6  A    between atoms: N2_13  and  C10_14 
ROOT
HETATM    1  C6  UNL     1      29.085   5.474  48.038  1.00  0.00     0.027 C 
HETATM    2  C7  UNL     1      27.894   5.541  48.613  1.00  0.00     0.040 A 
HETATM    3  C8  UNL     1      27.230   4.270  48.998  1.00  0.00     0.118 A 
HETATM    4  C9  UNL     1      25.912   4.578  49.593  1.00  0.00     0.037 A 
HETATM    5  C16 UNL     1      25.352   5.750  49.804  1.00  0.00     0.085 A 
HETATM    6  C17 UNL     1      24.059   5.932  50.393  1.00  0.00     0.103 C 
HETATM    7  N3  UNL     1      23.008   6.076  50.853  1.00  0.00    -0.191 NA
HETATM    8  C18 UNL     1      26.129   6.908  49.385  1.00  0.00     0.141 A 
HETATM    9  N4  UNL     1      27.293   6.808  48.841  1.00  0.00    -0.264 NA
ENDROOT
BRANCH   4  10
HETATM   10  N2  UNL     1      25.218   3.397  49.958  1.00  0.00    -0.358 N 
HETATM   11  H11 UNL     1      24.476   2.892  49.465  1.00  0.00     0.166 HD
BRANCH  10  12
HETATM   12  C10 UNL     1      25.234   2.482  51.041  1.00  0.00     0.033 A 
HETATM   13  C11 UNL     1      24.064   2.356  51.776  1.00  0.00     0.029 A 
HETATM   14  C12 UNL     1      23.832   1.534  52.867  1.00  0.00     0.004 A 
HETATM   15  C13 UNL     1      24.937   0.759  53.234  1.00  0.00     0.019 A 
HETATM   16  C14 UNL     1      26.130   0.834  52.549  1.00  0.00     0.013 A 
HETATM   17 BR1  UNL     1      27.618  -0.236  53.074  1.00  0.00    -0.051 Br
HETATM   18  C15 UNL     1      26.298   1.674  51.469  1.00  0.00     0.048 A 
ENDBRANCH  10  12
ENDBRANCH   4  10
BRANCH   1  19
HETATM   19  C5  UNL     1      29.767   6.696  47.647  1.00  0.00     0.004 C 
HETATM   20  C4  UNL     1      30.955   7.008  48.132  1.00  0.00     0.025 C 
BRANCH  20  21
HETATM   21  P1  UNL     1      31.949   6.043  49.323  1.00  0.00    -0.003 P 
HETATM   22  H5  UNL     1      31.004   5.488  50.285  1.00  0.00     0.084 HD
BRANCH  21  23
HETATM   23  N1  UNL     1      32.712   4.612  48.509  1.00  0.00    -0.332 N 
HETATM   24  C3  UNL     1      34.078   4.590  48.078  1.00  0.00     0.243 C 
HETATM   25  O1  UNL     1      34.633   5.702  48.357  1.00  0.00    -0.268 OA
HETATM   26  H4  UNL     1      32.095   3.762  48.356  1.00  0.00     0.167 HD
BRANCH  24  27
HETATM   27  C2  UNL     1      34.667   3.437  47.430  1.00  0.00     0.064 C 
HETATM   28  C1  UNL     1      35.021   3.394  46.163  1.00  0.00     0.017 C 
ENDBRANCH  24  27
ENDBRANCH  21  23
ENDBRANCH  20  21
ENDBRANCH   1  19
TORSDOF 6
ENDMDL
MODEL 5
REMARK VINA RESULT:      -7.7      2.931      5.960
REMARK  6 active torsions:
REMARK  status: ('A' for Active; 'I' for Inactive)
REMARK    1  A    between atoms: C2_2  and  C3_3 
REMARK       I    between atoms: C3_3  and  N1_5 
REMARK    2  A    between atoms: N1_5  and  P1_6 
REMARK    3  A    between atoms: P1_6  and  C4_7 
REMARK    4  A    between atoms: C5_8  and  C6_9 
REMARK    5  A    between atoms: C9_12  and  N2_13 
REMARK    6  A    between atoms: N2_13  and  C10_14 
ROOT
HETATM    1  C6  UNL     1      25.854   3.224  49.781  1.00  0.00     0.027 C 
HETATM    2  C7  UNL     1      26.122   2.521  50.871  1.00  0.00     0.040 A 
HETATM    3  C8  UNL     1      25.137   1.497  51.302  1.00  0.00     0.118 A 
HETATM    4  C9  UNL     1      25.622   0.857  52.544  1.00  0.00     0.037 A 
HETATM    5  C16 UNL     1      26.734   1.082  53.211  1.00  0.00     0.085 A 
HETATM    6  C17 UNL     1      27.106   0.398  54.414  1.00  0.00     0.103 C 
HETATM    7  N3  UNL     1      27.395  -0.143  55.393  1.00  0.00    -0.191 NA
HETATM    8  C18 UNL     1      27.608   2.109  52.660  1.00  0.00     0.141 A 
HETATM    9  N4  UNL     1      27.324   2.765  51.587  1.00  0.00    -0.264 NA
ENDROOT
BRANCH   4  10
HETATM   10  N2  UNL     1      24.707  -0.115  53.019  1.00  0.00    -0.358 N 
HETATM   11  H11 UNL     1      24.880  -1.056  53.383  1.00  0.00     0.166 HD
BRANCH  10  12
HETATM   12  C10 UNL     1      23.303  -0.217  53.189  1.00  0.00     0.033 A 
HETATM   13  C11 UNL     1      22.852  -0.791  54.370  1.00  0.00     0.029 A 
HETATM   14  C12 UNL     1      21.541  -0.997  54.766  1.00  0.00     0.004 A 
HETATM   15  C13 UNL     1      20.595  -0.558  53.833  1.00  0.00     0.019 A 
HETATM   16  C14 UNL     1      20.972   0.020  52.641  1.00  0.00     0.013 A 
HETATM   17 BR1  UNL     1      19.658   0.608  51.391  1.00  0.00    -0.051 Br
HETATM   18  C15 UNL     1      22.297   0.197  52.304  1.00  0.00     0.048 A 
ENDBRANCH  10  12
ENDBRANCH   4  10
BRANCH   1  19
HETATM   19  C5  UNL     1      26.793   4.236  49.327  1.00  0.00     0.004 C 
HETATM   20  C4  UNL     1      26.388   5.442  48.973  1.00  0.00     0.025 C 
BRANCH  20  21
HETATM   21  P1  UNL     1      24.674   6.076  48.972  1.00  0.00    -0.003 P 
HETATM   22  H5  UNL     1      23.931   5.234  48.040  1.00  0.00     0.084 HD
BRANCH  21  23
HETATM   23  N1  UNL     1      23.895   5.816  50.590  1.00  0.00    -0.332 N 
HETATM   24  C3  UNL     1      22.840   4.870  50.811  1.00  0.00     0.243 C 
HETATM   25  O1  UNL     1      22.564   4.274  49.719  1.00  0.00    -0.268 OA
HETATM   26  H4  UNL     1      24.254   6.405  51.396  1.00  0.00     0.167 HD
BRANCH  24  27
HETATM   27  C2  UNL     1      22.233   4.678  52.110  1.00  0.00     0.064 C 
HETATM   28  C1  UNL     1      21.168   3.938  52.333  1.00  0.00     0.017 C 
ENDBRANCH  24  27
ENDBRANCH  21  23
ENDBRANCH  20  21
ENDBRANCH   1  19
TORSDOF 6
ENDMDL
MODEL 6
REMARK VINA RESULT:      -7.7      4.266      8.064
REMARK  6 active torsions:
REMARK  status: ('A' for Active; 'I' for Inactive)
REMARK    1  A    between atoms: C2_2  and  C3_3 
REMARK       I    between atoms: C3_3  and  N1_5 
REMARK    2  A    between atoms: N1_5  and  P1_6 
REMARK    3  A    between atoms: P1_6  and  C4_7 
REMARK    4  A    between atoms: C5_8  and  C6_9 
REMARK    5  A    between atoms: C9_12  and  N2_13 
REMARK    6  A    between atoms: N2_13  and  C10_14 
ROOT
HETATM    1  C6  UNL     1      25.569   3.434  50.044  1.00  0.00     0.027 C 
HETATM    2  C7  UNL     1      25.499   2.544  51.023  1.00  0.00     0.040 A 
HETATM    3  C8  UNL     1      24.213   2.406  51.751  1.00  0.00     0.118 A 
HETATM    4  C9  UNL     1      24.368   1.385  52.810  1.00  0.00     0.037 A 
HETATM    5  C16 UNL     1      25.424   0.658  53.111  1.00  0.00     0.085 A 
HETATM    6  C17 UNL     1      25.462  -0.310  54.166  1.00  0.00     0.103 C 
HETATM    7  N3  UNL     1      25.496  -1.078  55.029  1.00  0.00    -0.191 NA
HETATM    8  C18 UNL     1      26.610   0.897  52.300  1.00  0.00     0.141 A 
HETATM    9  N4  UNL     1      26.640   1.761  51.344  1.00  0.00    -0.264 NA
ENDROOT
BRANCH   4  10
HETATM   10  N2  UNL     1      23.175   1.227  53.558  1.00  0.00    -0.358 N 
HETATM   11  H11 UNL     1      22.903   1.640  54.454  1.00  0.00     0.166 HD
BRANCH  10  12
HETATM   12  C10 UNL     1      21.957   0.512  53.423  1.00  0.00     0.033 A 
HETATM   13  C11 UNL     1      21.787  -0.601  54.235  1.00  0.00     0.029 A 
HETATM   14  C12 UNL     1      20.696  -1.451  54.291  1.00  0.00     0.004 A 
HETATM   15  C13 UNL     1      19.668  -1.107  53.405  1.00  0.00     0.019 A 
HETATM   16  C14 UNL     1      19.770  -0.016  52.570  1.00  0.00     0.013 A 
HETATM   17 BR1  UNL     1      18.352   0.426  51.375  1.00  0.00    -0.051 Br
HETATM   18  C15 UNL     1      20.886   0.793  52.563  1.00  0.00     0.048 A 
ENDBRANCH  10  12
ENDBRANCH   4  10
BRANCH   1  19
HETATM   19  C5  UNL     1      26.811   3.599  49.307  1.00  0.00     0.004 C 
HETATM   20  C4  UNL     1      27.177   4.773  48.828  1.00  0.00     0.025 C 
BRANCH  20  21
HETATM   21  P1  UNL     1      26.271   6.354  48.969  1.00  0.00    -0.003 P 
HETATM   22  H5  UNL     1      25.219   6.133  49.955  1.00  0.00     0.084 HD
BRANCH  21  23
HETATM   23  N1  UNL     1      27.337   7.641  49.676  1.00  0.00    -0.332 N 
HETATM   24  C3  UNL     1      28.157   8.506  48.880  1.00  0.00     0.243 C 
HETATM   25  O1  UNL     1      28.008   8.222  47.647  1.00  0.00    -0.268 OA
HETATM   26  H4  UNL     1      27.337   7.738  50.733  1.00  0.00     0.167 HD
BRANCH  24  27
HETATM   27  C2  UNL     1      29.000   9.527  49.464  1.00  0.00     0.064 C 
HETATM   28  C1  UNL     1      30.313   9.551  49.373  1.00  0.00     0.017 C 
ENDBRANCH  24  27
ENDBRANCH  21  23
ENDBRANCH  20  21
ENDBRANCH   1  19
TORSDOF 6
ENDMDL
MODEL 7
REMARK VINA RESULT:      -7.7      3.719      6.031
REMARK  6 active torsions:
REMARK  status: ('A' for Active; 'I' for Inactive)
REMARK    1  A    between atoms: C2_2  and  C3_3 
REMARK       I    between atoms: C3_3  and  N1_5 
REMARK    2  A    between atoms: N1_5  and  P1_6 
REMARK    3  A    between atoms: P1_6  and  C4_7 
REMARK    4  A    between atoms: C5_8  and  C6_9 
REMARK    5  A    between atoms: C9_12  and  N2_13 
REMARK    6  A    between atoms: N2_13  and  C10_14 
ROOT
HETATM    1  C6  UNL     1      23.966   1.433  51.634  1.00  0.00     0.027 C 
HETATM    2  C7  UNL     1      23.959   2.738  51.410  1.00  0.00     0.040 A 
HETATM    3  C8  UNL     1      24.663   3.245  50.206  1.00  0.00     0.118 A 
HETATM    4  C9  UNL     1      24.551   4.720  50.168  1.00  0.00     0.037 A 
HETATM    5  C16 UNL     1      23.934   5.525  51.008  1.00  0.00     0.085 A 
HETATM    6  C17 UNL     1      23.890   6.950  50.873  1.00  0.00     0.103 C 
HETATM    7  N3  UNL     1      23.870   8.101  50.771  1.00  0.00    -0.191 NA
HETATM    8  C18 UNL     1      23.278   4.881  52.137  1.00  0.00     0.141 A 
HETATM    9  N4  UNL     1      23.291   3.604  52.317  1.00  0.00    -0.264 NA
ENDROOT
BRANCH   4  10
HETATM   10  N2  UNL     1      25.229   5.264  49.049  1.00  0.00    -0.358 N 
HETATM   11  H11 UNL     1      24.905   5.398  48.087  1.00  0.00     0.166 HD
BRANCH  10  12
HETATM   12  C10 UNL     1      26.511   5.810  48.781  1.00  0.00     0.033 A 
HETATM   13  C11 UNL     1      27.554   4.910  48.610  1.00  0.00     0.029 A 
HETATM   14  C12 UNL     1      28.882   5.195  48.339  1.00  0.00     0.004 A 
HETATM   15  C13 UNL     1      29.156   6.563  48.235  1.00  0.00     0.019 A 
HETATM   16  C14 UNL     1      28.168   7.511  48.394  1.00  0.00     0.013 A 
HETATM   17 BR1  UNL     1      28.574   9.368  48.247  1.00  0.00    -0.051 Br
HETATM   18  C15 UNL     1      26.862   7.162  48.663  1.00  0.00     0.048 A 
ENDBRANCH  10  12
ENDBRANCH   4  10
BRANCH   1  19
HETATM   19  C5  UNL     1      23.288   0.899  52.803  1.00  0.00     0.004 C 
HETATM   20  C4  UNL     1      23.856  -0.011  53.573  1.00  0.00     0.025 C 
BRANCH  20  21
HETATM   21  P1  UNL     1      25.511  -0.758  53.362  1.00  0.00    -0.003 P 
HETATM   22  H5  UNL     1      25.593  -1.176  51.967  1.00  0.00     0.084 HD
BRANCH  21  23
HETATM   23  N1  UNL     1      26.809   0.492  53.574  1.00  0.00    -0.332 N 
HETATM   24  C3  UNL     1      28.173   0.166  53.871  1.00  0.00     0.243 C 
HETATM   25  O1  UNL     1      28.301  -1.099  53.954  1.00  0.00    -0.268 OA
HETATM   26  H4  UNL     1      26.519   1.508  53.468  1.00  0.00     0.167 HD
BRANCH  24  27
HETATM   27  C2  UNL     1      29.193   1.179  54.035  1.00  0.00     0.064 C 
HETATM   28  C1  UNL     1      29.014   2.461  53.799  1.00  0.00     0.017 C 
ENDBRANCH  24  27
ENDBRANCH  21  23
ENDBRANCH  20  21
ENDBRANCH   1  19
TORSDOF 6
ENDMDL
MODEL 8
REMARK VINA RESULT:      -7.4      4.058      6.426
REMARK  6 active torsions:
REMARK  status: ('A' for Active; 'I' for Inactive)
REMARK    1  A    between atoms: C2_2  and  C3_3 
REMARK       I    between atoms: C3_3  and  N1_5 
REMARK    2  A    between atoms: N1_5  and  P1_6 
REMARK    3  A    between atoms: P1_6  and  C4_7 
REMARK    4  A    between atoms: C5_8  and  C6_9 
REMARK    5  A    between atoms: C9_12  and  N2_13 
REMARK    6  A    between atoms: N2_13  and  C10_14 
ROOT
HETATM    1  C6  UNL     1      18.722   0.935  51.413  1.00  0.00     0.027 C 
HETATM    2  C7  UNL     1      19.610   0.466  52.276  1.00  0.00     0.040 A 
HETATM    3  C8  UNL     1      20.913   1.169  52.390  1.00  0.00     0.118 A 
HETATM    4  C9  UNL     1      21.753   0.467  53.385  1.00  0.00     0.037 A 
HETATM    5  C16 UNL     1      21.466  -0.596  54.107  1.00  0.00     0.085 A 
HETATM    6  C17 UNL     1      22.364  -1.197  55.048  1.00  0.00     0.103 C 
HETATM    7  N3  UNL     1      23.096  -1.690  55.794  1.00  0.00    -0.191 NA
HETATM    8  C18 UNL     1      20.145  -1.169  53.895  1.00  0.00     0.141 A 
HETATM    9  N4  UNL     1      19.298  -0.680  53.056  1.00  0.00    -0.264 NA
ENDROOT
BRANCH   4  10
HETATM   10  N2  UNL     1      23.023   1.081  53.518  1.00  0.00    -0.358 N 
HETATM   11  H11 UNL     1      23.380   1.699  54.252  1.00  0.00     0.166 HD
BRANCH  10  12
HETATM   12  C10 UNL     1      24.238   1.113  52.785  1.00  0.00     0.033 A 
HETATM   13  C11 UNL     1      25.123   0.063  52.988  1.00  0.00     0.029 A 
HETATM   14  C12 UNL     1      26.359  -0.130  52.394  1.00  0.00     0.004 A 
HETATM   15  C13 UNL     1      26.713   0.877  51.489  1.00  0.00     0.019 A 
HETATM   16  C14 UNL     1      25.882   1.948  51.240  1.00  0.00     0.013 A 
HETATM   17 BR1  UNL     1      26.394   3.304  50.002  1.00  0.00    -0.051 Br
HETATM   18  C15 UNL     1      24.661   2.083  51.866  1.00  0.00     0.048 A 
ENDBRANCH  10  12
ENDBRANCH   4  10
BRANCH   1  19
HETATM   19  C5  UNL     1      17.436   0.273  51.273  1.00  0.00     0.004 C 
HETATM   20  C4  UNL     1      16.311   0.961  51.206  1.00  0.00     0.025 C 
BRANCH  20  21
HETATM   21  P1  UNL     1      16.122   2.778  51.270  1.00  0.00    -0.003 P 
HETATM   22  H5  UNL     1      16.265   3.249  49.897  1.00  0.00     0.084 HD
BRANCH  21  23
HETATM   23  N1  UNL     1      14.437   3.229  51.767  1.00  0.00    -0.332 N 
HETATM   24  C3  UNL     1      14.142   3.990  52.946  1.00  0.00     0.243 C 
HETATM   25  O1  UNL     1      15.226   4.277  53.551  1.00  0.00    -0.268 OA
HETATM   26  H4  UNL     1      13.647   2.903  51.137  1.00  0.00     0.167 HD
BRANCH  24  27
HETATM   27  C2  UNL     1      12.790   4.339  53.324  1.00  0.00     0.064 C 
HETATM   28  C1  UNL     1      12.307   4.237  54.544  1.00  0.00     0.017 C 
ENDBRANCH  24  27
ENDBRANCH  21  23
ENDBRANCH  20  21
ENDBRANCH   1  19
TORSDOF 6
ENDMDL
MODEL 9
REMARK VINA RESULT:      -7.4      6.256      8.363
REMARK  6 active torsions:
REMARK  status: ('A' for Active; 'I' for Inactive)
REMARK    1  A    between atoms: C2_2  and  C3_3 
REMARK       I    between atoms: C3_3  and  N1_5 
REMARK    2  A    between atoms: N1_5  and  P1_6 
REMARK    3  A    between atoms: P1_6  and  C4_7 
REMARK    4  A    between atoms: C5_8  and  C6_9 
REMARK    5  A    between atoms: C9_12  and  N2_13 
REMARK    6  A    between atoms: N2_13  and  C10_14 
ROOT
HETATM    1  C6  UNL     1      28.093   5.221  48.500  1.00  0.00     0.027 C 
HETATM    2  C7  UNL     1      29.093   6.055  48.256  1.00  0.00     0.040 A 
HETATM    3  C8  UNL     1      30.449   5.482  48.063  1.00  0.00     0.118 A 
HETATM    4  C9  UNL     1      31.408   6.584  47.831  1.00  0.00     0.037 A 
HETATM    5  C16 UNL     1      31.180   7.880  47.768  1.00  0.00     0.085 A 
HETATM    6  C17 UNL     1      32.193   8.866  47.536  1.00  0.00     0.103 C 
HETATM    7  N3  UNL     1      33.015   9.660  47.365  1.00  0.00    -0.191 NA
HETATM    8  C18 UNL     1      29.797   8.291  47.965  1.00  0.00     0.141 A 
HETATM    9  N4  UNL     1      28.844   7.451  48.187  1.00  0.00    -0.264 NA
ENDROOT
BRANCH   4  10
HETATM   10  N2  UNL     1      32.729   6.098  47.665  1.00  0.00    -0.358 N 
HETATM   11  H11 UNL     1      33.543   6.187  48.279  1.00  0.00     0.166 HD
BRANCH  10  12
HETATM   12  C10 UNL     1      33.441   5.353  46.691  1.00  0.00     0.033 A 
HETATM   13  C11 UNL     1      34.370   4.433  47.157  1.00  0.00     0.029 A 
HETATM   14  C12 UNL     1      35.178   3.592  46.411  1.00  0.00     0.004 A 
HETATM   15  C13 UNL     1      35.003   3.722  45.029  1.00  0.00     0.019 A 
HETATM   16  C14 UNL     1      34.099   4.615  44.497  1.00  0.00     0.013 A 
HETATM   17 BR1  UNL     1      33.884   4.768  42.609  1.00  0.00    -0.051 Br
HETATM   18  C15 UNL     1      33.322   5.426  45.296  1.00  0.00     0.048 A 
ENDBRANCH  10  12
ENDBRANCH   4  10
BRANCH   1  19
HETATM   19  C5  UNL     1      26.751   5.744  48.695  1.00  0.00     0.004 C 
HETATM   20  C4  UNL     1      25.796   5.007  49.230  1.00  0.00     0.025 C 
BRANCH  20  21
HETATM   21  P1  UNL     1      25.929   3.279  49.813  1.00  0.00    -0.003 P 
HETATM   22  H5  UNL     1      26.786   2.593  48.853  1.00  0.00     0.084 HD
BRANCH  21  23
HETATM   23  N1  UNL     1      26.813   3.204  51.395  1.00  0.00    -0.332 N 
HETATM   24  C3  UNL     1      26.848   2.032  52.220  1.00  0.00     0.243 C 
HETATM   25  O1  UNL     1      26.179   1.100  51.667  1.00  0.00    -0.268 OA
HETATM   26  H4  UNL     1      27.321   4.084  51.704  1.00  0.00     0.167 HD
BRANCH  24  27
HETATM   27  C2  UNL     1      27.560   1.993  53.479  1.00  0.00     0.064 C 
HETATM   28  C1  UNL     1      28.761   2.495  53.672  1.00  0.00     0.017 C 
ENDBRANCH  24  27
ENDBRANCH  21  23
ENDBRANCH  20  21
ENDBRANCH   1  19
TORSDOF 6
ENDMDL
