MODEL 1
REMARK VINA RESULT:      -7.1      0.000      0.000
REMARK  10 active torsions:
REMARK  status: ('A' for Active; 'I' for Inactive)
REMARK    1  A    between atoms: C2_2  and  N1_3 
REMARK    2  A    between atoms: N1_3  and  C4_5 
REMARK    3  A    between atoms: C4_5  and  C5_6 
REMARK    4  A    between atoms: C5_6  and  C6_7 
REMARK    5  A    between atoms: C6_7  and  N2_8 
REMARK    6  A    between atoms: C6_7  and  N3_15 
REMARK    7  A    between atoms: N2_8  and  C7_9 
REMARK    8  A    between atoms: C7_9  and  C8_10 
REMARK    9  A    between atoms: C9_11  and  C10_13 
REMARK   10  A    between atoms: N3_15  and  C11_16 
ROOT
HETATM    1  C6  UNL     1      24.379   3.081  52.072  1.00  0.00     0.322 C 
ENDROOT
BRANCH   1   2
HETATM    2  C5  UNL     1      23.072   2.836  52.747  1.00  0.00     0.087 C 
BRANCH   2   3
HETATM    3  C4  UNL     1      22.356   1.617  52.274  1.00  0.00     0.275 C 
BRANCH   3   4
HETATM    4  N1  UNL     1      21.306   1.142  53.116  1.00  0.00     0.084 N 
HETATM    5  C3  UNL     1      20.196   0.665  52.316  1.00  0.00     0.309 C 
BRANCH   4   6
HETATM    6  C2  UNL     1      21.857   0.125  53.968  1.00  0.00     0.267 C 
HETATM    7  C1  UNL     1      22.584  -0.958  53.246  1.00  0.00     0.037 C 
ENDBRANCH   4   6
ENDBRANCH   3   4
ENDBRANCH   2   3
ENDBRANCH   1   2
BRANCH   1   8
HETATM    8  N2  UNL     1      24.625   4.433  51.670  1.00  0.00     0.109 N 
HETATM    9  H14 UNL     1      25.643   4.629  51.899  1.00  0.00     0.318 HD
BRANCH   8  10
HETATM   10  C7  UNL     1      24.435   4.700  50.282  1.00  0.00     0.301 C 
BRANCH  10  11
HETATM   11  C8  UNL     1      25.609   5.397  49.670  1.00  0.00     0.025 C 
HETATM   12  C9  UNL     1      26.614   4.660  49.243  1.00  0.00     0.038 C 
HETATM   13 CL1  UNL     1      26.608   2.913  49.373  1.00  0.00    -0.087 Cl
BRANCH  12  14
HETATM   14  C10 UNL     1      27.877   5.105  48.604  1.00  0.00     0.273 C 
HETATM   15  F1  UNL     1      27.652   6.174  47.735  1.00  0.00    -0.250 F 
ENDBRANCH  12  14
ENDBRANCH  10  11
ENDBRANCH   8  10
ENDBRANCH   1   8
BRANCH   1  16
HETATM   16  N3  UNL     1      25.442   2.716  53.001  1.00  0.00    -0.345 N 
HETATM   17  H20 UNL     1      25.724   3.277  53.834  1.00  0.00     0.163 HD
BRANCH  16  18
HETATM   18  C11 UNL     1      26.364   1.644  53.131  1.00  0.00     0.125 A 
HETATM   19  C12 UNL     1      26.196   0.321  52.776  1.00  0.00     0.065 A 
HETATM   20  C13 UNL     1      27.248  -0.531  53.004  1.00  0.00     0.015 A 
HETATM   21  C14 UNL     1      27.072  -1.858  52.646  1.00  0.00     0.132 A 
HETATM   22  C16 UNL     1      28.440  -0.112  53.564  1.00  0.00     0.087 A 
HETATM   23  N4  UNL     1      28.051  -2.763  52.836  1.00  0.00    -0.253 NA
HETATM   24  C15 UNL     1      29.210  -2.312  53.391  1.00  0.00     0.233 A 
HETATM   25  N5  UNL     1      29.419  -1.024  53.752  1.00  0.00    -0.240 NA
HETATM   26  C17 UNL     1      28.572   1.207  53.904  1.00  0.00     0.151 A 
HETATM   27  N6  UNL     1      27.537   2.024  53.675  1.00  0.00    -0.241 NA
ENDBRANCH  16  18
ENDBRANCH   1  16
TORSDOF 10
ENDMDL
MODEL 2
REMARK VINA RESULT:      -7.0      3.158      5.443
REMARK  10 active torsions:
REMARK  status: ('A' for Active; 'I' for Inactive)
REMARK    1  A    between atoms: C2_2  and  N1_3 
REMARK    2  A    between atoms: N1_3  and  C4_5 
REMARK    3  A    between atoms: C4_5  and  C5_6 
REMARK    4  A    between atoms: C5_6  and  C6_7 
REMARK    5  A    between atoms: C6_7  and  N2_8 
REMARK    6  A    between atoms: C6_7  and  N3_15 
REMARK    7  A    between atoms: N2_8  and  C7_9 
REMARK    8  A    between atoms: C7_9  and  C8_10 
REMARK    9  A    between atoms: C9_11  and  C10_13 
REMARK   10  A    between atoms: N3_15  and  C11_16 
ROOT
HETATM    1  C6  UNL     1      24.355   3.200  52.538  1.00  0.00     0.322 C 
ENDROOT
BRANCH   1   2
HETATM    2  C5  UNL     1      24.885   3.015  51.156  1.00  0.00     0.087 C 
BRANCH   2   3
HETATM    3  C4  UNL     1      24.271   3.915  50.137  1.00  0.00     0.275 C 
BRANCH   3   4
HETATM    4  N1  UNL     1      25.148   4.401  49.122  1.00  0.00     0.084 N 
HETATM    5  C3  UNL     1      24.976   5.829  48.950  1.00  0.00     0.309 C 
BRANCH   4   6
HETATM    6  C2  UNL     1      26.489   4.041  49.495  1.00  0.00     0.267 C 
HETATM    7  C1  UNL     1      27.553   4.742  48.721  1.00  0.00     0.037 C 
ENDBRANCH   4   6
ENDBRANCH   3   4
ENDBRANCH   2   3
ENDBRANCH   1   2
BRANCH   1   8
HETATM    8  N2  UNL     1      23.211   2.407  52.873  1.00  0.00     0.109 N 
HETATM    9  H14 UNL     1      22.362   2.985  52.608  1.00  0.00     0.318 HD
BRANCH   8  10
HETATM   10  C7  UNL     1      23.114   1.158  52.190  1.00  0.00     0.301 C 
BRANCH  10  11
HETATM   11  C8  UNL     1      22.968   0.005  53.132  1.00  0.00     0.025 C 
HETATM   12  C9  UNL     1      21.778  -0.546  53.258  1.00  0.00     0.038 C 
HETATM   13 CL1  UNL     1      20.386   0.033  52.365  1.00  0.00    -0.087 Cl
BRANCH  12  14
HETATM   14  C10 UNL     1      21.377  -1.690  54.114  1.00  0.00     0.273 C 
HETATM   15  F1  UNL     1      19.993  -1.864  54.106  1.00  0.00    -0.250 F 
ENDBRANCH  12  14
ENDBRANCH  10  11
ENDBRANCH   8  10
ENDBRANCH   1   8
BRANCH   1  16
HETATM   16  N3  UNL     1      25.408   2.841  53.478  1.00  0.00    -0.345 N 
HETATM   17  H20 UNL     1      25.548   3.280  54.414  1.00  0.00     0.163 HD
BRANCH  16  18
HETATM   18  C11 UNL     1      26.485   1.914  53.504  1.00  0.00     0.125 A 
HETATM   19  C12 UNL     1      26.450   0.554  53.273  1.00  0.00     0.065 A 
HETATM   20  C13 UNL     1      27.639  -0.130  53.357  1.00  0.00     0.015 A 
HETATM   21  C14 UNL     1      27.596  -1.495  53.124  1.00  0.00     0.132 A 
HETATM   22  C16 UNL     1      28.836   0.490  53.659  1.00  0.00     0.087 A 
HETATM   23  N4  UNL     1      28.714  -2.243  53.188  1.00  0.00    -0.253 NA
HETATM   24  C15 UNL     1      29.874  -1.597  53.488  1.00  0.00     0.233 A 
HETATM   25  N5  UNL     1      29.955  -0.266  53.721  1.00  0.00    -0.240 NA
HETATM   26  C17 UNL     1      28.833   1.840  53.882  1.00  0.00     0.151 A 
HETATM   27  N6  UNL     1      27.667   2.491  53.797  1.00  0.00    -0.241 NA
ENDBRANCH  16  18
ENDBRANCH   1  16
TORSDOF 10
ENDMDL
MODEL 3
REMARK VINA RESULT:      -7.0      1.758      5.155
REMARK  10 active torsions:
REMARK  status: ('A' for Active; 'I' for Inactive)
REMARK    1  A    between atoms: C2_2  and  N1_3 
REMARK    2  A    between atoms: N1_3  and  C4_5 
REMARK    3  A    between atoms: C4_5  and  C5_6 
REMARK    4  A    between atoms: C5_6  and  C6_7 
REMARK    5  A    between atoms: C6_7  and  N2_8 
REMARK    6  A    between atoms: C6_7  and  N3_15 
REMARK    7  A    between atoms: N2_8  and  C7_9 
REMARK    8  A    between atoms: C7_9  and  C8_10 
REMARK    9  A    between atoms: C9_11  and  C10_13 
REMARK   10  A    between atoms: N3_15  and  C11_16 
ROOT
HETATM    1  C6  UNL     1      26.008   2.827  51.443  1.00  0.00     0.322 C 
ENDROOT
BRANCH   1   2
HETATM    2  C5  UNL     1      26.861   1.611  51.583  1.00  0.00     0.087 C 
BRANCH   2   3
HETATM    3  C4  UNL     1      27.681   1.577  52.827  1.00  0.00     0.275 C 
BRANCH   3   4
HETATM    4  N1  UNL     1      27.566   0.395  53.620  1.00  0.00     0.084 N 
HETATM    5  C3  UNL     1      27.248  -0.743  52.782  1.00  0.00     0.309 C 
BRANCH   4   6
HETATM    6  C2  UNL     1      28.799   0.232  54.340  1.00  0.00     0.267 C 
HETATM    7  C1  UNL     1      29.837  -0.555  53.615  1.00  0.00     0.037 C 
ENDBRANCH   4   6
ENDBRANCH   3   4
ENDBRANCH   2   3
ENDBRANCH   1   2
BRANCH   1   8
HETATM    8  N2  UNL     1      25.346   2.978  50.182  1.00  0.00     0.109 N 
HETATM    9  H14 UNL     1      24.306   2.943  50.387  1.00  0.00     0.318 HD
BRANCH   8  10
HETATM   10  C7  UNL     1      25.611   4.202  49.498  1.00  0.00     0.301 C 
BRANCH  10  11
HETATM   11  C8  UNL     1      27.037   4.310  49.057  1.00  0.00     0.025 C 
HETATM   12  C9  UNL     1      27.454   5.467  48.586  1.00  0.00     0.038 C 
HETATM   13 CL1  UNL     1      26.397   6.859  48.467  1.00  0.00    -0.087 Cl
BRANCH  12  14
HETATM   14  C10 UNL     1      28.806   5.828  48.093  1.00  0.00     0.273 C 
HETATM   15  F1  UNL     1      29.576   4.690  47.853  1.00  0.00    -0.250 F 
ENDBRANCH  12  14
ENDBRANCH  10  11
ENDBRANCH   8  10
ENDBRANCH   1   8
BRANCH   1  16
HETATM   16  N3  UNL     1      24.967   2.768  52.461  1.00  0.00    -0.345 N 
HETATM   17  H20 UNL     1      24.839   3.469  53.224  1.00  0.00     0.163 HD
BRANCH  16  18
HETATM   18  C11 UNL     1      23.895   1.893  52.780  1.00  0.00     0.125 A 
HETATM   19  C12 UNL     1      23.916   0.767  53.579  1.00  0.00     0.065 A 
HETATM   20  C13 UNL     1      22.735   0.084  53.733  1.00  0.00     0.015 A 
HETATM   21  C14 UNL     1      22.764  -1.046  54.536  1.00  0.00     0.132 A 
HETATM   22  C16 UNL     1      21.557   0.480  53.129  1.00  0.00     0.087 A 
HETATM   23  N4  UNL     1      21.652  -1.778  54.741  1.00  0.00    -0.253 NA
HETATM   24  C15 UNL     1      20.511  -1.356  54.128  1.00  0.00     0.233 A 
HETATM   25  N5  UNL     1      20.445  -0.258  53.339  1.00  0.00    -0.240 NA
HETATM   26  C17 UNL     1      21.574   1.601  52.344  1.00  0.00     0.151 A 
HETATM   27  N6  UNL     1      22.732   2.256  52.203  1.00  0.00    -0.241 NA
ENDBRANCH  16  18
ENDBRANCH   1  16
TORSDOF 10
ENDMDL
MODEL 4
REMARK VINA RESULT:      -6.9      1.693      2.053
REMARK  10 active torsions:
REMARK  status: ('A' for Active; 'I' for Inactive)
REMARK    1  A    between atoms: C2_2  and  N1_3 
REMARK    2  A    between atoms: N1_3  and  C4_5 
REMARK    3  A    between atoms: C4_5  and  C5_6 
REMARK    4  A    between atoms: C5_6  and  C6_7 
REMARK    5  A    between atoms: C6_7  and  N2_8 
REMARK    6  A    between atoms: C6_7  and  N3_15 
REMARK    7  A    between atoms: N2_8  and  C7_9 
REMARK    8  A    between atoms: C7_9  and  C8_10 
REMARK    9  A    between atoms: C9_11  and  C10_13 
REMARK   10  A    between atoms: N3_15  and  C11_16 
ROOT
HETATM    1  C6  UNL     1      25.668   3.409  50.380  1.00  0.00     0.322 C 
ENDROOT
BRANCH   1   2
HETATM    2  C5  UNL     1      24.214   3.132  50.201  1.00  0.00     0.087 C 
BRANCH   2   3
HETATM    3  C4  UNL     1      23.523   2.657  51.434  1.00  0.00     0.275 C 
BRANCH   3   4
HETATM    4  N1  UNL     1      22.194   2.167  51.258  1.00  0.00     0.084 N 
HETATM    5  C3  UNL     1      22.101   1.396  50.035  1.00  0.00     0.309 C 
BRANCH   4   6
HETATM    6  C2  UNL     1      21.851   1.406  52.427  1.00  0.00     0.267 C 
HETATM    7  C1  UNL     1      23.023   0.891  53.192  1.00  0.00     0.037 C 
ENDBRANCH   4   6
ENDBRANCH   3   4
ENDBRANCH   2   3
ENDBRANCH   1   2
BRANCH   1   8
HETATM    8  N2  UNL     1      26.041   4.792  50.374  1.00  0.00     0.109 N 
HETATM    9  H14 UNL     1      26.925   4.862  50.956  1.00  0.00     0.318 HD
BRANCH   8  10
HETATM   10  C7  UNL     1      26.325   5.340  49.088  1.00  0.00     0.301 C 
BRANCH  10  11
HETATM   11  C8  UNL     1      27.689   4.968  48.599  1.00  0.00     0.025 C 
HETATM   12  C9  UNL     1      28.543   5.938  48.347  1.00  0.00     0.038 C 
HETATM   13 CL1  UNL     1      28.126   7.626  48.567  1.00  0.00    -0.087 Cl
BRANCH  12  14
HETATM   14  C10 UNL     1      29.941   5.833  47.862  1.00  0.00     0.273 C 
HETATM   15  F1  UNL     1      30.271   4.512  47.559  1.00  0.00    -0.250 F 
ENDBRANCH  12  14
ENDBRANCH  10  11
ENDBRANCH   8  10
ENDBRANCH   1   8
BRANCH   1  16
HETATM   16  N3  UNL     1      26.076   2.867  51.670  1.00  0.00    -0.345 N 
HETATM   17  H20 UNL     1      25.848   3.294  52.594  1.00  0.00     0.163 HD
BRANCH  16  18
HETATM   18  C11 UNL     1      26.817   1.742  52.120  1.00  0.00     0.125 A 
HETATM   19  C12 UNL     1      26.514   0.403  51.976  1.00  0.00     0.065 A 
HETATM   20  C13 UNL     1      27.401  -0.503  52.503  1.00  0.00     0.015 A 
HETATM   21  C14 UNL     1      27.090  -1.845  52.356  1.00  0.00     0.132 A 
HETATM   22  C16 UNL     1      28.558  -0.122  53.156  1.00  0.00     0.087 A 
HETATM   23  N4  UNL     1      27.903  -2.802  52.844  1.00  0.00    -0.253 NA
HETATM   24  C15 UNL     1      29.033  -2.388  53.481  1.00  0.00     0.233 A 
HETATM   25  N5  UNL     1      29.370  -1.086  53.643  1.00  0.00    -0.240 NA
HETATM   26  C17 UNL     1      28.827   1.214  53.280  1.00  0.00     0.151 A 
HETATM   27  N6  UNL     1      27.952   2.084  52.761  1.00  0.00    -0.241 NA
ENDBRANCH  16  18
ENDBRANCH   1  16
TORSDOF 10
ENDMDL
MODEL 5
REMARK VINA RESULT:      -6.8      2.327      5.487
REMARK  10 active torsions:
REMARK  status: ('A' for Active; 'I' for Inactive)
REMARK    1  A    between atoms: C2_2  and  N1_3 
REMARK    2  A    between atoms: N1_3  and  C4_5 
REMARK    3  A    between atoms: C4_5  and  C5_6 
REMARK    4  A    between atoms: C5_6  and  C6_7 
REMARK    5  A    between atoms: C6_7  and  N2_8 
REMARK    6  A    between atoms: C6_7  and  N3_15 
REMARK    7  A    between atoms: N2_8  and  C7_9 
REMARK    8  A    between atoms: C7_9  and  C8_10 
REMARK    9  A    between atoms: C9_11  and  C10_13 
REMARK   10  A    between atoms: N3_15  and  C11_16 
ROOT
HETATM    1  C6  UNL     1      26.258   2.682  51.839  1.00  0.00     0.322 C 
ENDROOT
BRANCH   1   2
HETATM    2  C5  UNL     1      27.360   1.758  52.232  1.00  0.00     0.087 C 
BRANCH   2   3
HETATM    3  C4  UNL     1      28.109   2.178  53.451  1.00  0.00     0.275 C 
BRANCH   3   4
HETATM    4  N1  UNL     1      28.598   1.124  54.280  1.00  0.00     0.084 N 
HETATM    5  C3  UNL     1      27.512   0.248  54.672  1.00  0.00     0.309 C 
BRANCH   4   6
HETATM    6  C2  UNL     1      29.632   0.442  53.553  1.00  0.00     0.267 C 
HETATM    7  C1  UNL     1      29.639  -1.038  53.734  1.00  0.00     0.037 C 
ENDBRANCH   4   6
ENDBRANCH   3   4
ENDBRANCH   2   3
ENDBRANCH   1   2
BRANCH   1   8
HETATM    8  N2  UNL     1      26.571   3.610  50.794  1.00  0.00     0.109 N 
HETATM    9  H14 UNL     1      27.265   3.119  50.160  1.00  0.00     0.318 HD
BRANCH   8  10
HETATM   10  C7  UNL     1      25.465   4.018  49.991  1.00  0.00     0.301 C 
BRANCH  10  11
HETATM   11  C8  UNL     1      25.276   5.502  49.993  1.00  0.00     0.025 C 
HETATM   12  C9  UNL     1      24.370   6.010  50.803  1.00  0.00     0.038 C 
HETATM   13 CL1  UNL     1      23.397   5.006  51.858  1.00  0.00    -0.087 Cl
BRANCH  12  14
HETATM   14  C10 UNL     1      23.999   7.434  50.994  1.00  0.00     0.273 C 
HETATM   15  F1  UNL     1      23.255   7.910  49.913  1.00  0.00    -0.250 F 
ENDBRANCH  12  14
ENDBRANCH  10  11
ENDBRANCH   8  10
ENDBRANCH   1   8
BRANCH   1  16
HETATM   16  N3  UNL     1      25.139   1.876  51.367  1.00  0.00    -0.345 N 
HETATM   17  H20 UNL     1      24.934   1.670  50.365  1.00  0.00     0.163 HD
BRANCH  16  18
HETATM   18  C11 UNL     1      24.062   1.170  51.965  1.00  0.00     0.125 A 
HETATM   19  C12 UNL     1      24.083   0.364  53.086  1.00  0.00     0.065 A 
HETATM   20  C13 UNL     1      22.896  -0.212  53.468  1.00  0.00     0.015 A 
HETATM   21  C14 UNL     1      22.925  -1.021  54.593  1.00  0.00     0.132 A 
HETATM   22  C16 UNL     1      21.714  -0.013  52.782  1.00  0.00     0.087 A 
HETATM   23  N4  UNL     1      21.809  -1.627  55.038  1.00  0.00    -0.253 NA
HETATM   24  C15 UNL     1      20.663  -1.407  54.336  1.00  0.00     0.233 A 
HETATM   25  N5  UNL     1      20.596  -0.623  53.234  1.00  0.00    -0.240 NA
HETATM   26  C17 UNL     1      21.730   0.793  51.676  1.00  0.00     0.151 A 
HETATM   27  N6  UNL     1      22.894   1.346  51.316  1.00  0.00    -0.241 NA
ENDBRANCH  16  18
ENDBRANCH   1  16
TORSDOF 10
ENDMDL
MODEL 6
REMARK VINA RESULT:      -6.8      1.279      1.835
REMARK  10 active torsions:
REMARK  status: ('A' for Active; 'I' for Inactive)
REMARK    1  A    between atoms: C2_2  and  N1_3 
REMARK    2  A    between atoms: N1_3  and  C4_5 
REMARK    3  A    between atoms: C4_5  and  C5_6 
REMARK    4  A    between atoms: C5_6  and  C6_7 
REMARK    5  A    between atoms: C6_7  and  N2_8 
REMARK    6  A    between atoms: C6_7  and  N3_15 
REMARK    7  A    between atoms: N2_8  and  C7_9 
REMARK    8  A    between atoms: C7_9  and  C8_10 
REMARK    9  A    between atoms: C9_11  and  C10_13 
REMARK   10  A    between atoms: N3_15  and  C11_16 
ROOT
HETATM    1  C6  UNL     1      22.542   2.119  51.285  1.00  0.00     0.322 C 
ENDROOT
BRANCH   1   2
HETATM    2  C5  UNL     1      21.765   2.213  52.555  1.00  0.00     0.087 C 
BRANCH   2   3
HETATM    3  C4  UNL     1      20.515   1.400  52.572  1.00  0.00     0.275 C 
BRANCH   3   4
HETATM    4  N1  UNL     1      20.332   0.557  53.708  1.00  0.00     0.084 N 
HETATM    5  C3  UNL     1      19.511  -0.585  53.361  1.00  0.00     0.309 C 
BRANCH   4   6
HETATM    6  C2  UNL     1      21.634   0.185  54.189  1.00  0.00     0.267 C 
HETATM    7  C1  UNL     1      21.865  -1.287  54.265  1.00  0.00     0.037 C 
ENDBRANCH   4   6
ENDBRANCH   3   4
ENDBRANCH   2   3
ENDBRANCH   1   2
BRANCH   1   8
HETATM    8  N2  UNL     1      23.200   3.321  50.871  1.00  0.00     0.109 N 
HETATM    9  H14 UNL     1      24.067   3.407  51.476  1.00  0.00     0.318 HD
BRANCH   8  10
HETATM   10  C7  UNL     1      23.620   3.348  49.508  1.00  0.00     0.301 C 
BRANCH  10  11
HETATM   11  C8  UNL     1      24.436   4.560  49.187  1.00  0.00     0.025 C 
HETATM   12  C9  UNL     1      25.748   4.456  49.242  1.00  0.00     0.038 C 
HETATM   13 CL1  UNL     1      26.546   2.957  49.676  1.00  0.00    -0.087 Cl
BRANCH  12  14
HETATM   14  C10 UNL     1      26.767   5.499  48.969  1.00  0.00     0.273 C 
HETATM   15  F1  UNL     1      27.914   4.945  48.397  1.00  0.00    -0.250 F 
ENDBRANCH  12  14
ENDBRANCH  10  11
ENDBRANCH   8  10
ENDBRANCH   1   8
BRANCH   1  16
HETATM   16  N3  UNL     1      23.578   1.110  51.462  1.00  0.00    -0.345 N 
HETATM   17  H20 UNL     1      23.602   0.188  50.974  1.00  0.00     0.163 HD
BRANCH  16  18
HETATM   18  C11 UNL     1      24.764   0.985  52.233  1.00  0.00     0.125 A 
HETATM   19  C12 UNL     1      25.664  -0.062  52.258  1.00  0.00     0.065 A 
HETATM   20  C13 UNL     1      26.745   0.058  53.096  1.00  0.00     0.015 A 
HETATM   21  C14 UNL     1      27.643  -0.997  53.117  1.00  0.00     0.132 A 
HETATM   22  C16 UNL     1      26.953   1.167  53.893  1.00  0.00     0.087 A 
HETATM   23  N4  UNL     1      28.730  -0.965  53.911  1.00  0.00    -0.253 NA
HETATM   24  C15 UNL     1      28.901   0.145  54.682  1.00  0.00     0.233 A 
HETATM   25  N5  UNL     1      28.046   1.194  54.687  1.00  0.00    -0.240 NA
HETATM   26  C17 UNL     1      26.041   2.187  53.842  1.00  0.00     0.151 A 
HETATM   27  N6  UNL     1      24.993   2.054  53.021  1.00  0.00    -0.241 NA
ENDBRANCH  16  18
ENDBRANCH   1  16
TORSDOF 10
ENDMDL
MODEL 7
REMARK VINA RESULT:      -6.8      2.043      2.422
REMARK  10 active torsions:
REMARK  status: ('A' for Active; 'I' for Inactive)
REMARK    1  A    between atoms: C2_2  and  N1_3 
REMARK    2  A    between atoms: N1_3  and  C4_5 
REMARK    3  A    between atoms: C4_5  and  C5_6 
REMARK    4  A    between atoms: C5_6  and  C6_7 
REMARK    5  A    between atoms: C6_7  and  N2_8 
REMARK    6  A    between atoms: C6_7  and  N3_15 
REMARK    7  A    between atoms: N2_8  and  C7_9 
REMARK    8  A    between atoms: C7_9  and  C8_10 
REMARK    9  A    between atoms: C9_11  and  C10_13 
REMARK   10  A    between atoms: N3_15  and  C11_16 
ROOT
HETATM    1  C6  UNL     1      24.414   2.995  51.960  1.00  0.00     0.322 C 
ENDROOT
BRANCH   1   2
HETATM    2  C5  UNL     1      23.156   2.746  52.722  1.00  0.00     0.087 C 
BRANCH   2   3
HETATM    3  C4  UNL     1      22.446   1.491  52.342  1.00  0.00     0.275 C 
BRANCH   3   4
HETATM    4  N1  UNL     1      21.863   0.753  53.415  1.00  0.00     0.084 N 
HETATM    5  C3  UNL     1      20.593   0.188  53.005  1.00  0.00     0.309 C 
BRANCH   4   6
HETATM    6  C2  UNL     1      22.812  -0.244  53.825  1.00  0.00     0.267 C 
HETATM    7  C1  UNL     1      22.347  -1.117  54.941  1.00  0.00     0.037 C 
ENDBRANCH   4   6
ENDBRANCH   3   4
ENDBRANCH   2   3
ENDBRANCH   1   2
BRANCH   1   8
HETATM    8  N2  UNL     1      24.603   4.338  51.499  1.00  0.00     0.109 N 
HETATM    9  H14 UNL     1      25.642   4.536  51.584  1.00  0.00     0.318 HD
BRANCH   8  10
HETATM   10  C7  UNL     1      24.228   4.574  50.143  1.00  0.00     0.301 C 
BRANCH  10  11
HETATM   11  C8  UNL     1      23.905   3.308  49.413  1.00  0.00     0.025 C 
HETATM   12  C9  UNL     1      22.670   3.134  48.990  1.00  0.00     0.038 C 
HETATM   13 CL1  UNL     1      21.418   4.330  49.258  1.00  0.00    -0.087 Cl
BRANCH  12  14
HETATM   14  C10 UNL     1      22.104   1.982  48.247  1.00  0.00     0.273 C 
HETATM   15  F1  UNL     1      22.911   1.634  47.163  1.00  0.00    -0.250 F 
ENDBRANCH  12  14
ENDBRANCH  10  11
ENDBRANCH   8  10
ENDBRANCH   1   8
BRANCH   1  16
HETATM   16  N3  UNL     1      25.539   2.686  52.832  1.00  0.00    -0.345 N 
HETATM   17  H20 UNL     1      25.908   3.317  53.576  1.00  0.00     0.163 HD
BRANCH  16  18
HETATM   18  C11 UNL     1      26.436   1.597  52.999  1.00  0.00     0.125 A 
HETATM   19  C12 UNL     1      26.259   0.277  52.635  1.00  0.00     0.065 A 
HETATM   20  C13 UNL     1      27.286  -0.594  52.906  1.00  0.00     0.015 A 
HETATM   21  C14 UNL     1      27.100  -1.917  52.539  1.00  0.00     0.132 A 
HETATM   22  C16 UNL     1      28.461  -0.196  53.515  1.00  0.00     0.087 A 
HETATM   23  N4  UNL     1      28.054  -2.839  52.768  1.00  0.00    -0.253 NA
HETATM   24  C15 UNL     1      29.198  -2.410  53.370  1.00  0.00     0.233 A 
HETATM   25  N5  UNL     1      29.415  -1.126  53.742  1.00  0.00    -0.240 NA
HETATM   26  C17 UNL     1      28.602   1.120  53.861  1.00  0.00     0.151 A 
HETATM   27  N6  UNL     1      27.593   1.955  53.591  1.00  0.00    -0.241 NA
ENDBRANCH  16  18
ENDBRANCH   1  16
TORSDOF 10
ENDMDL
MODEL 8
REMARK VINA RESULT:      -6.8      3.146      6.554
REMARK  10 active torsions:
REMARK  status: ('A' for Active; 'I' for Inactive)
REMARK    1  A    between atoms: C2_2  and  N1_3 
REMARK    2  A    between atoms: N1_3  and  C4_5 
REMARK    3  A    between atoms: C4_5  and  C5_6 
REMARK    4  A    between atoms: C5_6  and  C6_7 
REMARK    5  A    between atoms: C6_7  and  N2_8 
REMARK    6  A    between atoms: C6_7  and  N3_15 
REMARK    7  A    between atoms: N2_8  and  C7_9 
REMARK    8  A    between atoms: C7_9  and  C8_10 
REMARK    9  A    between atoms: C9_11  and  C10_13 
REMARK   10  A    between atoms: N3_15  and  C11_16 
ROOT
HETATM    1  C6  UNL     1      24.906   3.024  50.382  1.00  0.00     0.322 C 
ENDROOT
BRANCH   1   2
HETATM    2  C5  UNL     1      24.842   4.135  49.389  1.00  0.00     0.087 C 
BRANCH   2   3
HETATM    3  C4  UNL     1      25.667   5.325  49.746  1.00  0.00     0.275 C 
BRANCH   3   4
HETATM    4  N1  UNL     1      26.529   5.818  48.721  1.00  0.00     0.084 N 
HETATM    5  C3  UNL     1      26.917   7.185  49.005  1.00  0.00     0.309 C 
BRANCH   4   6
HETATM    6  C2  UNL     1      27.651   4.926  48.629  1.00  0.00     0.267 C 
HETATM    7  C1  UNL     1      28.935   5.587  48.256  1.00  0.00     0.037 C 
ENDBRANCH   4   6
ENDBRANCH   3   4
ENDBRANCH   2   3
ENDBRANCH   1   2
BRANCH   1   8
HETATM    8  N2  UNL     1      25.750   3.253  51.515  1.00  0.00     0.109 N 
HETATM    9  H14 UNL     1      25.130   3.163  52.370  1.00  0.00     0.318 HD
BRANCH   8  10
HETATM   10  C7  UNL     1      26.831   2.334  51.665  1.00  0.00     0.301 C 
BRANCH  10  11
HETATM   11  C8  UNL     1      27.117   2.023  53.101  1.00  0.00     0.025 C 
HETATM   12  C9  UNL     1      27.123   0.759  53.472  1.00  0.00     0.038 C 
HETATM   13 CL1  UNL     1      26.807  -0.544  52.344  1.00  0.00    -0.087 Cl
BRANCH  12  14
HETATM   14  C10 UNL     1      27.380   0.196  54.820  1.00  0.00     0.273 C 
HETATM   15  F1  UNL     1      28.664  -0.344  54.904  1.00  0.00    -0.250 F 
ENDBRANCH  12  14
ENDBRANCH  10  11
ENDBRANCH   8  10
ENDBRANCH   1   8
BRANCH   1  16
HETATM   16  N3  UNL     1      23.560   2.800  50.896  1.00  0.00    -0.345 N 
HETATM   17  H20 UNL     1      22.746   3.430  50.730  1.00  0.00     0.163 HD
BRANCH  16  18
HETATM   18  C11 UNL     1      22.920   1.814  51.693  1.00  0.00     0.125 A 
HETATM   19  C12 UNL     1      23.476   0.997  52.657  1.00  0.00     0.065 A 
HETATM   20  C13 UNL     1      22.638   0.116  53.295  1.00  0.00     0.015 A 
HETATM   21  C14 UNL     1      23.203  -0.701  54.261  1.00  0.00     0.132 A 
HETATM   22  C16 UNL     1      21.289   0.027  53.008  1.00  0.00     0.087 A 
HETATM   23  N4  UNL     1      22.455  -1.595  54.935  1.00  0.00    -0.253 NA
HETATM   24  C15 UNL     1      21.131  -1.654  54.624  1.00  0.00     0.233 A 
HETATM   25  N5  UNL     1      20.544  -0.872  53.688  1.00  0.00    -0.240 NA
HETATM   26  C17 UNL     1      20.772   0.853  52.046  1.00  0.00     0.151 A 
HETATM   27  N6  UNL     1      21.602   1.705  51.434  1.00  0.00    -0.241 NA
ENDBRANCH  16  18
ENDBRANCH   1  16
TORSDOF 10
ENDMDL
MODEL 9
REMARK VINA RESULT:      -6.6      3.049      6.187
REMARK  10 active torsions:
REMARK  status: ('A' for Active; 'I' for Inactive)
REMARK    1  A    between atoms: C2_2  and  N1_3 
REMARK    2  A    between atoms: N1_3  and  C4_5 
REMARK    3  A    between atoms: C4_5  and  C5_6 
REMARK    4  A    between atoms: C5_6  and  C6_7 
REMARK    5  A    between atoms: C6_7  and  N2_8 
REMARK    6  A    between atoms: C6_7  and  N3_15 
REMARK    7  A    between atoms: N2_8  and  C7_9 
REMARK    8  A    between atoms: C7_9  and  C8_10 
REMARK    9  A    between atoms: C9_11  and  C10_13 
REMARK   10  A    between atoms: N3_15  and  C11_16 
ROOT
HETATM    1  C6  UNL     1      25.752   2.591  50.881  1.00  0.00     0.322 C 
ENDROOT
BRANCH   1   2
HETATM    2  C5  UNL     1      25.469   3.386  49.651  1.00  0.00     0.087 C 
BRANCH   2   3
HETATM    3  C4  UNL     1      25.798   4.836  49.767  1.00  0.00     0.275 C 
BRANCH   3   4
HETATM    4  N1  UNL     1      24.715   5.741  49.560  1.00  0.00     0.084 N 
HETATM    5  C3  UNL     1      23.625   5.074  48.876  1.00  0.00     0.309 C 
BRANCH   4   6
HETATM    6  C2  UNL     1      24.332   6.264  50.842  1.00  0.00     0.267 C 
HETATM    7  C1  UNL     1      23.875   7.683  50.817  1.00  0.00     0.037 C 
ENDBRANCH   4   6
ENDBRANCH   3   4
ENDBRANCH   2   3
ENDBRANCH   1   2
BRANCH   1   8
HETATM    8  N2  UNL     1      26.881   3.022  51.651  1.00  0.00     0.109 N 
HETATM    9  H14 UNL     1      26.595   3.935  52.110  1.00  0.00     0.318 HD
BRANCH   8  10
HETATM   10  C7  UNL     1      27.290   2.128  52.685  1.00  0.00     0.301 C 
BRANCH  10  11
HETATM   11  C8  UNL     1      27.325   0.705  52.224  1.00  0.00     0.025 C 
HETATM   12  C9  UNL     1      27.256  -0.244  53.136  1.00  0.00     0.038 C 
HETATM   13 CL1  UNL     1      27.125   0.117  54.845  1.00  0.00    -0.087 Cl
BRANCH  12  14
HETATM   14  C10 UNL     1      27.268  -1.714  52.939  1.00  0.00     0.273 C 
HETATM   15  F1  UNL     1      26.617  -2.070  51.757  1.00  0.00    -0.250 F 
ENDBRANCH  12  14
ENDBRANCH  10  11
ENDBRANCH   8  10
ENDBRANCH   1   8
BRANCH   1  16
HETATM   16  N3  UNL     1      24.588   2.679  51.753  1.00  0.00    -0.345 N 
HETATM   17  H20 UNL     1      24.246   3.555  52.205  1.00  0.00     0.163 HD
BRANCH  16  18
HETATM   18  C11 UNL     1      23.617   1.773  52.258  1.00  0.00     0.125 A 
HETATM   19  C12 UNL     1      23.779   0.784  53.206  1.00  0.00     0.065 A 
HETATM   20  C13 UNL     1      22.674   0.034  53.529  1.00  0.00     0.015 A 
HETATM   21  C14 UNL     1      22.845  -0.959  54.481  1.00  0.00     0.132 A 
HETATM   22  C16 UNL     1      21.438   0.237  52.946  1.00  0.00     0.087 A 
HETATM   23  N4  UNL     1      21.817  -1.743  54.855  1.00  0.00    -0.253 NA
HETATM   24  C15 UNL     1      20.614  -1.512  54.259  1.00  0.00     0.233 A 
HETATM   25  N5  UNL     1      20.409  -0.552  53.327  1.00  0.00    -0.240 NA
HETATM   26  C17 UNL     1      21.314   1.228  52.010  1.00  0.00     0.151 A 
HETATM   27  N6  UNL     1      22.399   1.949  51.707  1.00  0.00    -0.241 NA
ENDBRANCH  16  18
ENDBRANCH   1  16
TORSDOF 10
ENDMDL
