MODEL 1
REMARK VINA RESULT:      -8.3      0.000      0.000
REMARK  4 active torsions:
REMARK  status: ('A' for Active; 'I' for Inactive)
REMARK    1  A    between atoms: C2_2  and  C3_3 
REMARK       I    between atoms: C3_3  and  N1_5 
REMARK    2  A    between atoms: C5_7  and  C6_8 
REMARK    3  A    between atoms: C7_10  and  C8_11 
REMARK    4  A    between atoms: C11_16  and  C12_17 
ROOT
HETATM    1  C6  UNL     1      22.889   1.599  52.782  1.00  0.00     0.148 C 
HETATM    2  N2  UNL     1      23.914   1.102  52.108  1.00  0.00    -0.254 NA
HETATM    3  C7  UNL     1      24.574  -0.223  52.435  1.00  0.00     0.198 C 
HETATM    4  C13 UNL     1      23.695  -0.677  53.553  1.00  0.00     0.064 C 
HETATM    5  C14 UNL     1      23.435  -0.916  54.806  1.00  0.00     0.042 C 
HETATM    6  C15 UNL     1      22.164  -0.179  54.549  1.00  0.00     0.219 C 
HETATM    7  O2  UNL     1      22.274   0.987  53.853  1.00  0.00    -0.321 OA
HETATM    8  C16 UNL     1      21.513  -1.257  53.711  1.00  0.00     0.137 C 
HETATM    9 CL1  UNL     1      20.136  -2.237  54.188  1.00  0.00    -0.064 Cl
HETATM   10  N5  UNL     1      22.416  -0.918  52.875  1.00  0.00    -0.240 NA
ENDROOT
BRANCH   1  11
HETATM   11  C5  UNL     1      22.355   2.925  52.353  1.00  0.00     0.154 C 
HETATM   12  C4  UNL     1      22.122   2.975  50.863  1.00  0.00     0.145 C 
HETATM   13  N1  UNL     1      23.158   3.805  50.307  1.00  0.00    -0.342 N 
HETATM   14  C3  UNL     1      23.274   4.143  48.933  1.00  0.00     0.242 C 
HETATM   15  C18 UNL     1      24.084   4.259  51.330  1.00  0.00     0.206 C 
HETATM   16  O1  UNL     1      24.219   4.885  48.508  1.00  0.00    -0.268 OA
HETATM   17  C17 UNL     1      23.361   3.988  52.632  1.00  0.00     0.271 C 
HETATM   18  F2  UNL     1      24.225   3.710  53.646  1.00  0.00    -0.204 F 
HETATM   19  F3  UNL     1      22.655   5.132  52.964  1.00  0.00    -0.204 F 
BRANCH  14  20
HETATM   20  C2  UNL     1      22.322   3.665  47.945  1.00  0.00     0.064 C 
HETATM   21  C1  UNL     1      22.449   2.489  47.379  1.00  0.00     0.017 C 
ENDBRANCH  14  20
ENDBRANCH   1  11
BRANCH   3  22
HETATM   22  C8  UNL     1      25.969   0.011  52.760  1.00  0.00     0.018 A 
HETATM   23  C9  UNL     1      26.486   1.290  53.033  1.00  0.00     0.123 A 
HETATM   24  N3  UNL     1      27.793   1.294  53.302  1.00  0.00    -0.284 N 
HETATM   25  C10 UNL     1      28.643   2.421  53.623  1.00  0.00     0.179 C 
HETATM   26  N4  UNL     1      28.188   0.040  53.221  1.00  0.00    -0.175 NA
HETATM   27  C11 UNL     1      27.113  -0.738  52.898  1.00  0.00     0.093 A 
BRANCH  27  28
HETATM   28  C12 UNL     1      27.227  -2.205  52.730  1.00  0.00     0.283 C 
HETATM   29  F1  UNL     1      26.547  -2.732  51.685  1.00  0.00    -0.249 F 
ENDBRANCH  27  28
ENDBRANCH   3  22
TORSDOF 4
ENDMDL
MODEL 2
REMARK VINA RESULT:      -8.2      3.172      4.896
REMARK  4 active torsions:
REMARK  status: ('A' for Active; 'I' for Inactive)
REMARK    1  A    between atoms: C2_2  and  C3_3 
REMARK       I    between atoms: C3_3  and  N1_5 
REMARK    2  A    between atoms: C5_7  and  C6_8 
REMARK    3  A    between atoms: C7_10  and  C8_11 
REMARK    4  A    between atoms: C11_16  and  C12_17 
ROOT
HETATM    1  C6  UNL     1      23.912   0.226  52.977  1.00  0.00     0.148 C 
HETATM    2  N2  UNL     1      24.870   0.162  53.888  1.00  0.00    -0.254 NA
HETATM    3  C7  UNL     1      26.013   1.153  53.978  1.00  0.00     0.198 C 
HETATM    4  C13 UNL     1      25.625   2.091  52.884  1.00  0.00     0.064 C 
HETATM    5  C14 UNL     1      25.751   2.614  51.699  1.00  0.00     0.042 C 
HETATM    6  C15 UNL     1      24.279   2.407  51.592  1.00  0.00     0.219 C 
HETATM    7  O2  UNL     1      23.809   1.195  52.003  1.00  0.00    -0.321 OA
HETATM    8  C16 UNL     1      23.886   3.503  52.558  1.00  0.00     0.137 C 
HETATM    9 CL1  UNL     1      23.090   5.009  52.133  1.00  0.00    -0.064 Cl
HETATM   10  N5  UNL     1      24.400   2.704  53.411  1.00  0.00    -0.240 NA
ENDROOT
BRANCH   1  11
HETATM   11  C5  UNL     1      22.860  -0.832  53.002  1.00  0.00     0.154 C 
HETATM   12  C4  UNL     1      21.732  -0.518  52.050  1.00  0.00     0.145 C 
HETATM   13  N1  UNL     1      20.606  -0.121  52.854  1.00  0.00    -0.342 N 
HETATM   14  C3  UNL     1      19.326   0.217  52.343  1.00  0.00     0.242 C 
HETATM   15  C18 UNL     1      20.939  -0.107  54.267  1.00  0.00     0.206 C 
HETATM   16  O1  UNL     1      18.371   0.560  53.113  1.00  0.00    -0.268 OA
HETATM   17  C17 UNL     1      22.233  -0.889  54.353  1.00  0.00     0.271 C 
HETATM   18  F2  UNL     1      23.023  -0.457  55.372  1.00  0.00    -0.204 F 
HETATM   19  F3  UNL     1      21.906  -2.214  54.588  1.00  0.00    -0.204 F 
BRANCH  14  20
HETATM   20  C2  UNL     1      19.039   0.188  50.919  1.00  0.00     0.064 C 
HETATM   21  C1  UNL     1      17.809   0.157  50.464  1.00  0.00     0.017 C 
ENDBRANCH  14  20
ENDBRANCH   1  11
BRANCH   3  22
HETATM   22  C8  UNL     1      27.269   0.444  53.809  1.00  0.00     0.018 A 
HETATM   23  C9  UNL     1      27.337  -0.922  53.481  1.00  0.00     0.123 A 
HETATM   24  N3  UNL     1      28.584  -1.388  53.378  1.00  0.00    -0.284 N 
HETATM   25  C10 UNL     1      29.020  -2.731  53.059  1.00  0.00     0.179 C 
HETATM   26  N4  UNL     1      29.378  -0.368  53.630  1.00  0.00    -0.175 NA
HETATM   27  C11 UNL     1      28.611   0.732  53.889  1.00  0.00     0.093 A 
BRANCH  27  28
HETATM   28  C12 UNL     1      29.207   2.048  54.210  1.00  0.00     0.283 C 
HETATM   29  F1  UNL     1      28.904   3.056  53.358  1.00  0.00    -0.249 F 
ENDBRANCH  27  28
ENDBRANCH   3  22
TORSDOF 4
ENDMDL
MODEL 3
REMARK VINA RESULT:      -8.2      3.067      4.978
REMARK  4 active torsions:
REMARK  status: ('A' for Active; 'I' for Inactive)
REMARK    1  A    between atoms: C2_2  and  C3_3 
REMARK       I    between atoms: C3_3  and  N1_5 
REMARK    2  A    between atoms: C5_7  and  C6_8 
REMARK    3  A    between atoms: C7_10  and  C8_11 
REMARK    4  A    between atoms: C11_16  and  C12_17 
ROOT
HETATM    1  C6  UNL     1      24.657   1.865  51.422  1.00  0.00     0.148 C 
HETATM    2  N2  UNL     1      23.744   1.936  52.377  1.00  0.00    -0.254 NA
HETATM    3  C7  UNL     1      23.743   1.052  53.609  1.00  0.00     0.198 C 
HETATM    4  C13 UNL     1      25.005   0.289  53.376  1.00  0.00     0.064 C 
HETATM    5  C14 UNL     1      25.678  -0.780  53.061  1.00  0.00     0.042 C 
HETATM    6  C15 UNL     1      26.456   0.130  52.172  1.00  0.00     0.219 C 
HETATM    7  O2  UNL     1      25.730   1.001  51.415  1.00  0.00    -0.321 OA
HETATM    8  C16 UNL     1      27.195   0.851  53.278  1.00  0.00     0.137 C 
HETATM    9 CL1  UNL     1      28.911   0.716  53.624  1.00  0.00    -0.064 Cl
HETATM   10  N5  UNL     1      26.034   1.326  53.515  1.00  0.00    -0.240 NA
ENDROOT
BRANCH   1  11
HETATM   11  C5  UNL     1      24.517   2.790  50.259  1.00  0.00     0.154 C 
HETATM   12  C4  UNL     1      24.586   4.236  50.687  1.00  0.00     0.145 C 
HETATM   13  N1  UNL     1      23.250   4.762  50.592  1.00  0.00    -0.342 N 
HETATM   14  C3  UNL     1      22.888   6.108  50.866  1.00  0.00     0.242 C 
HETATM   15  C18 UNL     1      22.303   3.742  50.178  1.00  0.00     0.206 C 
HETATM   16  O1  UNL     1      21.684   6.508  50.761  1.00  0.00    -0.268 OA
HETATM   17  C17 UNL     1      23.171   2.624  49.641  1.00  0.00     0.271 C 
HETATM   18  F2  UNL     1      22.601   1.403  49.825  1.00  0.00    -0.204 F 
HETATM   19  F3  UNL     1      23.326   2.831  48.281  1.00  0.00    -0.204 F 
BRANCH  14  20
HETATM   20  C2  UNL     1      23.872   7.095  51.277  1.00  0.00     0.064 C 
HETATM   21  C1  UNL     1      24.167   8.128  50.526  1.00  0.00     0.017 C 
ENDBRANCH  14  20
ENDBRANCH   1  11
BRANCH   3  22
HETATM   22  C8  UNL     1      22.514   0.280  53.637  1.00  0.00     0.018 A 
HETATM   23  C9  UNL     1      21.380   0.621  52.877  1.00  0.00     0.123 A 
HETATM   24  N3  UNL     1      20.350  -0.211  53.049  1.00  0.00    -0.284 N 
HETATM   25  C10 UNL     1      19.041  -0.162  52.432  1.00  0.00     0.179 C 
HETATM   26  N4  UNL     1      20.752  -1.120  53.913  1.00  0.00    -0.175 NA
HETATM   27  C11 UNL     1      22.040  -0.842  54.274  1.00  0.00     0.093 A 
BRANCH  27  28
HETATM   28  C12 UNL     1      22.784  -1.683  55.239  1.00  0.00     0.283 C 
HETATM   29  F1  UNL     1      23.607  -1.019  56.085  1.00  0.00    -0.249 F 
ENDBRANCH  27  28
ENDBRANCH   3  22
TORSDOF 4
ENDMDL
MODEL 4
REMARK VINA RESULT:      -8.0      2.075      2.446
REMARK  4 active torsions:
REMARK  status: ('A' for Active; 'I' for Inactive)
REMARK    1  A    between atoms: C2_2  and  C3_3 
REMARK       I    between atoms: C3_3  and  N1_5 
REMARK    2  A    between atoms: C5_7  and  C6_8 
REMARK    3  A    between atoms: C7_10  and  C8_11 
REMARK    4  A    between atoms: C11_16  and  C12_17 
ROOT
HETATM    1  C6  UNL     1      22.011   1.863  51.874  1.00  0.00     0.148 C 
HETATM    2  N2  UNL     1      23.117   1.143  51.776  1.00  0.00    -0.254 NA
HETATM    3  C7  UNL     1      23.448  -0.020  52.691  1.00  0.00     0.198 C 
HETATM    4  C13 UNL     1      22.205  -0.055  53.518  1.00  0.00     0.064 C 
HETATM    5  C14 UNL     1      21.530   0.137  54.614  1.00  0.00     0.042 C 
HETATM    6  C15 UNL     1      20.523   0.786  53.727  1.00  0.00     0.219 C 
HETATM    7  O2  UNL     1      21.009   1.656  52.797  1.00  0.00    -0.321 OA
HETATM    8  C16 UNL     1      20.027  -0.488  53.078  1.00  0.00     0.137 C 
HETATM    9 CL1  UNL     1      18.448  -1.215  53.319  1.00  0.00    -0.064 Cl
HETATM   10  N5  UNL     1      21.188  -0.469  52.545  1.00  0.00    -0.240 NA
ENDROOT
BRANCH   1  11
HETATM   11  C5  UNL     1      21.832   2.990  50.912  1.00  0.00     0.154 C 
HETATM   12  C4  UNL     1      23.115   3.313  50.186  1.00  0.00     0.145 C 
HETATM   13  N1  UNL     1      23.602   4.552  50.732  1.00  0.00    -0.342 N 
HETATM   14  C3  UNL     1      24.770   5.227  50.290  1.00  0.00     0.242 C 
HETATM   15  C18 UNL     1      22.748   5.036  51.802  1.00  0.00     0.206 C 
HETATM   16  O1  UNL     1      25.145   6.324  50.818  1.00  0.00    -0.268 OA
HETATM   17  C17 UNL     1      21.473   4.233  51.652  1.00  0.00     0.271 C 
HETATM   18  F2  UNL     1      20.854   4.032  52.847  1.00  0.00    -0.204 F 
HETATM   19  F3  UNL     1      20.618   4.954  50.836  1.00  0.00    -0.204 F 
BRANCH  14  20
HETATM   20  C2  UNL     1      25.594   4.704  49.213  1.00  0.00     0.064 C 
HETATM   21  C1  UNL     1      26.637   3.946  49.450  1.00  0.00     0.017 C 
ENDBRANCH  14  20
ENDBRANCH   1  11
BRANCH   3  22
HETATM   22  C8  UNL     1      24.686   0.266  53.393  1.00  0.00     0.018 A 
HETATM   23  C9  UNL     1      25.623   1.210  52.935  1.00  0.00     0.123 A 
HETATM   24  N3  UNL     1      26.698   1.321  53.718  1.00  0.00    -0.284 N 
HETATM   25  C10 UNL     1      27.848   2.185  53.551  1.00  0.00     0.179 C 
HETATM   26  N4  UNL     1      26.521   0.471  54.708  1.00  0.00    -0.175 NA
HETATM   27  C11 UNL     1      25.326  -0.166  54.530  1.00  0.00     0.093 A 
BRANCH  27  28
HETATM   28  C12 UNL     1      24.833  -1.190  55.478  1.00  0.00     0.283 C 
HETATM   29  F1  UNL     1      25.167  -0.999  56.777  1.00  0.00    -0.249 F 
ENDBRANCH  27  28
ENDBRANCH   3  22
TORSDOF 4
ENDMDL
MODEL 5
REMARK VINA RESULT:      -7.9      2.845      3.500
REMARK  4 active torsions:
REMARK  status: ('A' for Active; 'I' for Inactive)
REMARK    1  A    between atoms: C2_2  and  C3_3 
REMARK       I    between atoms: C3_3  and  N1_5 
REMARK    2  A    between atoms: C5_7  and  C6_8 
REMARK    3  A    between atoms: C7_10  and  C8_11 
REMARK    4  A    between atoms: C11_16  and  C12_17 
ROOT
HETATM    1  C6  UNL     1      22.624   1.785  51.384  1.00  0.00     0.148 C 
HETATM    2  N2  UNL     1      23.349   0.705  51.623  1.00  0.00    -0.254 NA
HETATM    3  C7  UNL     1      22.968  -0.358  52.635  1.00  0.00     0.198 C 
HETATM    4  C13 UNL     1      21.650   0.180  53.086  1.00  0.00     0.064 C 
HETATM    5  C14 UNL     1      20.860   0.758  53.944  1.00  0.00     0.042 C 
HETATM    6  C15 UNL     1      20.434   1.599  52.789  1.00  0.00     0.219 C 
HETATM    7  O2  UNL     1      21.430   2.091  52.000  1.00  0.00    -0.321 OA
HETATM    8  C16 UNL     1      19.653   0.517  52.075  1.00  0.00     0.137 C 
HETATM    9 CL1  UNL     1      17.908   0.459  51.895  1.00  0.00    -0.064 Cl
HETATM   10  N5  UNL     1      20.820   0.035  51.884  1.00  0.00    -0.240 NA
ENDROOT
BRANCH   1  11
HETATM   11  C5  UNL     1      23.137   2.753  50.370  1.00  0.00     0.154 C 
HETATM   12  C4  UNL     1      22.834   4.179  50.758  1.00  0.00     0.145 C 
HETATM   13  N1  UNL     1      21.782   4.634  49.887  1.00  0.00    -0.342 N 
HETATM   14  C3  UNL     1      21.233   5.943  49.897  1.00  0.00     0.242 C 
HETATM   15  C18 UNL     1      21.342   3.582  48.988  1.00  0.00     0.206 C 
HETATM   16  O1  UNL     1      20.302   6.280  49.095  1.00  0.00    -0.268 OA
HETATM   17  C17 UNL     1      22.437   2.540  49.071  1.00  0.00     0.271 C 
HETATM   18  F2  UNL     1      21.959   1.282  48.875  1.00  0.00    -0.204 F 
HETATM   19  F3  UNL     1      23.355   2.816  48.071  1.00  0.00    -0.204 F 
BRANCH  14  20
HETATM   20  C2  UNL     1      21.706   6.964  50.816  1.00  0.00     0.064 C 
HETATM   21  C1  UNL     1      22.651   7.809  50.481  1.00  0.00     0.017 C 
ENDBRANCH  14  20
ENDBRANCH   1  11
BRANCH   3  22
HETATM   22  C8  UNL     1      24.010  -0.448  53.642  1.00  0.00     0.018 A 
HETATM   23  C9  UNL     1      25.308   0.056  53.446  1.00  0.00     0.123 A 
HETATM   24  N3  UNL     1      26.120  -0.133  54.488  1.00  0.00    -0.284 N 
HETATM   25  C10 UNL     1      27.508   0.254  54.630  1.00  0.00     0.179 C 
HETATM   26  N4  UNL     1      25.406  -0.759  55.401  1.00  0.00    -0.175 NA
HETATM   27  C11 UNL     1      24.146  -0.955  54.913  1.00  0.00     0.093 A 
BRANCH  27  28
HETATM   28  C12 UNL     1      23.095  -1.637  55.702  1.00  0.00     0.283 C 
HETATM   29  F1  UNL     1      22.215  -2.382  54.991  1.00  0.00    -0.249 F 
ENDBRANCH  27  28
ENDBRANCH   3  22
TORSDOF 4
ENDMDL
MODEL 6
REMARK VINA RESULT:      -7.9      3.009      5.002
REMARK  4 active torsions:
REMARK  status: ('A' for Active; 'I' for Inactive)
REMARK    1  A    between atoms: C2_2  and  C3_3 
REMARK       I    between atoms: C3_3  and  N1_5 
REMARK    2  A    between atoms: C5_7  and  C6_8 
REMARK    3  A    between atoms: C7_10  and  C8_11 
REMARK    4  A    between atoms: C11_16  and  C12_17 
ROOT
HETATM    1  C6  UNL     1      23.523   2.975  51.470  1.00  0.00     0.148 C 
HETATM    2  N2  UNL     1      22.630   2.698  52.406  1.00  0.00    -0.254 NA
HETATM    3  C7  UNL     1      22.802   1.599  53.436  1.00  0.00     0.198 C 
HETATM    4  C13 UNL     1      24.169   1.122  53.073  1.00  0.00     0.064 C 
HETATM    5  C14 UNL     1      25.006   0.267  52.560  1.00  0.00     0.042 C 
HETATM    6  C15 UNL     1      25.603   1.454  51.883  1.00  0.00     0.219 C 
HETATM    7  O2  UNL     1      24.726   2.323  51.306  1.00  0.00    -0.321 OA
HETATM    8  C16 UNL     1      26.231   2.053  53.122  1.00  0.00     0.137 C 
HETATM    9 CL1  UNL     1      27.952   2.143  53.460  1.00  0.00    -0.064 Cl
HETATM   10  N5  UNL     1      25.011   2.268  53.433  1.00  0.00    -0.240 NA
ENDROOT
BRANCH   1  11
HETATM   11  C5  UNL     1      23.207   4.077  50.514  1.00  0.00     0.154 C 
HETATM   12  C4  UNL     1      24.402   4.438  49.667  1.00  0.00     0.145 C 
HETATM   13  N1  UNL     1      24.886   5.706  50.147  1.00  0.00    -0.342 N 
HETATM   14  C3  UNL     1      25.978   6.420  49.588  1.00  0.00     0.242 C 
HETATM   15  C18 UNL     1      24.116   6.173  51.287  1.00  0.00     0.206 C 
HETATM   16  O1  UNL     1      26.354   7.540  50.064  1.00  0.00    -0.268 OA
HETATM   17  C17 UNL     1      22.868   5.317  51.268  1.00  0.00     0.271 C 
HETATM   18  F2  UNL     1      22.372   5.112  52.519  1.00  0.00    -0.204 F 
HETATM   19  F3  UNL     1      21.910   5.989  50.527  1.00  0.00    -0.204 F 
BRANCH  14  20
HETATM   20  C2  UNL     1      26.719   5.912  48.446  1.00  0.00     0.064 C 
HETATM   21  C1  UNL     1      27.835   5.239  48.592  1.00  0.00     0.017 C 
ENDBRANCH  14  20
ENDBRANCH   1  11
BRANCH   3  22
HETATM   22  C8  UNL     1      21.721   0.641  53.290  1.00  0.00     0.018 A 
HETATM   23  C9  UNL     1      20.573   0.895  52.517  1.00  0.00     0.123 A 
HETATM   24  N3  UNL     1      19.694  -0.109  52.517  1.00  0.00    -0.284 N 
HETATM   25  C10 UNL     1      18.418  -0.188  51.836  1.00  0.00     0.179 C 
HETATM   26  N4  UNL     1      20.212  -1.051  53.277  1.00  0.00    -0.175 NA
HETATM   27  C11 UNL     1      21.421  -0.621  53.746  1.00  0.00     0.093 A 
BRANCH  27  28
HETATM   28  C12 UNL     1      22.261  -1.455  54.634  1.00  0.00     0.283 C 
HETATM   29  F1  UNL     1      22.756  -0.833  55.731  1.00  0.00    -0.249 F 
ENDBRANCH  27  28
ENDBRANCH   3  22
TORSDOF 4
ENDMDL
MODEL 7
REMARK VINA RESULT:      -7.8      2.884      5.837
REMARK  4 active torsions:
REMARK  status: ('A' for Active; 'I' for Inactive)
REMARK    1  A    between atoms: C2_2  and  C3_3 
REMARK       I    between atoms: C3_3  and  N1_5 
REMARK    2  A    between atoms: C5_7  and  C6_8 
REMARK    3  A    between atoms: C7_10  and  C8_11 
REMARK    4  A    between atoms: C11_16  and  C12_17 
ROOT
HETATM    1  C6  UNL     1      23.693   2.031  52.315  1.00  0.00     0.148 C 
HETATM    2  N2  UNL     1      23.851   3.344  52.266  1.00  0.00    -0.254 NA
HETATM    3  C7  UNL     1      23.412   4.202  51.095  1.00  0.00     0.198 C 
HETATM    4  C13 UNL     1      22.775   3.158  50.238  1.00  0.00     0.064 C 
HETATM    5  C14 UNL     1      22.730   2.369  49.203  1.00  0.00     0.042 C 
HETATM    6  C15 UNL     1      22.362   1.312  50.188  1.00  0.00     0.219 C 
HETATM    7  O2  UNL     1      23.105   1.266  51.330  1.00  0.00    -0.321 OA
HETATM    8  C16 UNL     1      20.964   1.819  50.464  1.00  0.00     0.137 C 
HETATM    9 CL1  UNL     1      19.472   1.032  49.980  1.00  0.00    -0.064 Cl
HETATM   10  N5  UNL     1      21.602   2.770  51.030  1.00  0.00    -0.240 NA
ENDROOT
BRANCH   1  11
HETATM   11  C5  UNL     1      24.190   1.318  53.528  1.00  0.00     0.154 C 
HETATM   12  C4  UNL     1      25.696   1.223  53.539  1.00  0.00     0.145 C 
HETATM   13  N1  UNL     1      26.029  -0.146  53.245  1.00  0.00    -0.342 N 
HETATM   14  C3  UNL     1      27.349  -0.666  53.202  1.00  0.00     0.242 C 
HETATM   15  C18 UNL     1      24.841  -0.941  52.992  1.00  0.00     0.206 C 
HETATM   16  O1  UNL     1      27.574  -1.891  52.935  1.00  0.00    -0.268 OA
HETATM   17  C17 UNL     1      23.705  -0.091  53.519  1.00  0.00     0.271 C 
HETATM   18  F2  UNL     1      22.551  -0.298  52.829  1.00  0.00    -0.204 F 
HETATM   19  F3  UNL     1      23.491  -0.450  54.840  1.00  0.00    -0.204 F 
BRANCH  14  20
HETATM   20  C2  UNL     1      28.509   0.169  53.463  1.00  0.00     0.064 C 
HETATM   21  C1  UNL     1      29.710  -0.341  53.598  1.00  0.00     0.017 C 
ENDBRANCH  14  20
ENDBRANCH   1  11
BRANCH   3  22
HETATM   22  C8  UNL     1      24.573   4.875  50.541  1.00  0.00     0.018 A 
HETATM   23  C9  UNL     1      24.705   6.275  50.514  1.00  0.00     0.123 A 
HETATM   24  N3  UNL     1      25.841   6.696  49.956  1.00  0.00    -0.284 N 
HETATM   25  C10 UNL     1      26.300   8.057  49.764  1.00  0.00     0.179 C 
HETATM   26  N4  UNL     1      26.498   5.613  49.598  1.00  0.00    -0.175 NA
HETATM   27  C11 UNL     1      25.756   4.518  49.939  1.00  0.00     0.093 A 
BRANCH  27  28
HETATM   28  C12 UNL     1      26.221   3.139  49.667  1.00  0.00     0.283 C 
HETATM   29  F1  UNL     1      26.815   2.503  50.706  1.00  0.00    -0.249 F 
ENDBRANCH  27  28
ENDBRANCH   3  22
TORSDOF 4
ENDMDL
MODEL 8
REMARK VINA RESULT:      -7.6      3.335      5.881
REMARK  4 active torsions:
REMARK  status: ('A' for Active; 'I' for Inactive)
REMARK    1  A    between atoms: C2_2  and  C3_3 
REMARK       I    between atoms: C3_3  and  N1_5 
REMARK    2  A    between atoms: C5_7  and  C6_8 
REMARK    3  A    between atoms: C7_10  and  C8_11 
REMARK    4  A    between atoms: C11_16  and  C12_17 
ROOT
HETATM    1  C6  UNL     1      21.804   3.217  50.917  1.00  0.00     0.148 C 
HETATM    2  N2  UNL     1      21.757   1.894  50.908  1.00  0.00    -0.254 NA
HETATM    3  C7  UNL     1      20.467   1.098  50.878  1.00  0.00     0.198 C 
HETATM    4  C13 UNL     1      19.481   2.214  50.787  1.00  0.00     0.064 C 
HETATM    5  C14 UNL     1      18.557   2.994  51.270  1.00  0.00     0.042 C 
HETATM    6  C15 UNL     1      19.361   4.100  50.675  1.00  0.00     0.219 C 
HETATM    7  O2  UNL     1      20.706   4.049  50.886  1.00  0.00    -0.321 OA
HETATM    8  C16 UNL     1      19.022   3.794  49.232  1.00  0.00     0.137 C 
HETATM    9 CL1  UNL     1      18.015   4.778  48.183  1.00  0.00    -0.064 Cl
HETATM   10  N5  UNL     1      19.748   2.767  49.455  1.00  0.00    -0.240 NA
ENDROOT
BRANCH   1  11
HETATM   11  C5  UNL     1      23.149   3.862  50.964  1.00  0.00     0.154 C 
HETATM   12  C4  UNL     1      24.257   2.838  50.987  1.00  0.00     0.145 C 
HETATM   13  N1  UNL     1      24.795   2.835  52.323  1.00  0.00    -0.342 N 
HETATM   14  C3  UNL     1      25.887   2.038  52.753  1.00  0.00     0.242 C 
HETATM   15  C18 UNL     1      24.077   3.755  53.188  1.00  0.00     0.206 C 
HETATM   16  O1  UNL     1      26.314   2.086  53.953  1.00  0.00    -0.268 OA
HETATM   17  C17 UNL     1      23.295   4.631  52.233  1.00  0.00     0.271 C 
HETATM   18  F2  UNL     1      22.128   5.065  52.779  1.00  0.00    -0.204 F 
HETATM   19  F3  UNL     1      24.077   5.737  51.944  1.00  0.00    -0.204 F 
BRANCH  14  20
HETATM   20  C2  UNL     1      26.576   1.132  51.850  1.00  0.00     0.064 C 
HETATM   21  C1  UNL     1      26.697  -0.146  52.116  1.00  0.00     0.017 C 
ENDBRANCH  14  20
ENDBRANCH   1  11
BRANCH   3  22
HETATM   22  C8  UNL     1      20.398   0.266  52.066  1.00  0.00     0.018 A 
HETATM   23  C9  UNL     1      21.515  -0.005  52.876  1.00  0.00     0.123 A 
HETATM   24  N3  UNL     1      21.244  -0.797  53.915  1.00  0.00    -0.284 N 
HETATM   25  C10 UNL     1      22.146  -1.275  54.943  1.00  0.00     0.179 C 
HETATM   26  N4  UNL     1      19.960  -1.079  53.838  1.00  0.00    -0.175 NA
HETATM   27  C11 UNL     1      19.440  -0.453  52.741  1.00  0.00     0.093 A 
BRANCH  27  28
HETATM   28  C12 UNL     1      18.011  -0.571  52.373  1.00  0.00     0.283 C 
HETATM   29  F1  UNL     1      17.750  -0.666  51.047  1.00  0.00    -0.249 F 
ENDBRANCH  27  28
ENDBRANCH   3  22
TORSDOF 4
ENDMDL
MODEL 9
REMARK VINA RESULT:      -7.5      3.197      4.561
REMARK  4 active torsions:
REMARK  status: ('A' for Active; 'I' for Inactive)
REMARK    1  A    between atoms: C2_2  and  C3_3 
REMARK       I    between atoms: C3_3  and  N1_5 
REMARK    2  A    between atoms: C5_7  and  C6_8 
REMARK    3  A    between atoms: C7_10  and  C8_11 
REMARK    4  A    between atoms: C11_16  and  C12_17 
ROOT
HETATM    1  C6  UNL     1      22.152   2.278  50.163  1.00  0.00     0.148 C 
HETATM    2  N2  UNL     1      22.182   1.037  50.621  1.00  0.00    -0.254 NA
HETATM    3  C7  UNL     1      21.447   0.581  51.867  1.00  0.00     0.198 C 
HETATM    4  C13 UNL     1      20.746   1.849  52.227  1.00  0.00     0.064 C 
HETATM    5  C14 UNL     1      20.564   2.912  52.956  1.00  0.00     0.042 C 
HETATM    6  C15 UNL     1      20.494   3.634  51.653  1.00  0.00     0.219 C 
HETATM    7  O2  UNL     1      21.449   3.317  50.735  1.00  0.00    -0.321 OA
HETATM    8  C16 UNL     1      19.140   3.101  51.240  1.00  0.00     0.137 C 
HETATM    9 CL1  UNL     1      17.655   4.033  51.143  1.00  0.00    -0.064 Cl
HETATM   10  N5  UNL     1      19.792   2.009  51.124  1.00  0.00    -0.240 NA
ENDROOT
BRANCH   1  11
HETATM   11  C5  UNL     1      22.941   2.582  48.933  1.00  0.00     0.154 C 
HETATM   12  C4  UNL     1      24.109   3.489  49.232  1.00  0.00     0.145 C 
HETATM   13  N1  UNL     1      23.777   4.785  48.701  1.00  0.00    -0.342 N 
HETATM   14  C3  UNL     1      24.632   5.918  48.736  1.00  0.00     0.242 C 
HETATM   15  C18 UNL     1      22.446   4.798  48.119  1.00  0.00     0.206 C 
HETATM   16  O1  UNL     1      24.274   7.038  48.245  1.00  0.00    -0.268 OA
HETATM   17  C17 UNL     1      22.094   3.333  47.964  1.00  0.00     0.271 C 
HETATM   18  F2  UNL     1      20.756   3.116  48.080  1.00  0.00    -0.204 F 
HETATM   19  F3  UNL     1      22.490   2.940  46.696  1.00  0.00    -0.204 F 
BRANCH  14  20
HETATM   20  C2  UNL     1      25.957   5.857  49.329  1.00  0.00     0.064 C 
HETATM   21  C1  UNL     1      27.027   5.630  48.604  1.00  0.00     0.017 C 
ENDBRANCH  14  20
ENDBRANCH   1  11
BRANCH   3  22
HETATM   22  C8  UNL     1      22.411   0.077  52.828  1.00  0.00     0.018 A 
HETATM   23  C9  UNL     1      23.796   0.293  52.706  1.00  0.00     0.123 A 
HETATM   24  N3  UNL     1      24.513  -0.258  53.687  1.00  0.00    -0.284 N 
HETATM   25  C10 UNL     1      25.948  -0.235  53.876  1.00  0.00     0.179 C 
HETATM   26  N4  UNL     1      23.648  -0.851  54.485  1.00  0.00    -0.175 NA
HETATM   27  C11 UNL     1      22.391  -0.661  53.987  1.00  0.00     0.093 A 
BRANCH  27  28
HETATM   28  C12 UNL     1      21.190  -1.207  54.658  1.00  0.00     0.283 C 
HETATM   29  F1  UNL     1      20.273  -1.785  53.844  1.00  0.00    -0.249 F 
ENDBRANCH  27  28
ENDBRANCH   3  22
TORSDOF 4
ENDMDL
