MODEL 1
REMARK VINA RESULT:      -9.1      0.000      0.000
REMARK  1 active torsions:
REMARK  status: ('A' for Active; 'I' for Inactive)
REMARK    1  A    between atoms: C3_3  and  C4_4 
ROOT
HETATM    1  C1  UNL     1      21.495   0.235  50.942  1.00  0.00     0.048 C 
HETATM    2  C2  UNL     1      21.986   1.520  51.449  1.00  0.00    -0.028 A 
HETATM    3  C3  UNL     1      22.971   2.170  52.011  1.00  0.00     0.036 A 
HETATM    4  N2  UNL     1      22.210   3.399  51.913  1.00  0.00    -0.366 N 
HETATM    5  C13 UNL     1      21.969   4.849  52.017  1.00  0.00     0.126 C 
HETATM    6  C14 UNL     1      23.066   5.633  51.308  1.00  0.00     0.050 C 
HETATM    7  C15 UNL     1      23.131   5.207  49.834  1.00  0.00     0.271 C 
HETATM    8  N3  UNL     1      21.858   5.472  49.271  1.00  0.00     0.085 N 
HETATM    9  C16 UNL     1      21.615   5.061  47.933  1.00  0.00     0.299 C 
HETATM   10  C17 UNL     1      21.548   3.548  47.800  1.00  0.00     0.299 C 
HETATM   11  N4  UNL     1      21.780   2.910  49.082  1.00  0.00     0.087 N 
HETATM   12  C18 UNL     1      20.720   3.088  50.014  1.00  0.00     0.305 C 
HETATM   13  C19 UNL     1      21.102   2.664  51.421  1.00  0.00     0.081 A 
HETATM   14  C20 UNL     1      19.930   2.620  52.383  1.00  0.00     0.045 C 
HETATM   15  H15 UNL     1      21.515   6.420  49.440  1.00  0.00     0.315 HD
HETATM   16  H20 UNL     1      21.922   1.882  48.837  1.00  0.00     0.316 HD
ENDROOT
BRANCH   3  17
HETATM   17  C4  UNL     1      24.297   1.967  52.517  1.00  0.00     0.047 C 
HETATM   18  C5  UNL     1      24.938   1.058  53.189  1.00  0.00     0.047 A 
HETATM   19  C6  UNL     1      24.580  -0.230  53.760  1.00  0.00     0.257 A 
HETATM   20  C12 UNL     1      26.366   1.164  53.567  1.00  0.00     0.009 A 
HETATM   21  O1  UNL     1      23.480  -0.819  53.738  1.00  0.00    -0.267 OA
HETATM   22  N1  UNL     1      25.646  -0.882  54.428  1.00  0.00    -0.322 N 
HETATM   23  C7  UNL     1      26.708   0.036  54.266  1.00  0.00     0.046 A 
HETATM   24  H5  UNL     1      25.694  -1.794  54.926  1.00  0.00     0.169 HD
HETATM   25  C8  UNL     1      28.026  -0.020  54.695  1.00  0.00     0.033 A 
HETATM   26  C9  UNL     1      29.004   0.927  54.491  1.00  0.00     0.044 A 
HETATM   27  C10 UNL     1      28.651   2.057  53.786  1.00  0.00     0.117 A 
HETATM   28  F1  UNL     1      29.468   3.093  53.489  1.00  0.00    -0.206 F 
HETATM   29  C11 UNL     1      27.352   2.140  53.349  1.00  0.00     0.057 A 
ENDBRANCH   3  17
TORSDOF 1
ENDMDL
MODEL 2
REMARK VINA RESULT:      -8.9      1.988      2.255
REMARK  1 active torsions:
REMARK  status: ('A' for Active; 'I' for Inactive)
REMARK    1  A    between atoms: C3_3  and  C4_4 
ROOT
HETATM    1  C1  UNL     1      20.332   0.220  51.380  1.00  0.00     0.048 C 
HETATM    2  C2  UNL     1      21.337   1.284  51.468  1.00  0.00    -0.028 A 
HETATM    3  C3  UNL     1      22.583   1.595  51.714  1.00  0.00     0.036 A 
HETATM    4  N2  UNL     1      22.296   2.979  51.395  1.00  0.00    -0.366 N 
HETATM    5  C13 UNL     1      22.605   4.397  51.146  1.00  0.00     0.126 C 
HETATM    6  C14 UNL     1      23.728   4.538  50.126  1.00  0.00     0.050 C 
HETATM    7  C15 UNL     1      23.323   3.842  48.818  1.00  0.00     0.271 C 
HETATM    8  N3  UNL     1      22.134   4.468  48.369  1.00  0.00     0.085 N 
HETATM    9  C16 UNL     1      21.482   3.933  47.226  1.00  0.00     0.299 C 
HETATM   10  C17 UNL     1      20.864   2.571  47.501  1.00  0.00     0.299 C 
HETATM   11  N4  UNL     1      21.127   2.155  48.866  1.00  0.00     0.087 N 
HETATM   12  C18 UNL     1      20.421   2.910  49.844  1.00  0.00     0.305 C 
HETATM   13  C19 UNL     1      20.923   2.654  51.254  1.00  0.00     0.081 A 
HETATM   14  C20 UNL     1      20.044   3.258  52.333  1.00  0.00     0.045 C 
HETATM   15  H15 UNL     1      22.188   5.488  48.326  1.00  0.00     0.315 HD
HETATM   16  H20 UNL     1      20.846   1.127  48.882  1.00  0.00     0.316 HD
ENDROOT
BRANCH   3  17
HETATM   17  C4  UNL     1      23.830   0.994  52.086  1.00  0.00     0.047 C 
HETATM   18  C5  UNL     1      24.884   1.319  52.774  1.00  0.00     0.047 A 
HETATM   19  C6  UNL     1      25.294   2.501  53.513  1.00  0.00     0.257 A 
HETATM   20  C12 UNL     1      26.050   0.427  52.969  1.00  0.00     0.009 A 
HETATM   21  O1  UNL     1      24.680   3.575  53.679  1.00  0.00    -0.267 OA
HETATM   22  N1  UNL     1      26.572   2.391  54.116  1.00  0.00    -0.322 N 
HETATM   23  C7  UNL     1      26.971   1.090  53.737  1.00  0.00     0.046 A 
HETATM   24  H5  UNL     1      27.122   3.058  54.694  1.00  0.00     0.169 HD
HETATM   25  C8  UNL     1      28.132   0.383  54.014  1.00  0.00     0.033 A 
HETATM   26  C9  UNL     1      28.443  -0.893  53.602  1.00  0.00     0.044 A 
HETATM   27  C10 UNL     1      27.510  -1.552  52.831  1.00  0.00     0.117 A 
HETATM   28  F1  UNL     1      27.635  -2.803  52.332  1.00  0.00    -0.206 F 
HETATM   29  C11 UNL     1      26.351  -0.876  52.540  1.00  0.00     0.057 A 
ENDBRANCH   3  17
TORSDOF 1
ENDMDL
MODEL 3
REMARK VINA RESULT:      -8.4      7.184      9.596
REMARK  1 active torsions:
REMARK  status: ('A' for Active; 'I' for Inactive)
REMARK    1  A    between atoms: C3_3  and  C4_4 
ROOT
HETATM    1  C1  UNL     1      28.821   8.253  45.504  1.00  0.00     0.048 C 
HETATM    2  C2  UNL     1      29.305   7.851  46.829  1.00  0.00    -0.028 A 
HETATM    3  C3  UNL     1      29.103   7.117  47.892  1.00  0.00     0.036 A 
HETATM    4  N2  UNL     1      30.351   7.591  48.452  1.00  0.00    -0.366 N 
HETATM    5  C13 UNL     1      31.456   7.654  49.425  1.00  0.00     0.126 C 
HETATM    6  C14 UNL     1      32.021   6.266  49.694  1.00  0.00     0.050 C 
HETATM    7  C15 UNL     1      32.506   5.644  48.375  1.00  0.00     0.271 C 
HETATM    8  N3  UNL     1      33.493   6.513  47.849  1.00  0.00     0.085 N 
HETATM    9  C16 UNL     1      34.028   6.223  46.565  1.00  0.00     0.299 C 
HETATM   10  C17 UNL     1      33.009   6.433  45.457  1.00  0.00     0.299 C 
HETATM   11  N4  UNL     1      31.733   6.851  46.006  1.00  0.00     0.087 N 
HETATM   12  C18 UNL     1      31.741   8.170  46.539  1.00  0.00     0.305 C 
HETATM   13  C19 UNL     1      30.498   8.478  47.355  1.00  0.00     0.081 A 
HETATM   14  C20 UNL     1      30.366   9.940  47.737  1.00  0.00     0.045 C 
HETATM   15  H15 UNL     1      34.229   6.762  48.513  1.00  0.00     0.315 HD
HETATM   16  H20 UNL     1      31.057   6.760  45.188  1.00  0.00     0.316 HD
ENDROOT
BRANCH   3  17
HETATM   17  C4  UNL     1      28.173   6.169  48.432  1.00  0.00     0.047 C 
HETATM   18  C5  UNL     1      26.883   6.039  48.530  1.00  0.00     0.047 A 
HETATM   19  C6  UNL     1      25.744   6.841  48.115  1.00  0.00     0.257 A 
HETATM   20  C12 UNL     1      26.216   4.888  49.180  1.00  0.00     0.009 A 
HETATM   21  O1  UNL     1      25.731   7.934  47.514  1.00  0.00    -0.267 OA
HETATM   22  N1  UNL     1      24.488   6.278  48.455  1.00  0.00    -0.322 N 
HETATM   23  C7  UNL     1      24.862   5.081  49.105  1.00  0.00     0.046 A 
HETATM   24  H5  UNL     1      23.516   6.612  48.295  1.00  0.00     0.169 HD
HETATM   25  C8  UNL     1      24.087   4.080  49.673  1.00  0.00     0.033 A 
HETATM   26  C9  UNL     1      24.537   2.935  50.292  1.00  0.00     0.044 A 
HETATM   27  C10 UNL     1      25.900   2.750  50.362  1.00  0.00     0.117 A 
HETATM   28  F1  UNL     1      26.529   1.696  50.930  1.00  0.00    -0.206 F 
HETATM   29  C11 UNL     1      26.692   3.725  49.808  1.00  0.00     0.057 A 
ENDBRANCH   3  17
TORSDOF 1
ENDMDL
MODEL 4
REMARK VINA RESULT:      -8.4      8.320     10.821
REMARK  1 active torsions:
REMARK  status: ('A' for Active; 'I' for Inactive)
REMARK    1  A    between atoms: C3_3  and  C4_4 
ROOT
HETATM    1  C1  UNL     1      31.445   8.932  46.674  1.00  0.00     0.048 C 
HETATM    2  C2  UNL     1      31.616   7.589  47.237  1.00  0.00    -0.028 A 
HETATM    3  C3  UNL     1      31.037   6.539  47.757  1.00  0.00     0.036 A 
HETATM    4  N2  UNL     1      32.322   5.873  47.833  1.00  0.00    -0.366 N 
HETATM    5  C13 UNL     1      33.250   4.756  48.078  1.00  0.00     0.126 C 
HETATM    6  C14 UNL     1      32.800   3.503  47.337  1.00  0.00     0.050 C 
HETATM    7  C15 UNL     1      32.710   3.802  45.833  1.00  0.00     0.271 C 
HETATM    8  N3  UNL     1      33.999   4.215  45.417  1.00  0.00     0.085 N 
HETATM    9  C16 UNL     1      34.163   4.662  44.078  1.00  0.00     0.299 C 
HETATM   10  C17 UNL     1      33.470   5.991  43.827  1.00  0.00     0.299 C 
HETATM   11  N4  UNL     1      32.789   6.449  45.024  1.00  0.00     0.087 N 
HETATM   12  C18 UNL     1      33.669   6.862  46.063  1.00  0.00     0.305 C 
HETATM   13  C19 UNL     1      32.955   7.061  47.388  1.00  0.00     0.081 A 
HETATM   14  C20 UNL     1      33.813   7.723  48.449  1.00  0.00     0.045 C 
HETATM   15  H15 UNL     1      34.752   3.582  45.695  1.00  0.00     0.315 HD
HETATM   16  H20 UNL     1      32.177   7.252  44.683  1.00  0.00     0.316 HD
ENDROOT
BRANCH   3  17
HETATM   17  C4  UNL     1      29.741   6.043  48.117  1.00  0.00     0.047 C 
HETATM   18  C5  UNL     1      28.513   6.468  48.098  1.00  0.00     0.047 A 
HETATM   19  C6  UNL     1      27.868   7.702  47.682  1.00  0.00     0.257 A 
HETATM   20  C12 UNL     1      27.356   5.671  48.567  1.00  0.00     0.009 A 
HETATM   21  O1  UNL     1      28.382   8.733  47.202  1.00  0.00    -0.267 OA
HETATM   22  N1  UNL     1      26.461   7.706  47.858  1.00  0.00    -0.322 N 
HETATM   23  C7  UNL     1      26.224   6.426  48.405  1.00  0.00     0.046 A 
HETATM   24  H5  UNL     1      25.743   8.431  47.658  1.00  0.00     0.169 HD
HETATM   25  C8  UNL     1      25.042   5.815  48.800  1.00  0.00     0.033 A 
HETATM   26  C9  UNL     1      24.899   4.551  49.327  1.00  0.00     0.044 A 
HETATM   27  C10 UNL     1      26.043   3.801  49.485  1.00  0.00     0.117 A 
HETATM   28  F1  UNL     1      26.104   2.545  49.985  1.00  0.00    -0.206 F 
HETATM   29  C11 UNL     1      27.228   4.379  49.103  1.00  0.00     0.057 A 
ENDBRANCH   3  17
TORSDOF 1
ENDMDL
MODEL 5
REMARK VINA RESULT:      -8.2      1.767      3.337
REMARK  1 active torsions:
REMARK  status: ('A' for Active; 'I' for Inactive)
REMARK    1  A    between atoms: C3_3  and  C4_4 
ROOT
HETATM    1  C1  UNL     1      22.521   6.006  51.172  1.00  0.00     0.048 C 
HETATM    2  C2  UNL     1      22.781   4.796  50.384  1.00  0.00    -0.028 A 
HETATM    3  C3  UNL     1      23.401   3.648  50.316  1.00  0.00     0.036 A 
HETATM    4  N2  UNL     1      22.768   3.387  49.040  1.00  0.00    -0.366 N 
HETATM    5  C13 UNL     1      22.408   2.598  47.849  1.00  0.00     0.126 C 
HETATM    6  C14 UNL     1      21.852   1.237  48.248  1.00  0.00     0.050 C 
HETATM    7  C15 UNL     1      20.625   1.429  49.153  1.00  0.00     0.271 C 
HETATM    8  N3  UNL     1      19.679   2.178  48.411  1.00  0.00     0.085 N 
HETATM    9  C16 UNL     1      18.488   2.593  49.064  1.00  0.00     0.299 C 
HETATM   10  C17 UNL     1      18.752   3.652  50.123  1.00  0.00     0.299 C 
HETATM   11  N4  UNL     1      20.170   3.947  50.211  1.00  0.00     0.087 N 
HETATM   12  C18 UNL     1      20.684   4.643  49.082  1.00  0.00     0.305 C 
HETATM   13  C19 UNL     1      22.202   4.686  49.064  1.00  0.00     0.081 A 
HETATM   14  C20 UNL     1      22.772   5.615  48.009  1.00  0.00     0.045 C 
HETATM   15  H15 UNL     1      19.484   1.803  47.480  1.00  0.00     0.315 HD
HETATM   16  H20 UNL     1      20.259   4.522  51.104  1.00  0.00     0.316 HD
ENDROOT
BRANCH   3  17
HETATM   17  C4  UNL     1      24.293   2.816  51.069  1.00  0.00     0.047 C 
HETATM   18  C5  UNL     1      24.206   1.800  51.875  1.00  0.00     0.047 A 
HETATM   19  C6  UNL     1      23.107   1.010  52.404  1.00  0.00     0.257 A 
HETATM   20  C12 UNL     1      25.374   1.149  52.513  1.00  0.00     0.009 A 
HETATM   21  O1  UNL     1      21.883   1.127  52.191  1.00  0.00    -0.267 OA
HETATM   22  N1  UNL     1      23.512  -0.029  53.280  1.00  0.00    -0.322 N 
HETATM   23  C7  UNL     1      24.916   0.122  53.296  1.00  0.00     0.046 A 
HETATM   24  H5  UNL     1      22.965  -0.742  53.803  1.00  0.00     0.169 HD
HETATM   25  C8  UNL     1      25.896  -0.595  53.967  1.00  0.00     0.033 A 
HETATM   26  C9  UNL     1      27.255  -0.380  53.925  1.00  0.00     0.044 A 
HETATM   27  C10 UNL     1      27.705   0.655  53.135  1.00  0.00     0.117 A 
HETATM   28  F1  UNL     1      28.997   1.020  52.968  1.00  0.00    -0.206 F 
HETATM   29  C11 UNL     1      26.758   1.383  52.458  1.00  0.00     0.057 A 
ENDBRANCH   3  17
TORSDOF 1
ENDMDL
MODEL 6
REMARK VINA RESULT:      -8.0      2.196      2.606
REMARK  1 active torsions:
REMARK  status: ('A' for Active; 'I' for Inactive)
REMARK    1  A    between atoms: C3_3  and  C4_4 
ROOT
HETATM    1  C1  UNL     1      21.327   0.971  49.085  1.00  0.00     0.048 C 
HETATM    2  C2  UNL     1      21.649   2.072  49.999  1.00  0.00    -0.028 A 
HETATM    3  C3  UNL     1      22.437   2.515  50.943  1.00  0.00     0.036 A 
HETATM    4  N2  UNL     1      21.719   3.772  50.947  1.00  0.00    -0.366 N 
HETATM    5  C13 UNL     1      21.443   5.167  51.331  1.00  0.00     0.126 C 
HETATM    6  C14 UNL     1      22.683   6.035  51.151  1.00  0.00     0.050 C 
HETATM    7  C15 UNL     1      23.149   5.965  49.688  1.00  0.00     0.271 C 
HETATM    8  N3  UNL     1      22.073   6.426  48.890  1.00  0.00     0.085 N 
HETATM    9  C16 UNL     1      22.205   6.357  47.477  1.00  0.00     0.299 C 
HETATM   10  C17 UNL     1      22.192   4.924  46.969  1.00  0.00     0.299 C 
HETATM   11  N4  UNL     1      22.076   3.989  48.072  1.00  0.00     0.087 N 
HETATM   12  C18 UNL     1      20.801   4.001  48.704  1.00  0.00     0.305 C 
HETATM   13  C19 UNL     1      20.792   3.237  50.016  1.00  0.00     0.081 A 
HETATM   14  C20 UNL     1      19.404   3.032  50.593  1.00  0.00     0.045 C 
HETATM   15  H15 UNL     1      21.687   7.326  49.186  1.00  0.00     0.315 HD
HETATM   16  H20 UNL     1      22.289   3.042  47.632  1.00  0.00     0.316 HD
ENDROOT
BRANCH   3  17
HETATM   17  C4  UNL     1      23.579   2.125  51.717  1.00  0.00     0.047 C 
HETATM   18  C5  UNL     1      24.862   2.332  51.705  1.00  0.00     0.047 A 
HETATM   19  C6  UNL     1      25.764   3.092  50.856  1.00  0.00     0.257 A 
HETATM   20  C12 UNL     1      25.802   1.751  52.691  1.00  0.00     0.009 A 
HETATM   21  O1  UNL     1      25.498   3.786  49.853  1.00  0.00    -0.267 OA
HETATM   22  N1  UNL     1      27.125   3.014  51.243  1.00  0.00    -0.322 N 
HETATM   23  C7  UNL     1      27.067   2.174  52.377  1.00  0.00     0.046 A 
HETATM   24  H5  UNL     1      27.983   3.440  50.838  1.00  0.00     0.169 HD
HETATM   25  C8  UNL     1      28.072   1.713  53.215  1.00  0.00     0.033 A 
HETATM   26  C9  UNL     1      27.926   0.890  54.309  1.00  0.00     0.044 A 
HETATM   27  C10 UNL     1      26.651   0.470  54.616  1.00  0.00     0.117 A 
HETATM   28  F1  UNL     1      26.309  -0.338  55.646  1.00  0.00    -0.206 F 
HETATM   29  C11 UNL     1      25.635   0.910  53.805  1.00  0.00     0.057 A 
ENDBRANCH   3  17
TORSDOF 1
ENDMDL
MODEL 7
REMARK VINA RESULT:      -7.9      9.082     10.624
REMARK  1 active torsions:
REMARK  status: ('A' for Active; 'I' for Inactive)
REMARK    1  A    between atoms: C3_3  and  C4_4 
ROOT
HETATM    1  C1  UNL     1      27.958   8.475  44.857  1.00  0.00     0.048 C 
HETATM    2  C2  UNL     1      28.724   8.283  46.093  1.00  0.00    -0.028 A 
HETATM    3  C3  UNL     1      29.775   7.749  46.656  1.00  0.00     0.036 A 
HETATM    4  N2  UNL     1      29.406   8.361  47.916  1.00  0.00    -0.366 N 
HETATM    5  C13 UNL     1      29.570   8.744  49.329  1.00  0.00     0.126 C 
HETATM    6  C14 UNL     1      30.920   9.412  49.558  1.00  0.00     0.050 C 
HETATM    7  C15 UNL     1      31.041  10.648  48.652  1.00  0.00     0.271 C 
HETATM    8  N3  UNL     1      29.970  11.512  48.990  1.00  0.00     0.085 N 
HETATM    9  C16 UNL     1      29.785  12.688  48.215  1.00  0.00     0.299 C 
HETATM   10  C17 UNL     1      29.314  12.378  46.803  1.00  0.00     0.299 C 
HETATM   11  N4  UNL     1      29.202  10.945  46.604  1.00  0.00     0.087 N 
HETATM   12  C18 UNL     1      28.129  10.346  47.322  1.00  0.00     0.305 C 
HETATM   13  C19 UNL     1      28.204   8.830  47.327  1.00  0.00     0.081 A 
HETATM   14  C20 UNL     1      26.960   8.160  47.878  1.00  0.00     0.045 C 
HETATM   15  H15 UNL     1      29.889  11.706  49.991  1.00  0.00     0.315 HD
HETATM   16  H20 UNL     1      29.079  10.839  45.550  1.00  0.00     0.316 HD
ENDROOT
BRANCH   3  17
HETATM   17  C4  UNL     1      30.920   6.945  46.344  1.00  0.00     0.047 C 
HETATM   18  C5  UNL     1      31.638   6.031  46.927  1.00  0.00     0.047 A 
HETATM   19  C6  UNL     1      31.599   5.379  48.225  1.00  0.00     0.257 A 
HETATM   20  C12 UNL     1      32.809   5.376  46.300  1.00  0.00     0.009 A 
HETATM   21  O1  UNL     1      30.801   5.556  49.168  1.00  0.00    -0.267 OA
HETATM   22  N1  UNL     1      32.622   4.417  48.419  1.00  0.00    -0.322 N 
HETATM   23  C7  UNL     1      33.322   4.473  47.193  1.00  0.00     0.046 A 
HETATM   24  H5  UNL     1      32.848   3.803  49.228  1.00  0.00     0.169 HD
HETATM   25  C8  UNL     1      34.434   3.768  46.753  1.00  0.00     0.033 A 
HETATM   26  C9  UNL     1      35.057   3.885  45.531  1.00  0.00     0.044 A 
HETATM   27  C10 UNL     1      34.533   4.795  44.640  1.00  0.00     0.117 A 
HETATM   28  F1  UNL     1      35.006   5.051  43.399  1.00  0.00    -0.206 F 
HETATM   29  C11 UNL     1      33.433   5.507  45.048  1.00  0.00     0.057 A 
ENDBRANCH   3  17
TORSDOF 1
ENDMDL
MODEL 8
REMARK VINA RESULT:      -7.9      3.081      4.388
REMARK  1 active torsions:
REMARK  status: ('A' for Active; 'I' for Inactive)
REMARK    1  A    between atoms: C3_3  and  C4_4 
ROOT
HETATM    1  C1  UNL     1      24.522   3.829  49.152  1.00  0.00     0.048 C 
HETATM    2  C2  UNL     1      23.212   3.192  49.327  1.00  0.00    -0.028 A 
HETATM    3  C3  UNL     1      22.482   2.365  50.027  1.00  0.00     0.036 A 
HETATM    4  N2  UNL     1      21.340   2.669  49.190  1.00  0.00    -0.366 N 
HETATM    5  C13 UNL     1      19.930   2.629  48.765  1.00  0.00     0.126 C 
HETATM    6  C14 UNL     1      19.004   2.984  49.921  1.00  0.00     0.050 C 
HETATM    7  C15 UNL     1      19.361   4.381  50.454  1.00  0.00     0.271 C 
HETATM    8  N3  UNL     1      19.213   5.285  49.373  1.00  0.00     0.085 N 
HETATM    9  C16 UNL     1      19.593   6.639  49.572  1.00  0.00     0.299 C 
HETATM   10  C17 UNL     1      21.098   6.797  49.720  1.00  0.00     0.299 C 
HETATM   11  N4  UNL     1      21.759   5.507  49.648  1.00  0.00     0.087 N 
HETATM   12  C18 UNL     1      21.734   4.920  48.352  1.00  0.00     0.305 C 
HETATM   13  C19 UNL     1      22.170   3.466  48.361  1.00  0.00     0.081 A 
HETATM   14  C20 UNL     1      22.379   2.884  46.976  1.00  0.00     0.045 C 
HETATM   15  H15 UNL     1      18.315   5.216  48.890  1.00  0.00     0.315 HD
HETATM   16  H20 UNL     1      22.754   5.708  49.971  1.00  0.00     0.316 HD
ENDROOT
BRANCH   3  17
HETATM   17  C4  UNL     1      22.561   1.499  51.167  1.00  0.00     0.047 C 
HETATM   18  C5  UNL     1      23.469   1.100  52.008  1.00  0.00     0.047 A 
HETATM   19  C6  UNL     1      24.887   1.367  52.179  1.00  0.00     0.257 A 
HETATM   20  C12 UNL     1      23.208   0.156  53.119  1.00  0.00     0.009 A 
HETATM   21  O1  UNL     1      25.633   2.106  51.504  1.00  0.00    -0.267 OA
HETATM   22  N1  UNL     1      25.477   0.680  53.269  1.00  0.00    -0.322 N 
HETATM   23  C7  UNL     1      24.383  -0.041  53.796  1.00  0.00     0.046 A 
HETATM   24  H5  UNL     1      26.452   0.669  53.632  1.00  0.00     0.169 HD
HETATM   25  C8  UNL     1      24.306  -0.908  54.877  1.00  0.00     0.033 A 
HETATM   26  C9  UNL     1      23.189  -1.575  55.326  1.00  0.00     0.044 A 
HETATM   27  C10 UNL     1      22.013  -1.369  54.639  1.00  0.00     0.117 A 
HETATM   28  F1  UNL     1      20.818  -1.933  54.927  1.00  0.00    -0.206 F 
HETATM   29  C11 UNL     1      22.058  -0.516  53.564  1.00  0.00     0.057 A 
ENDBRANCH   3  17
TORSDOF 1
ENDMDL
MODEL 9
REMARK VINA RESULT:      -7.8      3.151      4.262
REMARK  1 active torsions:
REMARK  status: ('A' for Active; 'I' for Inactive)
REMARK    1  A    between atoms: C3_3  and  C4_4 
ROOT
HETATM    1  C1  UNL     1      22.630   2.113  47.368  1.00  0.00     0.048 C 
HETATM    2  C2  UNL     1      22.100   2.754  48.576  1.00  0.00    -0.028 A 
HETATM    3  C3  UNL     1      21.922   2.674  49.868  1.00  0.00     0.036 A 
HETATM    4  N2  UNL     1      21.323   3.993  49.863  1.00  0.00    -0.366 N 
HETATM    5  C13 UNL     1      20.743   5.214  50.449  1.00  0.00     0.126 C 
HETATM    6  C14 UNL     1      21.652   5.782  51.531  1.00  0.00     0.050 C 
HETATM    7  C15 UNL     1      23.035   6.083  50.932  1.00  0.00     0.271 C 
HETATM    8  N3  UNL     1      22.836   7.012  49.881  1.00  0.00     0.085 N 
HETATM    9  C16 UNL     1      23.953   7.373  49.082  1.00  0.00     0.299 C 
HETATM   10  C17 UNL     1      24.429   6.225  48.206  1.00  0.00     0.299 C 
HETATM   11  N4  UNL     1      23.629   5.037  48.437  1.00  0.00     0.087 N 
HETATM   12  C18 UNL     1      22.296   5.139  47.948  1.00  0.00     0.305 C 
HETATM   13  C19 UNL     1      21.404   4.015  48.448  1.00  0.00     0.081 A 
HETATM   14  C20 UNL     1      20.052   3.962  47.763  1.00  0.00     0.045 C 
HETATM   15  H15 UNL     1      22.283   7.830  50.144  1.00  0.00     0.315 HD
HETATM   16  H20 UNL     1      24.170   4.261  47.949  1.00  0.00     0.316 HD
ENDROOT
BRANCH   3  17
HETATM   17  C4  UNL     1      22.178   1.803  50.978  1.00  0.00     0.047 C 
HETATM   18  C5  UNL     1      21.486   1.093  51.819  1.00  0.00     0.047 A 
HETATM   19  C6  UNL     1      20.068   0.850  52.022  1.00  0.00     0.257 A 
HETATM   20  C12 UNL     1      22.086   0.272  52.896  1.00  0.00     0.009 A 
HETATM   21  O1  UNL     1      19.095   1.302  51.384  1.00  0.00    -0.267 OA
HETATM   22  N1  UNL     1      19.781  -0.023  53.101  1.00  0.00    -0.322 N 
HETATM   23  C7  UNL     1      21.070  -0.335  53.586  1.00  0.00     0.046 A 
HETATM   24  H5  UNL     1      18.879  -0.376  53.483  1.00  0.00     0.169 HD
HETATM   25  C8  UNL     1      21.470  -1.148  54.637  1.00  0.00     0.033 A 
HETATM   26  C9  UNL     1      22.760  -1.399  55.045  1.00  0.00     0.044 A 
HETATM   27  C10 UNL     1      23.774  -0.785  54.344  1.00  0.00     0.117 A 
HETATM   28  F1  UNL     1      25.098  -0.907  54.595  1.00  0.00    -0.206 F 
HETATM   29  C11 UNL     1      23.409   0.026  53.298  1.00  0.00     0.057 A 
ENDBRANCH   3  17
TORSDOF 1
ENDMDL
