MODEL 1
REMARK VINA RESULT:      -8.7      0.000      0.000
REMARK  5 active torsions:
REMARK  status: ('A' for Active; 'I' for Inactive)
REMARK    1  A    between atoms: O1_1  and  C1_2 
REMARK    2  A    between atoms: C5_6  and  N1_7 
REMARK    3  A    between atoms: N1_7  and  C6_8 
REMARK    4  A    between atoms: C6_8  and  C7_9 
REMARK    5  A    between atoms: C11_13  and  C12_14 
ROOT
HETATM    1  C1  UNL     1      21.085  -0.798  53.633  1.00  0.00     0.099 C 
HETATM    2  C2  UNL     1      22.258  -1.346  54.076  1.00  0.00     0.031 C 
HETATM    3  C3  UNL     1      22.794  -0.538  52.918  1.00  0.00     0.015 C 
HETATM    4  C4  UNL     1      23.432   0.716  53.549  1.00  0.00     0.078 C 
HETATM    5  C5  UNL     1      23.661   1.660  52.540  1.00  0.00     0.101 C 
HETATM    6  N2  UNL     1      23.528   2.706  51.943  1.00  0.00    -0.230 N 
HETATM    7  C13 UNL     1      23.458   3.811  51.215  1.00  0.00     0.235 A 
HETATM    8  N3  UNL     1      22.828   2.957  50.662  1.00  0.00    -0.241 N 
HETATM    9  C14 UNL     1      22.128   2.083  50.007  1.00  0.00     0.194 C 
HETATM   10  N4  UNL     1      21.550   1.147  49.260  1.00  0.00    -0.197 NA
HETATM   11  N5  UNL     1      20.095   0.947  49.471  1.00  0.00    -0.199 NA
HETATM   12  S1  UNL     1      19.236   1.509  50.996  1.00  0.00    -0.164 SA
HETATM   13  C15 UNL     1      19.990   0.404  52.297  1.00  0.00     0.172 C 
HETATM   14  C16 UNL     1      19.720  -0.373  53.400  1.00  0.00     0.086 C 
HETATM   15  H14 UNL     1      20.841   0.762  48.708  1.00  0.00     0.270 HD
ENDROOT
BRANCH   5  16
HETATM   16  N1  UNL     1      24.800   1.317  51.576  1.00  0.00    -0.377 N 
HETATM   17  H7  UNL     1      24.601   1.026  50.541  1.00  0.00     0.160 HD
BRANCH  16  18
HETATM   18  C6  UNL     1      26.208   1.289  52.001  1.00  0.00     0.138 C 
BRANCH  18  19
HETATM   19  C7  UNL     1      26.547  -0.135  52.132  1.00  0.00     0.037 A 
HETATM   20  C8  UNL     1      27.499   0.312  52.900  1.00  0.00    -0.052 A 
HETATM   21  C9  UNL     1      28.346   0.700  53.552  1.00  0.00     0.017 A 
HETATM   22  C12 UNL     1      27.627  -0.774  52.920  1.00  0.00     0.066 A 
HETATM   23  C10 UNL     1      29.265   1.102  54.232  1.00  0.00     0.014 A 
HETATM   24  C11 UNL     1      28.865  -0.447  53.869  1.00  0.00     0.034 A 
HETATM   25 CL1  UNL     1      26.835  -2.277  52.273  1.00  0.00    -0.114 Cl
ENDBRANCH  18  19
ENDBRANCH  16  18
ENDBRANCH   5  16
BRANCH   1  26
HETATM   26  O1  UNL     1      20.446  -1.521  54.722  1.00  0.00    -0.386 OA
HETATM   27  H1  UNL     1      20.134  -2.488  54.397  1.00  0.00     0.210 HD
ENDBRANCH   1  26
TORSDOF 5
ENDMDL
MODEL 2
REMARK VINA RESULT:      -8.4      4.045      5.293
REMARK  5 active torsions:
REMARK  status: ('A' for Active; 'I' for Inactive)
REMARK    1  A    between atoms: O1_1  and  C1_2 
REMARK    2  A    between atoms: C5_6  and  N1_7 
REMARK    3  A    between atoms: N1_7  and  C6_8 
REMARK    4  A    between atoms: C6_8  and  C7_9 
REMARK    5  A    between atoms: C11_13  and  C12_14 
ROOT
HETATM    1  C1  UNL     1      26.075  -0.258  53.302  1.00  0.00     0.099 C 
HETATM    2  C2  UNL     1      27.208   0.017  52.586  1.00  0.00     0.031 C 
HETATM    3  C3  UNL     1      26.212   0.803  51.768  1.00  0.00     0.015 C 
HETATM    4  C4  UNL     1      26.413   2.277  52.176  1.00  0.00     0.078 C 
HETATM    5  C5  UNL     1      25.323   3.025  51.711  1.00  0.00     0.101 C 
HETATM    6  N2  UNL     1      24.330   3.714  51.793  1.00  0.00    -0.230 N 
HETATM    7  C13 UNL     1      23.241   4.468  51.769  1.00  0.00     0.235 A 
HETATM    8  N3  UNL     1      22.919   3.336  51.546  1.00  0.00    -0.241 N 
HETATM    9  C14 UNL     1      22.497   2.136  51.300  1.00  0.00     0.194 C 
HETATM   10  N4  UNL     1      22.091   0.938  50.889  1.00  0.00    -0.197 NA
HETATM   11  N5  UNL     1      21.664  -0.009  51.949  1.00  0.00    -0.199 NA
HETATM   12  S1  UNL     1      22.160   0.196  53.707  1.00  0.00    -0.164 SA
HETATM   13  C15 UNL     1      24.003  -0.090  53.627  1.00  0.00     0.172 C 
HETATM   14  C16 UNL     1      25.068  -0.710  54.239  1.00  0.00     0.086 C 
HETATM   15  H14 UNL     1      21.519   0.145  50.887  1.00  0.00     0.270 HD
ENDROOT
BRANCH   5  16
HETATM   16  N1  UNL     1      25.281   3.238  50.196  1.00  0.00    -0.377 N 
HETATM   17  H7  UNL     1      24.408   2.952  49.605  1.00  0.00     0.160 HD
BRANCH  16  18
HETATM   18  C6  UNL     1      26.430   3.769  49.445  1.00  0.00     0.138 C 
BRANCH  18  19
HETATM   19  C7  UNL     1      26.032   5.122  49.030  1.00  0.00     0.037 A 
HETATM   20  C8  UNL     1      27.286   5.232  48.700  1.00  0.00    -0.052 A 
HETATM   21  C9  UNL     1      28.386   5.341  48.432  1.00  0.00     0.017 A 
HETATM   22  C12 UNL     1      26.851   6.197  48.421  1.00  0.00     0.066 A 
HETATM   23  C10 UNL     1      29.559   5.476  48.160  1.00  0.00     0.014 A 
HETATM   24  C11 UNL     1      28.337   6.553  47.969  1.00  0.00     0.034 A 
HETATM   25 CL1  UNL     1      25.238   7.036  48.398  1.00  0.00    -0.114 Cl
ENDBRANCH  18  19
ENDBRANCH  16  18
ENDBRANCH   5  16
BRANCH   1  26
HETATM   26  O1  UNL     1      26.932  -1.044  54.177  1.00  0.00    -0.386 OA
HETATM   27  H1  UNL     1      27.538  -0.404  54.779  1.00  0.00     0.210 HD
ENDBRANCH   1  26
TORSDOF 5
ENDMDL
MODEL 3
REMARK VINA RESULT:      -7.9      4.038      6.396
REMARK  5 active torsions:
REMARK  status: ('A' for Active; 'I' for Inactive)
REMARK    1  A    between atoms: O1_1  and  C1_2 
REMARK    2  A    between atoms: C5_6  and  N1_7 
REMARK    3  A    between atoms: N1_7  and  C6_8 
REMARK    4  A    between atoms: C6_8  and  C7_9 
REMARK    5  A    between atoms: C11_13  and  C12_14 
ROOT
HETATM    1  C1  UNL     1      26.618   4.508  49.279  1.00  0.00     0.099 C 
HETATM    2  C2  UNL     1      26.746   3.189  49.619  1.00  0.00     0.031 C 
HETATM    3  C3  UNL     1      25.413   3.475  50.268  1.00  0.00     0.015 C 
HETATM    4  C4  UNL     1      24.354   2.870  49.323  1.00  0.00     0.078 C 
HETATM    5  C5  UNL     1      23.095   3.368  49.682  1.00  0.00     0.101 C 
HETATM    6  N2  UNL     1      22.062   3.987  49.545  1.00  0.00    -0.230 N 
HETATM    7  C13 UNL     1      20.904   4.628  49.498  1.00  0.00     0.235 A 
HETATM    8  N3  UNL     1      21.659   5.266  50.173  1.00  0.00    -0.241 N 
HETATM    9  C14 UNL     1      22.421   6.009  50.913  1.00  0.00     0.194 C 
HETATM   10  N4  UNL     1      23.148   6.684  51.799  1.00  0.00    -0.197 NA
HETATM   11  N5  UNL     1      24.005   7.767  51.255  1.00  0.00    -0.199 NA
HETATM   12  S1  UNL     1      24.487   7.842  49.483  1.00  0.00    -0.164 SA
HETATM   13  C15 UNL     1      25.578   6.337  49.312  1.00  0.00     0.172 C 
HETATM   14  C16 UNL     1      26.753   5.860  48.778  1.00  0.00     0.086 C 
HETATM   15  H14 UNL     1      23.552   7.481  52.196  1.00  0.00     0.270 HD
ENDROOT
BRANCH   5  16
HETATM   16  N1  UNL     1      22.530   2.821  50.995  1.00  0.00    -0.377 N 
HETATM   17  H7  UNL     1      22.253   3.486  51.816  1.00  0.00     0.160 HD
BRANCH  16  18
HETATM   18  C6  UNL     1      22.396   1.379  51.252  1.00  0.00     0.138 C 
BRANCH  18  19
HETATM   19  C7  UNL     1      23.477   1.048  52.191  1.00  0.00     0.037 A 
HETATM   20  C8  UNL     1      22.558   0.331  52.770  1.00  0.00    -0.052 A 
HETATM   21  C9  UNL     1      21.753  -0.279  53.293  1.00  0.00     0.017 A 
HETATM   22  C12 UNL     1      23.453   0.160  53.378  1.00  0.00     0.066 A 
HETATM   23  C10 UNL     1      20.899  -0.916  53.870  1.00  0.00     0.014 A 
HETATM   24  C11 UNL     1      22.486  -0.759  54.250  1.00  0.00     0.034 A 
HETATM   25 CL1  UNL     1      25.213   0.612  53.411  1.00  0.00    -0.114 Cl
ENDBRANCH  18  19
ENDBRANCH  16  18
ENDBRANCH   5  16
BRANCH   1  26
HETATM   26  O1  UNL     1      27.899   4.361  48.603  1.00  0.00    -0.386 OA
HETATM   27  H1  UNL     1      27.868   4.818  47.640  1.00  0.00     0.210 HD
ENDBRANCH   1  26
TORSDOF 5
ENDMDL
MODEL 4
REMARK VINA RESULT:      -7.5      3.481      6.635
REMARK  5 active torsions:
REMARK  status: ('A' for Active; 'I' for Inactive)
REMARK    1  A    between atoms: O1_1  and  C1_2 
REMARK    2  A    between atoms: C5_6  and  N1_7 
REMARK    3  A    between atoms: N1_7  and  C6_8 
REMARK    4  A    between atoms: C6_8  and  C7_9 
REMARK    5  A    between atoms: C11_13  and  C12_14 
ROOT
HETATM    1  C1  UNL     1      23.162  -0.972  54.882  1.00  0.00     0.099 C 
HETATM    2  C2  UNL     1      21.797  -0.995  54.974  1.00  0.00     0.031 C 
HETATM    3  C3  UNL     1      21.961   0.270  54.165  1.00  0.00     0.015 C 
HETATM    4  C4  UNL     1      21.620  -0.120  52.712  1.00  0.00     0.078 C 
HETATM    5  C5  UNL     1      22.055   0.902  51.859  1.00  0.00     0.101 C 
HETATM    6  N2  UNL     1      22.717   1.414  50.982  1.00  0.00    -0.230 N 
HETATM    7  C13 UNL     1      23.382   2.069  50.043  1.00  0.00     0.235 A 
HETATM    8  N3  UNL     1      23.826   2.386  51.108  1.00  0.00    -0.241 N 
HETATM    9  C14 UNL     1      24.357   2.776  52.225  1.00  0.00     0.194 C 
HETATM   10  N4  UNL     1      24.789   3.294  53.371  1.00  0.00    -0.197 NA
HETATM   11  N5  UNL     1      25.944   2.611  54.005  1.00  0.00    -0.199 NA
HETATM   12  S1  UNL     1      26.414   0.884  53.589  1.00  0.00    -0.164 SA
HETATM   13  C15 UNL     1      24.961  -0.085  54.247  1.00  0.00     0.172 C 
HETATM   14  C16 UNL     1      24.588  -1.209  54.946  1.00  0.00     0.086 C 
HETATM   15  H14 UNL     1      25.461   3.580  54.021  1.00  0.00     0.270 HD
ENDROOT
BRANCH   5  16
HETATM   16  N1  UNL     1      21.235   2.193  51.919  1.00  0.00    -0.377 N 
HETATM   17  H7  UNL     1      21.708   3.173  51.826  1.00  0.00     0.160 HD
BRANCH  16  18
HETATM   18  C6  UNL     1      19.786   2.191  52.176  1.00  0.00     0.138 C 
BRANCH  18  19
HETATM   19  C7  UNL     1      19.156   2.178  50.848  1.00  0.00     0.037 A 
HETATM   20  C8  UNL     1      18.563   1.111  51.300  1.00  0.00    -0.052 A 
HETATM   21  C9  UNL     1      18.061   0.165  51.683  1.00  0.00     0.017 A 
HETATM   22  C12 UNL     1      18.161   1.232  50.289  1.00  0.00     0.066 A 
HETATM   23  C10 UNL     1      17.536  -0.856  52.071  1.00  0.00     0.014 A 
HETATM   24  C11 UNL     1      17.348  -0.096  50.630  1.00  0.00     0.034 A 
HETATM   25 CL1  UNL     1      18.268   2.378  48.882  1.00  0.00    -0.114 Cl
ENDBRANCH  18  19
ENDBRANCH  16  18
ENDBRANCH   5  16
BRANCH   1  26
HETATM   26  O1  UNL     1      23.139  -2.207  55.651  1.00  0.00    -0.386 OA
HETATM   27  H1  UNL     1      23.115  -1.996  56.697  1.00  0.00     0.210 HD
ENDBRANCH   1  26
TORSDOF 5
ENDMDL
MODEL 5
REMARK VINA RESULT:      -7.5      1.618      2.046
REMARK  5 active torsions:
REMARK  status: ('A' for Active; 'I' for Inactive)
REMARK    1  A    between atoms: O1_1  and  C1_2 
REMARK    2  A    between atoms: C5_6  and  N1_7 
REMARK    3  A    between atoms: N1_7  and  C6_8 
REMARK    4  A    between atoms: C6_8  and  C7_9 
REMARK    5  A    between atoms: C11_13  and  C12_14 
ROOT
HETATM    1  C1  UNL     1      19.205  -0.348  52.680  1.00  0.00     0.099 C 
HETATM    2  C2  UNL     1      19.942  -1.128  53.528  1.00  0.00     0.031 C 
HETATM    3  C3  UNL     1      21.068  -0.503  52.740  1.00  0.00     0.015 C 
HETATM    4  C4  UNL     1      21.649   0.598  53.651  1.00  0.00     0.078 C 
HETATM    5  C5  UNL     1      22.472   1.430  52.881  1.00  0.00     0.101 C 
HETATM    6  N2  UNL     1      22.828   2.456  52.344  1.00  0.00    -0.230 N 
HETATM    7  C13 UNL     1      23.306   3.522  51.719  1.00  0.00     0.235 A 
HETATM    8  N3  UNL     1      22.788   2.811  50.907  1.00  0.00    -0.241 N 
HETATM    9  C14 UNL     1      22.247   2.094  49.973  1.00  0.00     0.194 C 
HETATM   10  N4  UNL     1      21.837   1.284  49.001  1.00  0.00    -0.197 NA
HETATM   11  N5  UNL     1      20.418   1.422  48.588  1.00  0.00    -0.199 NA
HETATM   12  S1  UNL     1      19.155   2.217  49.661  1.00  0.00    -0.164 SA
HETATM   13  C15 UNL     1      19.047   1.019  51.088  1.00  0.00     0.172 C 
HETATM   14  C16 UNL     1      18.186   0.363  51.936  1.00  0.00     0.086 C 
HETATM   15  H14 UNL     1      21.351   1.048  48.186  1.00  0.00     0.270 HD
ENDROOT
BRANCH   5  16
HETATM   16  N1  UNL     1      23.801   0.806  52.445  1.00  0.00    -0.377 N 
HETATM   17  H7  UNL     1      24.161   0.895  51.418  1.00  0.00     0.160 HD
BRANCH  16  18
HETATM   18  C6  UNL     1      24.625  -0.003  53.357  1.00  0.00     0.138 C 
BRANCH  18  19
HETATM   19  C7  UNL     1      25.854   0.777  53.566  1.00  0.00     0.037 A 
HETATM   20  C8  UNL     1      26.443  -0.340  53.249  1.00  0.00    -0.052 A 
HETATM   21  C9  UNL     1      26.961  -1.320  52.995  1.00  0.00     0.017 A 
HETATM   22  C12 UNL     1      27.268   0.357  53.421  1.00  0.00     0.066 A 
HETATM   23  C10 UNL     1      27.526  -2.363  52.746  1.00  0.00     0.014 A 
HETATM   24  C11 UNL     1      28.187  -0.900  53.084  1.00  0.00     0.034 A 
HETATM   25 CL1  UNL     1      27.542   2.107  53.832  1.00  0.00    -0.114 Cl
ENDBRANCH  18  19
ENDBRANCH  16  18
ENDBRANCH   5  16
BRANCH   1  26
HETATM   26  O1  UNL     1      18.034  -0.869  53.369  1.00  0.00    -0.386 OA
HETATM   27  H1  UNL     1      18.319  -1.606  54.086  1.00  0.00     0.210 HD
ENDBRANCH   1  26
TORSDOF 5
ENDMDL
MODEL 6
REMARK VINA RESULT:      -7.5      3.467      5.926
REMARK  5 active torsions:
REMARK  status: ('A' for Active; 'I' for Inactive)
REMARK    1  A    between atoms: O1_1  and  C1_2 
REMARK    2  A    between atoms: C5_6  and  N1_7 
REMARK    3  A    between atoms: N1_7  and  C6_8 
REMARK    4  A    between atoms: C6_8  and  C7_9 
REMARK    5  A    between atoms: C11_13  and  C12_14 
ROOT
HETATM    1  C1  UNL     1      25.725   1.534  52.020  1.00  0.00     0.099 C 
HETATM    2  C2  UNL     1      24.965   0.751  52.845  1.00  0.00     0.031 C 
HETATM    3  C3  UNL     1      23.917   1.761  52.443  1.00  0.00     0.015 C 
HETATM    4  C4  UNL     1      23.046   1.056  51.383  1.00  0.00     0.078 C 
HETATM    5  C5  UNL     1      22.264   2.017  50.732  1.00  0.00     0.101 C 
HETATM    6  N2  UNL     1      21.871   2.691  49.805  1.00  0.00    -0.230 N 
HETATM    7  C13 UNL     1      21.369   3.475  48.862  1.00  0.00     0.235 A 
HETATM    8  N3  UNL     1      22.108   4.129  49.540  1.00  0.00    -0.241 N 
HETATM    9  C14 UNL     1      22.894   4.897  50.227  1.00  0.00     0.194 C 
HETATM   10  N4  UNL     1      23.570   5.717  51.028  1.00  0.00    -0.197 NA
HETATM   11  N5  UNL     1      25.007   5.907  50.709  1.00  0.00    -0.199 NA
HETATM   12  S1  UNL     1      25.948   4.717  49.671  1.00  0.00    -0.164 SA
HETATM   13  C15 UNL     1      25.970   3.193  50.748  1.00  0.00     0.172 C 
HETATM   14  C16 UNL     1      26.752   2.163  51.216  1.00  0.00     0.086 C 
HETATM   15  H14 UNL     1      24.215   6.420  51.242  1.00  0.00     0.270 HD
ENDROOT
BRANCH   5  16
HETATM   16  N1  UNL     1      21.125   2.605  51.570  1.00  0.00    -0.377 N 
HETATM   17  H7  UNL     1      20.586   3.499  51.249  1.00  0.00     0.160 HD
BRANCH  16  18
HETATM   18  C6  UNL     1      20.744   2.049  52.878  1.00  0.00     0.138 C 
BRANCH  18  19
HETATM   19  C7  UNL     1      19.822   0.944  52.577  1.00  0.00     0.037 A 
HETATM   20  C8  UNL     1      20.545   0.297  53.446  1.00  0.00    -0.052 A 
HETATM   21  C9  UNL     1      21.188  -0.279  54.186  1.00  0.00     0.017 A 
HETATM   22  C12 UNL     1      19.783  -0.427  53.140  1.00  0.00     0.066 A 
HETATM   23  C10 UNL     1      21.877  -0.909  54.958  1.00  0.00     0.014 A 
HETATM   24  C11 UNL     1      20.540  -1.403  54.146  1.00  0.00     0.034 A 
HETATM   25 CL1  UNL     1      18.317  -0.528  52.070  1.00  0.00    -0.114 Cl
ENDBRANCH  18  19
ENDBRANCH  16  18
ENDBRANCH   5  16
BRANCH   1  26
HETATM   26  O1  UNL     1      26.820   0.623  52.320  1.00  0.00    -0.386 OA
HETATM   27  H1  UNL     1      26.932   0.508  53.374  1.00  0.00     0.210 HD
ENDBRANCH   1  26
TORSDOF 5
ENDMDL
MODEL 7
REMARK VINA RESULT:      -7.4      3.221      6.661
REMARK  5 active torsions:
REMARK  status: ('A' for Active; 'I' for Inactive)
REMARK    1  A    between atoms: O1_1  and  C1_2 
REMARK    2  A    between atoms: C5_6  and  N1_7 
REMARK    3  A    between atoms: N1_7  and  C6_8 
REMARK    4  A    between atoms: C6_8  and  C7_9 
REMARK    5  A    between atoms: C11_13  and  C12_14 
ROOT
HETATM    1  C1  UNL     1      24.789  -0.132  53.537  1.00  0.00     0.099 C 
HETATM    2  C2  UNL     1      23.690  -0.595  54.208  1.00  0.00     0.031 C 
HETATM    3  C3  UNL     1      23.024   0.463  53.360  1.00  0.00     0.015 C 
HETATM    4  C4  UNL     1      22.334  -0.301  52.212  1.00  0.00     0.078 C 
HETATM    5  C5  UNL     1      21.973   0.615  51.216  1.00  0.00     0.101 C 
HETATM    6  N2  UNL     1      21.990   1.133  50.121  1.00  0.00    -0.230 N 
HETATM    7  C13 UNL     1      21.932   1.773  48.962  1.00  0.00     0.235 A 
HETATM    8  N3  UNL     1      22.588   2.427  49.720  1.00  0.00    -0.241 N 
HETATM    9  C14 UNL     1      23.309   3.187  50.483  1.00  0.00     0.194 C 
HETATM   10  N4  UNL     1      23.909   4.038  51.311  1.00  0.00    -0.197 NA
HETATM   11  N5  UNL     1      25.385   3.926  51.410  1.00  0.00    -0.199 NA
HETATM   12  S1  UNL     1      26.292   2.412  50.898  1.00  0.00    -0.164 SA
HETATM   13  C15 UNL     1      25.705   1.163  52.155  1.00  0.00     0.172 C 
HETATM   14  C16 UNL     1      26.100   0.143  52.989  1.00  0.00     0.086 C 
HETATM   15  H14 UNL     1      24.609   4.659  51.596  1.00  0.00     0.270 HD
ENDROOT
BRANCH   5  16
HETATM   16  N1  UNL     1      20.805   1.538  51.575  1.00  0.00    -0.377 N 
HETATM   17  H7  UNL     1      20.812   2.596  51.302  1.00  0.00     0.160 HD
BRANCH  16  18
HETATM   18  C6  UNL     1      19.652   1.076  52.363  1.00  0.00     0.138 C 
BRANCH  18  19
HETATM   19  C7  UNL     1      18.631   0.699  51.374  1.00  0.00     0.037 A 
HETATM   20  C8  UNL     1      18.366  -0.250  52.225  1.00  0.00    -0.052 A 
HETATM   21  C9  UNL     1      18.147  -1.094  52.955  1.00  0.00     0.017 A 
HETATM   22  C12 UNL     1      17.645  -0.406  51.417  1.00  0.00     0.066 A 
HETATM   23  C10 UNL     1      17.917  -2.010  53.714  1.00  0.00     0.014 A 
HETATM   24  C11 UNL     1      17.171  -1.646  52.299  1.00  0.00     0.034 A 
HETATM   25 CL1  UNL     1      17.134   0.355  49.847  1.00  0.00    -0.114 Cl
ENDBRANCH  18  19
ENDBRANCH  16  18
ENDBRANCH   5  16
BRANCH   1  26
HETATM   26  O1  UNL     1      25.547  -1.123  54.287  1.00  0.00    -0.386 OA
HETATM   27  H1  UNL     1      24.963  -1.509  55.092  1.00  0.00     0.210 HD
ENDBRANCH   1  26
TORSDOF 5
ENDMDL
MODEL 8
REMARK VINA RESULT:      -7.3      3.575      6.182
REMARK  5 active torsions:
REMARK  status: ('A' for Active; 'I' for Inactive)
REMARK    1  A    between atoms: O1_1  and  C1_2 
REMARK    2  A    between atoms: C5_6  and  N1_7 
REMARK    3  A    between atoms: N1_7  and  C6_8 
REMARK    4  A    between atoms: C6_8  and  C7_9 
REMARK    5  A    between atoms: C11_13  and  C12_14 
ROOT
HETATM    1  C1  UNL     1      22.261   0.257  53.209  1.00  0.00     0.099 C 
HETATM    2  C2  UNL     1      21.338   1.241  52.985  1.00  0.00     0.031 C 
HETATM    3  C3  UNL     1      22.595   2.076  52.933  1.00  0.00     0.015 C 
HETATM    4  C4  UNL     1      22.861   2.332  51.436  1.00  0.00     0.078 C 
HETATM    5  C5  UNL     1      24.166   2.816  51.287  1.00  0.00     0.101 C 
HETATM    6  N2  UNL     1      25.322   2.808  50.924  1.00  0.00    -0.230 N 
HETATM    7  C13 UNL     1      26.598   2.900  50.577  1.00  0.00     0.235 A 
HETATM    8  N3  UNL     1      26.544   2.588  51.731  1.00  0.00    -0.241 N 
HETATM    9  C14 UNL     1      26.564   2.249  52.982  1.00  0.00     0.194 C 
HETATM   10  N4  UNL     1      26.583   2.062  54.299  1.00  0.00    -0.197 NA
HETATM   11  N5  UNL     1      26.596   0.651  54.760  1.00  0.00    -0.199 NA
HETATM   12  S1  UNL     1      26.066  -0.740  53.682  1.00  0.00    -0.164 SA
HETATM   13  C15 UNL     1      24.243  -0.399  53.472  1.00  0.00     0.172 C 
HETATM   14  C16 UNL     1      22.992  -0.969  53.454  1.00  0.00     0.086 C 
HETATM   15  H14 UNL     1      26.861   1.633  55.133  1.00  0.00     0.270 HD
ENDROOT
BRANCH   5  16
HETATM   16  N1  UNL     1      24.388   4.249  51.779  1.00  0.00    -0.377 N 
HETATM   17  H7  UNL     1      25.125   4.477  52.553  1.00  0.00     0.160 HD
BRANCH  16  18
HETATM   18  C6  UNL     1      23.580   5.379  51.296  1.00  0.00     0.138 C 
BRANCH  18  19
HETATM   19  C7  UNL     1      24.547   6.346  50.755  1.00  0.00     0.037 A 
HETATM   20  C8  UNL     1      23.941   6.101  49.629  1.00  0.00    -0.052 A 
HETATM   21  C9  UNL     1      23.429   5.873  48.639  1.00  0.00     0.017 A 
HETATM   22  C12 UNL     1      24.702   6.843  49.367  1.00  0.00     0.066 A 
HETATM   23  C10 UNL     1      22.906   5.624  47.575  1.00  0.00     0.014 A 
HETATM   24  C11 UNL     1      24.121   6.679  47.892  1.00  0.00     0.034 A 
HETATM   25 CL1  UNL     1      25.987   7.853  50.165  1.00  0.00    -0.114 Cl
ENDBRANCH  18  19
ENDBRANCH  16  18
ENDBRANCH   5  16
BRANCH   1  26
HETATM   26  O1  UNL     1      21.131  -0.658  53.271  1.00  0.00    -0.386 OA
HETATM   27  H1  UNL     1      20.214  -0.129  53.139  1.00  0.00     0.210 HD
ENDBRANCH   1  26
TORSDOF 5
ENDMDL
MODEL 9
REMARK VINA RESULT:      -7.2      9.686     11.867
REMARK  5 active torsions:
REMARK  status: ('A' for Active; 'I' for Inactive)
REMARK    1  A    between atoms: O1_1  and  C1_2 
REMARK    2  A    between atoms: C5_6  and  N1_7 
REMARK    3  A    between atoms: N1_7  and  C6_8 
REMARK    4  A    between atoms: C6_8  and  C7_9 
REMARK    5  A    between atoms: C11_13  and  C12_14 
ROOT
HETATM    1  C1  UNL     1      29.138  11.580  48.771  1.00  0.00     0.099 C 
HETATM    2  C2  UNL     1      27.950  10.943  49.009  1.00  0.00     0.031 C 
HETATM    3  C3  UNL     1      28.666   9.843  48.261  1.00  0.00     0.015 C 
HETATM    4  C4  UNL     1      29.131   8.844  49.340  1.00  0.00     0.078 C 
HETATM    5  C5  UNL     1      30.069   7.974  48.771  1.00  0.00     0.101 C 
HETATM    6  N2  UNL     1      31.153   7.455  48.611  1.00  0.00    -0.230 N 
HETATM    7  C13 UNL     1      32.290   6.825  48.355  1.00  0.00     0.235 A 
HETATM    8  N3  UNL     1      32.114   7.644  47.500  1.00  0.00    -0.241 N 
HETATM    9  C14 UNL     1      31.990   8.509  46.542  1.00  0.00     0.194 C 
HETATM   10  N4  UNL     1      31.782   9.279  45.478  1.00  0.00    -0.197 NA
HETATM   11  N5  UNL     1      32.322  10.659  45.552  1.00  0.00    -0.199 NA
HETATM   12  S1  UNL     1      32.751  11.462  47.149  1.00  0.00    -0.164 SA
HETATM   13  C15 UNL     1      31.077  11.639  47.957  1.00  0.00     0.172 C 
HETATM   14  C16 UNL     1      30.263  12.485  48.674  1.00  0.00     0.086 C 
HETATM   15  H14 UNL     1      32.018   9.942  44.800  1.00  0.00     0.270 HD
ENDROOT
BRANCH   5  16
HETATM   16  N1  UNL     1      29.496   6.953  47.784  1.00  0.00    -0.377 N 
HETATM   17  H7  UNL     1      29.635   7.064  46.706  1.00  0.00     0.160 HD
BRANCH  16  18
HETATM   18  C6  UNL     1      28.671   5.816  48.221  1.00  0.00     0.138 C 
BRANCH  18  19
HETATM   19  C7  UNL     1      27.297   6.334  48.285  1.00  0.00     0.037 A 
HETATM   20  C8  UNL     1      27.041   5.176  48.823  1.00  0.00    -0.052 A 
HETATM   21  C9  UNL     1      26.809   4.157  49.272  1.00  0.00     0.017 A 
HETATM   22  C12 UNL     1      26.075   5.690  48.823  1.00  0.00     0.066 A 
HETATM   23  C10 UNL     1      26.545   3.068  49.733  1.00  0.00     0.014 A 
HETATM   24  C11 UNL     1      25.540   4.339  49.476  1.00  0.00     0.034 A 
HETATM   25 CL1  UNL     1      25.360   7.301  48.374  1.00  0.00    -0.114 Cl
ENDBRANCH  18  19
ENDBRANCH  16  18
ENDBRANCH   5  16
BRANCH   1  26
HETATM   26  O1  UNL     1      28.565  12.712  49.484  1.00  0.00    -0.386 OA
HETATM   27  H1  UNL     1      29.327  13.409  49.753  1.00  0.00     0.210 HD
ENDBRANCH   1  26
TORSDOF 5
ENDMDL
