MODEL 1
REMARK VINA RESULT:      -8.4      0.000      0.000
REMARK  5 active torsions:
REMARK  status: ('A' for Active; 'I' for Inactive)
REMARK    1  A    between atoms: S1_3  and  C3_4 
REMARK    2  A    between atoms: C5_6  and  C6_7 
REMARK    3  A    between atoms: C15_18  and  C16_19 
REMARK    4  A    between atoms: C16_19  and  S2_20 
REMARK    5  A    between atoms: S2_20  and  C17_21 
ROOT
HETATM    1  C3  UNL     1      22.114   2.241  52.413  1.00  0.00    -0.018 C 
HETATM    2  C4  UNL     1      23.131   1.412  52.226  1.00  0.00     0.025 C 
HETATM    3  C5  UNL     1      24.551   1.566  51.941  1.00  0.00    -0.035 C 
HETATM    4  C14 UNL     1      24.889   2.726  51.346  1.00  0.00     0.017 C 
HETATM    5  C15 UNL     1      24.207   3.951  50.875  1.00  0.00     0.154 C 
HETATM    6  O2  UNL     1      22.847   3.964  51.020  1.00  0.00    -0.376 OA
HETATM    7  C19 UNL     1      22.386   3.727  52.314  1.00  0.00     0.212 C 
ENDROOT
BRANCH   3   8
HETATM    8  C6  UNL     1      25.557   0.581  52.236  1.00  0.00     0.029 C 
HETATM    9  C7  UNL     1      26.614   0.276  52.907  1.00  0.00     0.041 C 
HETATM   10  C8  UNL     1      27.387   1.073  53.903  1.00  0.00     0.253 C 
HETATM   11  C13 UNL     1      27.378  -0.993  52.924  1.00  0.00    -0.016 A 
HETATM   12  O1  UNL     1      27.224   2.267  54.334  1.00  0.00    -0.268 OA
HETATM   13  N1  UNL     1      28.499   0.312  54.436  1.00  0.00    -0.345 N 
HETATM   14  C9  UNL     1      28.747  -0.460  53.284  1.00  0.00     0.142 A 
HETATM   15  H6  UNL     1      28.905   0.397  55.395  1.00  0.00     0.163 HD
HETATM   16  C10 UNL     1      29.519  -1.687  53.336  1.00  0.00     0.003 A 
HETATM   17  C11 UNL     1      28.710  -2.715  53.025  1.00  0.00    -0.001 A 
HETATM   18  C12 UNL     1      27.317  -2.300  52.748  1.00  0.00     0.010 A 
ENDBRANCH   3   8
BRANCH   1  19
HETATM   19  S1  UNL     1      20.524   1.454  52.746  1.00  0.00    -0.223 SA
HETATM   20  C2  UNL     1      20.666   0.378  54.145  1.00  0.00     0.006 A 
HETATM   21  C1  UNL     1      20.024  -0.291  53.190  1.00  0.00     0.200 A 
ENDBRANCH   1  19
BRANCH   5  22
HETATM   22  C16 UNL     1      24.513   4.105  49.381  1.00  0.00     0.110 C 
BRANCH  22  23
HETATM   23  S2  UNL     1      24.927   5.783  48.920  1.00  0.00    -0.167 SA
BRANCH  23  24
HETATM   24  C17 UNL     1      26.687   6.016  48.588  1.00  0.00     0.069 C 
HETATM   25  C18 UNL     1      27.459   4.721  48.767  1.00  0.00     0.016 C 
ENDBRANCH  23  24
ENDBRANCH  22  23
ENDBRANCH   5  22
TORSDOF 5
ENDMDL
MODEL 2
REMARK VINA RESULT:      -8.3      1.264      1.950
REMARK  5 active torsions:
REMARK  status: ('A' for Active; 'I' for Inactive)
REMARK    1  A    between atoms: S1_3  and  C3_4 
REMARK    2  A    between atoms: C5_6  and  C6_7 
REMARK    3  A    between atoms: C15_18  and  C16_19 
REMARK    4  A    between atoms: C16_19  and  S2_20 
REMARK    5  A    between atoms: S2_20  and  C17_21 
ROOT
HETATM    1  C3  UNL     1      21.984   2.048  52.520  1.00  0.00    -0.018 C 
HETATM    2  C4  UNL     1      23.013   1.236  52.332  1.00  0.00     0.025 C 
HETATM    3  C5  UNL     1      24.407   1.406  51.943  1.00  0.00    -0.035 C 
HETATM    4  C14 UNL     1      24.667   2.524  51.238  1.00  0.00     0.017 C 
HETATM    5  C15 UNL     1      23.916   3.686  50.718  1.00  0.00     0.154 C 
HETATM    6  O2  UNL     1      22.569   3.672  50.950  1.00  0.00    -0.376 OA
HETATM    7  C19 UNL     1      22.198   3.528  52.286  1.00  0.00     0.212 C 
ENDROOT
BRANCH   3   8
HETATM    8  C6  UNL     1      25.462   0.478  52.248  1.00  0.00     0.029 C 
HETATM    9  C7  UNL     1      26.526   0.229  52.932  1.00  0.00     0.041 C 
HETATM   10  C8  UNL     1      27.239   1.063  53.941  1.00  0.00     0.253 C 
HETATM   11  C13 UNL     1      27.358  -0.996  52.955  1.00  0.00    -0.016 A 
HETATM   12  O1  UNL     1      27.005   2.245  54.374  1.00  0.00    -0.268 OA
HETATM   13  N1  UNL     1      28.385   0.364  54.486  1.00  0.00    -0.345 N 
HETATM   14  C9  UNL     1      28.691  -0.389  53.335  1.00  0.00     0.142 A 
HETATM   15  H6  UNL     1      28.773   0.467  55.451  1.00  0.00     0.163 HD
HETATM   16  C10 UNL     1      29.530  -1.572  53.392  1.00  0.00     0.003 A 
HETATM   17  C11 UNL     1      28.783  -2.641  53.067  1.00  0.00    -0.001 A 
HETATM   18  C12 UNL     1      27.373  -2.303  52.773  1.00  0.00     0.010 A 
ENDBRANCH   3   8
BRANCH   1  19
HETATM   19  S1  UNL     1      20.445   1.246  53.017  1.00  0.00    -0.223 SA
HETATM   20  C2  UNL     1      20.761   0.097  54.328  1.00  0.00     0.006 A 
HETATM   21  C1  UNL     1      19.994  -0.521  53.431  1.00  0.00     0.200 A 
ENDBRANCH   1  19
BRANCH   5  22
HETATM   22  C16 UNL     1      24.121   3.728  49.199  1.00  0.00     0.110 C 
BRANCH  22  23
HETATM   23  S2  UNL     1      22.596   3.946  48.291  1.00  0.00    -0.167 SA
BRANCH  23  24
HETATM   24  C17 UNL     1      21.976   2.413  47.563  1.00  0.00     0.069 C 
HETATM   25  C18 UNL     1      21.712   1.363  48.627  1.00  0.00     0.016 C 
ENDBRANCH  23  24
ENDBRANCH  22  23
ENDBRANCH   5  22
TORSDOF 5
ENDMDL
MODEL 3
REMARK VINA RESULT:      -8.2      0.916      4.778
REMARK  5 active torsions:
REMARK  status: ('A' for Active; 'I' for Inactive)
REMARK    1  A    between atoms: S1_3  and  C3_4 
REMARK    2  A    between atoms: C5_6  and  C6_7 
REMARK    3  A    between atoms: C15_18  and  C16_19 
REMARK    4  A    between atoms: C16_19  and  S2_20 
REMARK    5  A    between atoms: S2_20  and  C17_21 
ROOT
HETATM    1  C3  UNL     1      24.336   3.972  50.380  1.00  0.00    -0.018 C 
HETATM    2  C4  UNL     1      24.938   3.050  51.116  1.00  0.00     0.025 C 
HETATM    3  C5  UNL     1      24.606   1.704  51.563  1.00  0.00    -0.035 C 
HETATM    4  C14 UNL     1      23.288   1.430  51.610  1.00  0.00     0.017 C 
HETATM    5  C15 UNL     1      22.017   2.130  51.326  1.00  0.00     0.154 C 
HETATM    6  O2  UNL     1      22.134   3.435  50.936  1.00  0.00    -0.376 OA
HETATM    7  C19 UNL     1      22.960   3.654  49.835  1.00  0.00     0.212 C 
ENDROOT
BRANCH   3   8
HETATM    8  C6  UNL     1      25.568   0.708  51.950  1.00  0.00     0.029 C 
HETATM    9  C7  UNL     1      26.529   0.375  52.743  1.00  0.00     0.041 C 
HETATM   10  C8  UNL     1      27.160   1.132  53.862  1.00  0.00     0.253 C 
HETATM   11  C13 UNL     1      27.288  -0.895  52.811  1.00  0.00    -0.016 A 
HETATM   12  O1  UNL     1      26.937   2.309  54.314  1.00  0.00    -0.268 OA
HETATM   13  N1  UNL     1      28.195   0.350  54.507  1.00  0.00    -0.345 N 
HETATM   14  C9  UNL     1      28.596  -0.377  53.369  1.00  0.00     0.142 A 
HETATM   15  H6  UNL     1      28.471   0.397  55.514  1.00  0.00     0.163 HD
HETATM   16  C10 UNL     1      29.360  -1.606  53.474  1.00  0.00     0.003 A 
HETATM   17  C11 UNL     1      28.603  -2.620  53.020  1.00  0.00    -0.001 A 
HETATM   18  C12 UNL     1      27.257  -2.193  52.577  1.00  0.00     0.010 A 
ENDBRANCH   3   8
BRANCH   1  19
HETATM   19  S1  UNL     1      25.259   5.506  50.150  1.00  0.00    -0.223 SA
HETATM   20  C2  UNL     1      24.857   6.221  48.580  1.00  0.00     0.006 A 
HETATM   21  C1  UNL     1      26.183   6.243  48.701  1.00  0.00     0.200 A 
ENDBRANCH   1  19
BRANCH   5  22
HETATM   22  C16 UNL     1      21.178   2.106  52.610  1.00  0.00     0.110 C 
BRANCH  22  23
HETATM   23  S2  UNL     1      20.636   0.464  53.063  1.00  0.00    -0.167 SA
BRANCH  23  24
HETATM   24  C17 UNL     1      21.334  -0.109  54.628  1.00  0.00     0.069 C 
HETATM   25  C18 UNL     1      22.607  -0.906  54.407  1.00  0.00     0.016 C 
ENDBRANCH  23  24
ENDBRANCH  22  23
ENDBRANCH   5  22
TORSDOF 5
ENDMDL
MODEL 4
REMARK VINA RESULT:      -8.0      2.081      2.581
REMARK  5 active torsions:
REMARK  status: ('A' for Active; 'I' for Inactive)
REMARK    1  A    between atoms: S1_3  and  C3_4 
REMARK    2  A    between atoms: C5_6  and  C6_7 
REMARK    3  A    between atoms: C15_18  and  C16_19 
REMARK    4  A    between atoms: C16_19  and  S2_20 
REMARK    5  A    between atoms: S2_20  and  C17_21 
ROOT
HETATM    1  C3  UNL     1      21.277   2.038  52.004  1.00  0.00    -0.018 C 
HETATM    2  C4  UNL     1      22.598   1.967  52.070  1.00  0.00     0.025 C 
HETATM    3  C5  UNL     1      23.663   2.871  52.484  1.00  0.00    -0.035 C 
HETATM    4  C14 UNL     1      23.352   4.180  52.423  1.00  0.00     0.017 C 
HETATM    5  C15 UNL     1      22.190   5.010  52.041  1.00  0.00     0.154 C 
HETATM    6  O2  UNL     1      21.102   4.325  51.575  1.00  0.00    -0.376 OA
HETATM    7  C19 UNL     1      20.617   3.333  52.426  1.00  0.00     0.212 C 
ENDROOT
BRANCH   3   8
HETATM    8  C6  UNL     1      24.969   2.454  52.920  1.00  0.00     0.029 C 
HETATM    9  C7  UNL     1      25.736   1.482  53.275  1.00  0.00     0.041 C 
HETATM   10  C8  UNL     1      25.451   0.023  53.393  1.00  0.00     0.253 C 
HETATM   11  C13 UNL     1      27.170   1.509  53.648  1.00  0.00    -0.016 A 
HETATM   12  O1  UNL     1      24.375  -0.643  53.198  1.00  0.00    -0.268 OA
HETATM   13  N1  UNL     1      26.631  -0.712  53.802  1.00  0.00    -0.345 N 
HETATM   14  C9  UNL     1      27.213   0.313  54.573  1.00  0.00     0.142 A 
HETATM   15  H6  UNL     1      26.870  -1.695  53.542  1.00  0.00     0.163 HD
HETATM   16  C10 UNL     1      28.618   0.295  54.938  1.00  0.00     0.003 A 
HETATM   17  C11 UNL     1      29.230   1.328  54.335  1.00  0.00    -0.001 A 
HETATM   18  C12 UNL     1      28.320   2.139  53.496  1.00  0.00     0.010 A 
ENDBRANCH   3   8
BRANCH   1  19
HETATM   19  S1  UNL     1      20.451   0.555  51.391  1.00  0.00    -0.223 SA
HETATM   20  C2  UNL     1      18.892   0.989  50.671  1.00  0.00     0.006 A 
HETATM   21  C1  UNL     1      18.686  -0.056  51.470  1.00  0.00     0.200 A 
ENDBRANCH   1  19
BRANCH   5  22
HETATM   22  C16 UNL     1      22.646   5.961  50.928  1.00  0.00     0.110 C 
BRANCH  22  23
HETATM   23  S2  UNL     1      24.409   5.904  50.635  1.00  0.00    -0.167 SA
BRANCH  23  24
HETATM   24  C17 UNL     1      24.870   4.804  49.279  1.00  0.00     0.069 C 
HETATM   25  C18 UNL     1      26.147   4.045  49.592  1.00  0.00     0.016 C 
ENDBRANCH  23  24
ENDBRANCH  22  23
ENDBRANCH   5  22
TORSDOF 5
ENDMDL
MODEL 5
REMARK VINA RESULT:      -7.8      2.960      6.967
REMARK  5 active torsions:
REMARK  status: ('A' for Active; 'I' for Inactive)
REMARK    1  A    between atoms: S1_3  and  C3_4 
REMARK    2  A    between atoms: C5_6  and  C6_7 
REMARK    3  A    between atoms: C15_18  and  C16_19 
REMARK    4  A    between atoms: C16_19  and  S2_20 
REMARK    5  A    between atoms: S2_20  and  C17_21 
ROOT
HETATM    1  C3  UNL     1      26.218  -0.315  53.534  1.00  0.00    -0.018 C 
HETATM    2  C4  UNL     1      25.736   0.381  52.515  1.00  0.00     0.025 C 
HETATM    3  C5  UNL     1      24.491   1.088  52.244  1.00  0.00    -0.035 C 
HETATM    4  C14 UNL     1      23.429   0.662  52.954  1.00  0.00     0.017 C 
HETATM    5  C15 UNL     1      23.141  -0.362  53.980  1.00  0.00     0.154 C 
HETATM    6  O2  UNL     1      24.194  -1.163  54.328  1.00  0.00    -0.376 OA
HETATM    7  C19 UNL     1      25.338  -0.488  54.753  1.00  0.00     0.212 C 
ENDROOT
BRANCH   3   8
HETATM    8  C6  UNL     1      24.346   2.156  51.291  1.00  0.00     0.029 C 
HETATM    9  C7  UNL     1      24.922   3.068  50.587  1.00  0.00     0.041 C 
HETATM   10  C8  UNL     1      26.362   3.443  50.487  1.00  0.00     0.253 C 
HETATM   11  C13 UNL     1      24.327   4.017  49.617  1.00  0.00    -0.016 A 
HETATM   12  O1  UNL     1      27.396   2.981  51.084  1.00  0.00    -0.268 OA
HETATM   13  N1  UNL     1      26.561   4.519  49.537  1.00  0.00    -0.345 N 
HETATM   14  C9  UNL     1      25.319   5.154  49.735  1.00  0.00     0.142 A 
HETATM   15  H6  UNL     1      27.407   4.674  48.944  1.00  0.00     0.163 HD
HETATM   16  C10 UNL     1      24.777   6.096  48.772  1.00  0.00     0.003 A 
HETATM   17  C11 UNL     1      23.659   5.570  48.242  1.00  0.00    -0.001 A 
HETATM   18  C12 UNL     1      23.336   4.227  48.772  1.00  0.00     0.010 A 
ENDBRANCH   3   8
BRANCH   1  19
HETATM   19  S1  UNL     1      27.879  -0.982  53.299  1.00  0.00    -0.223 SA
HETATM   20  C2  UNL     1      28.987  -0.267  54.482  1.00  0.00     0.006 A 
HETATM   21  C1  UNL     1      29.582  -0.210  53.292  1.00  0.00     0.200 A 
ENDBRANCH   1  19
BRANCH   5  22
HETATM   22  C16 UNL     1      22.035  -1.270  53.431  1.00  0.00     0.110 C 
BRANCH  22  23
HETATM   23  S2  UNL     1      20.394  -0.598  53.667  1.00  0.00    -0.167 SA
BRANCH  23  24
HETATM   24  C17 UNL     1      19.753   0.243  52.203  1.00  0.00     0.069 C 
HETATM   25  C18 UNL     1      19.879   1.750  52.331  1.00  0.00     0.016 C 
ENDBRANCH  23  24
ENDBRANCH  22  23
ENDBRANCH   5  22
TORSDOF 5
ENDMDL
MODEL 6
REMARK VINA RESULT:      -7.7      2.829      7.040
REMARK  5 active torsions:
REMARK  status: ('A' for Active; 'I' for Inactive)
REMARK    1  A    between atoms: S1_3  and  C3_4 
REMARK    2  A    between atoms: C5_6  and  C6_7 
REMARK    3  A    between atoms: C15_18  and  C16_19 
REMARK    4  A    between atoms: C16_19  and  S2_20 
REMARK    5  A    between atoms: S2_20  and  C17_21 
ROOT
HETATM    1  C3  UNL     1      26.297   0.576  52.749  1.00  0.00    -0.018 C 
HETATM    2  C4  UNL     1      26.453   1.382  51.710  1.00  0.00     0.025 C 
HETATM    3  C5  UNL     1      25.658   2.434  51.089  1.00  0.00    -0.035 C 
HETATM    4  C14 UNL     1      24.334   2.355  51.319  1.00  0.00     0.017 C 
HETATM    5  C15 UNL     1      23.403   1.471  52.052  1.00  0.00     0.154 C 
HETATM    6  O2  UNL     1      23.973   0.389  52.664  1.00  0.00    -0.376 OA
HETATM    7  C19 UNL     1      25.013   0.684  53.543  1.00  0.00     0.212 C 
ENDROOT
BRANCH   3   8
HETATM    8  C6  UNL     1      26.193   3.491  50.274  1.00  0.00     0.029 C 
HETATM    9  C7  UNL     1      26.128   4.729  49.921  1.00  0.00     0.041 C 
HETATM   10  C8  UNL     1      25.205   5.811  50.367  1.00  0.00     0.253 C 
HETATM   11  C13 UNL     1      26.988   5.478  48.976  1.00  0.00    -0.016 A 
HETATM   12  O1  UNL     1      24.225   5.796  51.191  1.00  0.00    -0.268 OA
HETATM   13  N1  UNL     1      25.519   7.070  49.722  1.00  0.00    -0.345 N 
HETATM   14  C9  UNL     1      26.001   6.528  48.514  1.00  0.00     0.142 A 
HETATM   15  H6  UNL     1      25.386   8.024  50.126  1.00  0.00     0.163 HD
HETATM   16  C10 UNL     1      26.823   7.300  47.600  1.00  0.00     0.003 A 
HETATM   17  C11 UNL     1      28.046   6.744  47.551  1.00  0.00    -0.001 A 
HETATM   18  C12 UNL     1      28.185   5.559  48.426  1.00  0.00     0.010 A 
ENDBRANCH   3   8
BRANCH   1  19
HETATM   19  S1  UNL     1      27.661  -0.567  53.055  1.00  0.00    -0.223 SA
HETATM   20  C2  UNL     1      28.506  -0.110  54.543  1.00  0.00     0.006 A 
HETATM   21  C1  UNL     1      29.431  -0.332  53.611  1.00  0.00     0.200 A 
ENDBRANCH   1  19
BRANCH   5  22
HETATM   22  C16 UNL     1      22.376   0.942  51.044  1.00  0.00     0.110 C 
BRANCH  22  23
HETATM   23  S2  UNL     1      20.697   0.997  51.659  1.00  0.00    -0.167 SA
BRANCH  23  24
HETATM   24  C17 UNL     1      20.373  -0.222  52.952  1.00  0.00     0.069 C 
HETATM   25  C18 UNL     1      20.807   0.289  54.314  1.00  0.00     0.016 C 
ENDBRANCH  23  24
ENDBRANCH  22  23
ENDBRANCH   5  22
TORSDOF 5
ENDMDL
MODEL 7
REMARK VINA RESULT:      -7.5      3.165      6.427
REMARK  5 active torsions:
REMARK  status: ('A' for Active; 'I' for Inactive)
REMARK    1  A    between atoms: S1_3  and  C3_4 
REMARK    2  A    between atoms: C5_6  and  C6_7 
REMARK    3  A    between atoms: C15_18  and  C16_19 
REMARK    4  A    between atoms: C16_19  and  S2_20 
REMARK    5  A    between atoms: S2_20  and  C17_21 
ROOT
HETATM    1  C3  UNL     1      25.588   1.091  52.204  1.00  0.00    -0.018 C 
HETATM    2  C4  UNL     1      26.040   1.836  51.207  1.00  0.00     0.025 C 
HETATM    3  C5  UNL     1      25.498   2.920  50.398  1.00  0.00    -0.035 C 
HETATM    4  C14 UNL     1      24.154   2.959  50.326  1.00  0.00     0.017 C 
HETATM    5  C15 UNL     1      23.010   2.186  50.854  1.00  0.00     0.154 C 
HETATM    6  O2  UNL     1      23.332   1.089  51.604  1.00  0.00    -0.376 OA
HETATM    7  C19 UNL     1      24.174   1.338  52.687  1.00  0.00     0.212 C 
ENDROOT
BRANCH   3   8
HETATM    8  C6  UNL     1      26.291   3.895  49.697  1.00  0.00     0.029 C 
HETATM    9  C7  UNL     1      26.490   5.137  49.420  1.00  0.00     0.041 C 
HETATM   10  C8  UNL     1      25.747   6.353  49.860  1.00  0.00     0.253 C 
HETATM   11  C13 UNL     1      27.556   5.754  48.596  1.00  0.00    -0.016 A 
HETATM   12  O1  UNL     1      24.712   6.485  50.601  1.00  0.00    -0.268 OA
HETATM   13  N1  UNL     1      26.346   7.558  49.324  1.00  0.00    -0.345 N 
HETATM   14  C9  UNL     1      26.826   6.993  48.126  1.00  0.00     0.142 A 
HETATM   15  H6  UNL     1      26.357   8.500  49.776  1.00  0.00     0.163 HD
HETATM   16  C10 UNL     1      27.857   7.638  47.332  1.00  0.00     0.003 A 
HETATM   17  C11 UNL     1      28.954   6.861  47.345  1.00  0.00    -0.001 A 
HETATM   18  C12 UNL     1      28.792   5.631  48.150  1.00  0.00     0.010 A 
ENDBRANCH   3   8
BRANCH   1  19
HETATM   19  S1  UNL     1      26.744  -0.142  52.836  1.00  0.00    -0.223 SA
HETATM   20  C2  UNL     1      27.050   0.145  54.557  1.00  0.00     0.006 A 
HETATM   21  C1  UNL     1      28.229  -0.048  53.968  1.00  0.00     0.200 A 
ENDBRANCH   1  19
BRANCH   5  22
HETATM   22  C16 UNL     1      22.189   1.697  49.654  1.00  0.00     0.110 C 
BRANCH  22  23
HETATM   23  S2  UNL     1      22.689   2.447  48.110  1.00  0.00    -0.167 SA
BRANCH  23  24
HETATM   24  C17 UNL     1      21.794   3.970  47.735  1.00  0.00     0.069 C 
HETATM   25  C18 UNL     1      22.690   5.187  47.879  1.00  0.00     0.016 C 
ENDBRANCH  23  24
ENDBRANCH  22  23
ENDBRANCH   5  22
TORSDOF 5
ENDMDL
MODEL 8
REMARK VINA RESULT:      -7.5      2.888      6.349
REMARK  5 active torsions:
REMARK  status: ('A' for Active; 'I' for Inactive)
REMARK    1  A    between atoms: S1_3  and  C3_4 
REMARK    2  A    between atoms: C5_6  and  C6_7 
REMARK    3  A    between atoms: C15_18  and  C16_19 
REMARK    4  A    between atoms: C16_19  and  S2_20 
REMARK    5  A    between atoms: S2_20  and  C17_21 
ROOT
HETATM    1  C3  UNL     1      26.010   1.098  52.843  1.00  0.00    -0.018 C 
HETATM    2  C4  UNL     1      24.691   1.090  52.964  1.00  0.00     0.025 C 
HETATM    3  C5  UNL     1      23.570   1.400  52.085  1.00  0.00    -0.035 C 
HETATM    4  C14 UNL     1      23.857   2.241  51.074  1.00  0.00     0.017 C 
HETATM    5  C15 UNL     1      25.034   2.979  50.567  1.00  0.00     0.154 C 
HETATM    6  O2  UNL     1      26.179   2.844  51.304  1.00  0.00    -0.376 OA
HETATM    7  C19 UNL     1      26.596   1.531  51.517  1.00  0.00     0.212 C 
ENDROOT
BRANCH   3   8
HETATM    8  C6  UNL     1      22.236   0.887  52.247  1.00  0.00     0.029 C 
HETATM    9  C7  UNL     1      21.423   0.178  52.951  1.00  0.00     0.041 C 
HETATM   10  C8  UNL     1      21.652  -0.579  54.215  1.00  0.00     0.253 C 
HETATM   11  C13 UNL     1      19.979  -0.077  52.739  1.00  0.00    -0.016 A 
HETATM   12  O1  UNL     1      22.709  -0.747  54.917  1.00  0.00    -0.268 OA
HETATM   13  N1  UNL     1      20.433  -1.213  54.677  1.00  0.00    -0.345 N 
HETATM   14  C9  UNL     1      19.861  -1.430  53.407  1.00  0.00     0.142 A 
HETATM   15  H6  UNL     1      20.169  -1.399  55.670  1.00  0.00     0.163 HD
HETATM   16  C10 UNL     1      18.445  -1.700  53.240  1.00  0.00     0.003 A 
HETATM   17  C11 UNL     1      17.892  -0.677  52.566  1.00  0.00    -0.001 A 
HETATM   18  C12 UNL     1      18.858   0.388  52.221  1.00  0.00     0.010 A 
ENDBRANCH   3   8
BRANCH   1  19
HETATM   19  S1  UNL     1      26.925   0.600  54.317  1.00  0.00    -0.223 SA
HETATM   20  C2  UNL     1      28.611   1.127  54.185  1.00  0.00     0.006 A 
HETATM   21  C1  UNL     1      28.620  -0.144  54.584  1.00  0.00     0.200 A 
ENDBRANCH   1  19
BRANCH   5  22
HETATM   22  C16 UNL     1      24.673   4.469  50.546  1.00  0.00     0.110 C 
BRANCH  22  23
HETATM   23  S2  UNL     1      23.558   4.939  51.862  1.00  0.00    -0.167 SA
BRANCH  23  24
HETATM   24  C17 UNL     1      21.909   5.383  51.272  1.00  0.00     0.069 C 
HETATM   25  C18 UNL     1      20.891   4.310  51.615  1.00  0.00     0.016 C 
ENDBRANCH  23  24
ENDBRANCH  22  23
ENDBRANCH   5  22
TORSDOF 5
ENDMDL
MODEL 9
REMARK VINA RESULT:      -7.2      5.801      9.595
REMARK  5 active torsions:
REMARK  status: ('A' for Active; 'I' for Inactive)
REMARK    1  A    between atoms: S1_3  and  C3_4 
REMARK    2  A    between atoms: C5_6  and  C6_7 
REMARK    3  A    between atoms: C15_18  and  C16_19 
REMARK    4  A    between atoms: C16_19  and  S2_20 
REMARK    5  A    between atoms: S2_20  and  C17_21 
ROOT
HETATM    1  C3  UNL     1      32.330   5.373  46.611  1.00  0.00    -0.018 C 
HETATM    2  C4  UNL     1      31.319   5.155  47.439  1.00  0.00     0.025 C 
HETATM    3  C5  UNL     1      30.145   5.908  47.860  1.00  0.00    -0.035 C 
HETATM    4  C14 UNL     1      30.252   7.245  47.729  1.00  0.00     0.017 C 
HETATM    5  C15 UNL     1      31.260   8.219  47.261  1.00  0.00     0.154 C 
HETATM    6  O2  UNL     1      32.458   7.689  46.869  1.00  0.00    -0.376 OA
HETATM    7  C19 UNL     1      32.377   6.702  45.888  1.00  0.00     0.212 C 
ENDROOT
BRANCH   3   8
HETATM    8  C6  UNL     1      28.944   5.324  48.393  1.00  0.00     0.029 C 
HETATM    9  C7  UNL     1      27.675   5.435  48.584  1.00  0.00     0.041 C 
HETATM   10  C8  UNL     1      26.736   6.531  48.209  1.00  0.00     0.253 C 
HETATM   11  C13 UNL     1      26.736   4.477  49.213  1.00  0.00    -0.016 A 
HETATM   12  O1  UNL     1      26.941   7.652  47.625  1.00  0.00    -0.268 OA
HETATM   13  N1  UNL     1      25.376   6.215  48.598  1.00  0.00    -0.345 N 
HETATM   14  C9  UNL     1      25.697   5.446  49.734  1.00  0.00     0.142 A 
HETATM   15  H6  UNL     1      24.505   6.520  48.110  1.00  0.00     0.163 HD
HETATM   16  C10 UNL     1      24.743   4.534  50.338  1.00  0.00     0.003 A 
HETATM   17  C11 UNL     1      25.203   3.279  50.194  1.00  0.00    -0.001 A 
HETATM   18  C12 UNL     1      26.494   3.206  49.476  1.00  0.00     0.010 A 
ENDBRANCH   3   8
BRANCH   1  19
HETATM   19  S1  UNL     1      33.532   4.033  46.485  1.00  0.00    -0.223 SA
HETATM   20  C2  UNL     1      33.268   2.863  47.789  1.00  0.00     0.006 A 
HETATM   21  C1  UNL     1      34.574   3.121  47.741  1.00  0.00     0.200 A 
ENDBRANCH   1  19
BRANCH   5  22
HETATM   22  C16 UNL     1      31.541   9.186  48.418  1.00  0.00     0.110 C 
BRANCH  22  23
HETATM   23  S2  UNL     1      30.063   9.678  49.296  1.00  0.00    -0.167 SA
BRANCH  23  24
HETATM   24  C17 UNL     1      29.417  11.278  48.761  1.00  0.00     0.069 C 
HETATM   25  C18 UNL     1      30.425  12.389  48.999  1.00  0.00     0.016 C 
ENDBRANCH  23  24
ENDBRANCH  22  23
ENDBRANCH   5  22
TORSDOF 5
ENDMDL
