MODEL 1
REMARK VINA RESULT:      -7.4      0.000      0.000
REMARK  6 active torsions:
REMARK  status: ('A' for Active; 'I' for Inactive)
REMARK    1  A    between atoms: C2_2  and  P1_3 
REMARK    2  A    between atoms: P1_3  and  N1_4 
REMARK    3  A    between atoms: C3_5  and  C4_6 
REMARK    4  A    between atoms: C4_6  and  C5_7 
REMARK    5  A    between atoms: C4_6  and  C9_12 
REMARK    6  A    between atoms: C5_7  and  C6_8 
ROOT
HETATM    1  C9  UNL     1      25.914   0.737  52.466  1.00  0.00     0.023 C 
HETATM    2  C10 UNL     1      27.013   1.601  52.964  1.00  0.00     0.034 C 
HETATM    3  C11 UNL     1      28.285   1.644  53.476  1.00  0.00     0.001 C 
HETATM    4  C12 UNL     1      29.569   1.019  53.948  1.00  0.00    -0.009 C 
HETATM    5  C13 UNL     1      29.847  -0.304  53.966  1.00  0.00     0.087 C 
HETATM    6  N2  UNL     1      28.892  -1.253  53.498  1.00  0.00    -0.334 N 
HETATM    7  C14 UNL     1      27.918  -2.225  53.021  1.00  0.00     0.244 C 
HETATM    8  O1  UNL     1      28.835  -3.039  53.244  1.00  0.00    -0.268 OA
HETATM    9  C15 UNL     1      26.513  -1.963  52.532  1.00  0.00     0.071 C 
HETATM   10  C16 UNL     1      26.084  -0.713  52.445  1.00  0.00    -0.015 C 
HETATM   11  H16 UNL     1      28.041  -0.779  53.652  1.00  0.00     0.168 HD
ENDROOT
BRANCH   1  12
HETATM   12  C4  UNL     1      24.632   1.042  53.267  1.00  0.00     0.038 C 
BRANCH  12  13
HETATM   13  C3  UNL     1      23.987   2.245  52.723  1.00  0.00     0.095 C 
HETATM   14  N1  UNL     1      23.961   3.484  52.982  1.00  0.00    -0.257 NA
BRANCH  14  15
HETATM   15  P1  UNL     1      23.010   4.660  52.042  1.00  0.00     0.138 P 
BRANCH  15  16
HETATM   16  C2  UNL     1      21.384   4.295  51.878  1.00  0.00    -0.121 C 
HETATM   17  C1  UNL     1      20.165   3.793  51.692  1.00  0.00     0.099 C 
ENDBRANCH  15  16
ENDBRANCH  14  15
ENDBRANCH  12  13
BRANCH  12  18
HETATM   18  C5  UNL     1      23.757  -0.165  53.295  1.00  0.00     0.038 C 
BRANCH  18  19
HETATM   19  C6  UNL     1      22.403   0.171  52.783  1.00  0.00    -0.012 C 
HETATM   20  C7  UNL     1      21.134  -0.090  52.899  1.00  0.00    -0.019 C 
HETATM   21  C8  UNL     1      19.694   0.001  52.630  1.00  0.00     0.056 C 
HETATM   22 BR1  UNL     1      21.258  -1.453  54.268  1.00  0.00    -0.057 Br
ENDBRANCH  18  19
ENDBRANCH  12  18
ENDBRANCH   1  12
TORSDOF 6
ENDMDL
MODEL 2
REMARK VINA RESULT:      -7.4      4.044      6.864
REMARK  6 active torsions:
REMARK  status: ('A' for Active; 'I' for Inactive)
REMARK    1  A    between atoms: C2_2  and  P1_3 
REMARK    2  A    between atoms: P1_3  and  N1_4 
REMARK    3  A    between atoms: C3_5  and  C4_6 
REMARK    4  A    between atoms: C4_6  and  C5_7 
REMARK    5  A    between atoms: C4_6  and  C9_12 
REMARK    6  A    between atoms: C5_7  and  C6_8 
ROOT
HETATM    1  C9  UNL     1      24.170   0.933  52.182  1.00  0.00     0.023 C 
HETATM    2  C10 UNL     1      24.269   0.048  53.369  1.00  0.00     0.034 C 
HETATM    3  C11 UNL     1      23.591  -0.752  54.253  1.00  0.00     0.001 C 
HETATM    4  C12 UNL     1      22.351  -1.400  54.806  1.00  0.00    -0.009 C 
HETATM    5  C13 UNL     1      21.098  -1.261  54.316  1.00  0.00     0.087 C 
HETATM    6  N2  UNL     1      20.854  -0.455  53.166  1.00  0.00    -0.334 N 
HETATM    7  C14 UNL     1      20.600   0.368  51.992  1.00  0.00     0.244 C 
HETATM    8  O1  UNL     1      19.435  -0.052  52.125  1.00  0.00    -0.268 OA
HETATM    9  C15 UNL     1      21.592   1.205  51.218  1.00  0.00     0.071 C 
HETATM   10  C16 UNL     1      22.869   1.176  51.566  1.00  0.00    -0.015 C 
HETATM   11  H16 UNL     1      21.596   0.192  53.210  1.00  0.00     0.168 HD
ENDROOT
BRANCH   1  12
HETATM   12  C4  UNL     1      24.782   2.306  52.528  1.00  0.00     0.038 C 
BRANCH  12  13
HETATM   13  C3  UNL     1      26.206   2.141  52.853  1.00  0.00     0.095 C 
HETATM   14  N1  UNL     1      26.939   2.226  53.882  1.00  0.00    -0.257 NA
BRANCH  14  15
HETATM   15  P1  UNL     1      28.698   1.939  53.855  1.00  0.00     0.138 P 
BRANCH  15  16
HETATM   16  C2  UNL     1      29.157   0.342  53.657  1.00  0.00    -0.121 C 
HETATM   17  C1  UNL     1      29.657  -0.892  53.682  1.00  0.00     0.099 C 
ENDBRANCH  15  16
ENDBRANCH  14  15
ENDBRANCH  12  13
BRANCH  12  18
HETATM   18  C5  UNL     1      24.514   3.269  51.422  1.00  0.00     0.038 C 
BRANCH  18  19
HETATM   19  C6  UNL     1      25.699   3.373  50.531  1.00  0.00    -0.012 C 
HETATM   20  C7  UNL     1      26.356   4.161  49.732  1.00  0.00    -0.019 C 
HETATM   21  C8  UNL     1      27.407   4.590  48.801  1.00  0.00     0.056 C 
HETATM   22 BR1  UNL     1      25.200   5.708  49.861  1.00  0.00    -0.057 Br
ENDBRANCH  18  19
ENDBRANCH  12  18
ENDBRANCH   1  12
TORSDOF 6
ENDMDL
MODEL 3
REMARK VINA RESULT:      -7.2      3.386      6.306
REMARK  6 active torsions:
REMARK  status: ('A' for Active; 'I' for Inactive)
REMARK    1  A    between atoms: C2_2  and  P1_3 
REMARK    2  A    between atoms: P1_3  and  N1_4 
REMARK    3  A    between atoms: C3_5  and  C4_6 
REMARK    4  A    between atoms: C4_6  and  C5_7 
REMARK    5  A    between atoms: C4_6  and  C9_12 
REMARK    6  A    between atoms: C5_7  and  C6_8 
ROOT
HETATM    1  C9  UNL     1      23.496   1.494  52.775  1.00  0.00     0.023 C 
HETATM    2  C10 UNL     1      22.186   1.900  52.209  1.00  0.00     0.034 C 
HETATM    3  C11 UNL     1      20.849   1.610  52.109  1.00  0.00     0.001 C 
HETATM    4  C12 UNL     1      19.625   0.784  52.396  1.00  0.00    -0.009 C 
HETATM    5  C13 UNL     1      19.583  -0.337  53.150  1.00  0.00     0.087 C 
HETATM    6  N2  UNL     1      20.764  -0.836  53.775  1.00  0.00    -0.334 N 
HETATM    7  C14 UNL     1      21.968  -1.348  54.414  1.00  0.00     0.244 C 
HETATM    8  O1  UNL     1      21.181  -2.181  54.905  1.00  0.00    -0.268 OA
HETATM    9  C15 UNL     1      23.375  -0.811  54.300  1.00  0.00     0.071 C 
HETATM   10  C16 UNL     1      23.589   0.292  53.599  1.00  0.00    -0.015 C 
HETATM   11  H16 UNL     1      21.470  -0.497  53.176  1.00  0.00     0.168 HD
ENDROOT
BRANCH   1  12
HETATM   12  C4  UNL     1      24.516   1.349  51.628  1.00  0.00     0.038 C 
BRANCH  12  13
HETATM   13  C3  UNL     1      24.833   2.675  51.081  1.00  0.00     0.095 C 
HETATM   14  N1  UNL     1      24.833   3.237  49.946  1.00  0.00    -0.257 NA
BRANCH  14  15
HETATM   15  P1  UNL     1      25.306   4.936  49.695  1.00  0.00     0.138 P 
BRANCH  15  16
HETATM   16  C2  UNL     1      26.782   5.160  48.938  1.00  0.00    -0.121 C 
HETATM   17  C1  UNL     1      28.029   5.165  48.470  1.00  0.00     0.099 C 
ENDBRANCH  15  16
ENDBRANCH  14  15
ENDBRANCH  12  13
BRANCH  12  18
HETATM   18  C5  UNL     1      25.704   0.583  52.104  1.00  0.00     0.038 C 
BRANCH  18  19
HETATM   19  C6  UNL     1      26.831   1.508  52.389  1.00  0.00    -0.012 C 
HETATM   20  C7  UNL     1      27.806   1.765  53.211  1.00  0.00    -0.019 C 
HETATM   21  C8  UNL     1      28.967   2.467  53.770  1.00  0.00     0.056 C 
HETATM   22 BR1  UNL     1      27.499   0.320  54.462  1.00  0.00    -0.057 Br
ENDBRANCH  18  19
ENDBRANCH  12  18
ENDBRANCH   1  12
TORSDOF 6
ENDMDL
MODEL 4
REMARK VINA RESULT:      -7.2      3.735      6.517
REMARK  6 active torsions:
REMARK  status: ('A' for Active; 'I' for Inactive)
REMARK    1  A    between atoms: C2_2  and  P1_3 
REMARK    2  A    between atoms: P1_3  and  N1_4 
REMARK    3  A    between atoms: C3_5  and  C4_6 
REMARK    4  A    between atoms: C4_6  and  C5_7 
REMARK    5  A    between atoms: C4_6  and  C9_12 
REMARK    6  A    between atoms: C5_7  and  C6_8 
ROOT
HETATM    1  C9  UNL     1      24.656   1.776  53.086  1.00  0.00     0.023 C 
HETATM    2  C10 UNL     1      24.050   3.081  52.723  1.00  0.00     0.034 C 
HETATM    3  C11 UNL     1      22.893   3.759  52.435  1.00  0.00     0.001 C 
HETATM    4  C12 UNL     1      21.405   3.861  52.234  1.00  0.00    -0.009 C 
HETATM    5  C13 UNL     1      20.518   2.848  52.357  1.00  0.00     0.087 C 
HETATM    6  N2  UNL     1      20.954   1.540  52.720  1.00  0.00    -0.334 N 
HETATM    7  C14 UNL     1      21.397   0.204  53.090  1.00  0.00     0.244 C 
HETATM    8  O1  UNL     1      20.176  -0.047  53.085  1.00  0.00    -0.268 OA
HETATM    9  C15 UNL     1      22.813  -0.274  53.313  1.00  0.00     0.071 C 
HETATM   10  C16 UNL     1      23.805   0.599  53.236  1.00  0.00    -0.015 C 
HETATM   11  H16 UNL     1      21.883   1.537  52.390  1.00  0.00     0.168 HD
ENDROOT
BRANCH   1  12
HETATM   12  C4  UNL     1      25.751   1.429  52.057  1.00  0.00     0.038 C 
BRANCH  12  13
HETATM   13  C3  UNL     1      25.867   2.516  51.076  1.00  0.00     0.095 C 
HETATM   14  N1  UNL     1      26.797   3.132  50.477  1.00  0.00    -0.257 NA
BRANCH  14  15
HETATM   15  P1  UNL     1      26.506   4.447  49.311  1.00  0.00     0.138 P 
BRANCH  15  16
HETATM   16  C2  UNL     1      27.878   5.062  48.574  1.00  0.00    -0.121 C 
HETATM   17  C1  UNL     1      29.041   5.593  48.203  1.00  0.00     0.099 C 
ENDBRANCH  15  16
ENDBRANCH  14  15
ENDBRANCH  12  13
BRANCH  12  18
HETATM   18  C5  UNL     1      27.023   1.105  52.767  1.00  0.00     0.038 C 
BRANCH  18  19
HETATM   19  C6  UNL     1      27.287  -0.356  52.706  1.00  0.00    -0.012 C 
HETATM   20  C7  UNL     1      28.148  -1.288  52.994  1.00  0.00    -0.019 C 
HETATM   21  C8  UNL     1      28.712  -2.639  53.088  1.00  0.00     0.056 C 
HETATM   22 BR1  UNL     1      29.531  -0.161  53.746  1.00  0.00    -0.057 Br
ENDBRANCH  18  19
ENDBRANCH  12  18
ENDBRANCH   1  12
TORSDOF 6
ENDMDL
MODEL 5
REMARK VINA RESULT:      -7.0      4.000      7.363
REMARK  6 active torsions:
REMARK  status: ('A' for Active; 'I' for Inactive)
REMARK    1  A    between atoms: C2_2  and  P1_3 
REMARK    2  A    between atoms: P1_3  and  N1_4 
REMARK    3  A    between atoms: C3_5  and  C4_6 
REMARK    4  A    between atoms: C4_6  and  C5_7 
REMARK    5  A    between atoms: C4_6  and  C9_12 
REMARK    6  A    between atoms: C5_7  and  C6_8 
ROOT
HETATM    1  C9  UNL     1      24.175   2.765  52.994  1.00  0.00     0.023 C 
HETATM    2  C10 UNL     1      23.514   3.998  52.501  1.00  0.00     0.034 C 
HETATM    3  C11 UNL     1      22.361   4.553  52.005  1.00  0.00     0.001 C 
HETATM    4  C12 UNL     1      20.926   4.502  51.555  1.00  0.00    -0.009 C 
HETATM    5  C13 UNL     1      20.135   3.406  51.554  1.00  0.00     0.087 C 
HETATM    6  N2  UNL     1      20.629   2.153  52.020  1.00  0.00    -0.334 N 
HETATM    7  C14 UNL     1      21.131   0.871  52.494  1.00  0.00     0.244 C 
HETATM    8  O1  UNL     1      19.960   0.498  52.291  1.00  0.00    -0.268 OA
HETATM    9  C15 UNL     1      22.529   0.541  52.963  1.00  0.00     0.071 C 
HETATM   10  C16 UNL     1      23.430   1.509  53.031  1.00  0.00    -0.015 C 
HETATM   11  H16 UNL     1      21.597   2.240  51.850  1.00  0.00     0.168 HD
ENDROOT
BRANCH   1  12
HETATM   12  C4  UNL     1      25.457   2.519  52.173  1.00  0.00     0.038 C 
BRANCH  12  13
HETATM   13  C3  UNL     1      26.027   1.213  52.531  1.00  0.00     0.095 C 
HETATM   14  N1  UNL     1      26.616   0.262  51.937  1.00  0.00    -0.257 NA
BRANCH  14  15
HETATM   15  P1  UNL     1      27.173  -1.213  52.766  1.00  0.00     0.138 P 
BRANCH  15  16
HETATM   16  C2  UNL     1      28.731  -1.145  53.372  1.00  0.00    -0.121 C 
HETATM   17  C1  UNL     1      30.018  -0.966  53.666  1.00  0.00     0.099 C 
ENDBRANCH  15  16
ENDBRANCH  14  15
ENDBRANCH  12  13
BRANCH  12  18
HETATM   18  C5  UNL     1      25.163   2.683  50.721  1.00  0.00     0.038 C 
BRANCH  18  19
HETATM   19  C6  UNL     1      26.360   3.204  50.010  1.00  0.00    -0.012 C 
HETATM   20  C7  UNL     1      26.829   4.201  49.319  1.00  0.00    -0.019 C 
HETATM   21  C8  UNL     1      27.800   4.990  48.552  1.00  0.00     0.056 C 
HETATM   22 BR1  UNL     1      25.231   5.293  49.293  1.00  0.00    -0.057 Br
ENDBRANCH  18  19
ENDBRANCH  12  18
ENDBRANCH   1  12
TORSDOF 6
ENDMDL
MODEL 6
REMARK VINA RESULT:      -7.0      2.960      3.735
REMARK  6 active torsions:
REMARK  status: ('A' for Active; 'I' for Inactive)
REMARK    1  A    between atoms: C2_2  and  P1_3 
REMARK    2  A    between atoms: P1_3  and  N1_4 
REMARK    3  A    between atoms: C3_5  and  C4_6 
REMARK    4  A    between atoms: C4_6  and  C5_7 
REMARK    5  A    between atoms: C4_6  and  C9_12 
REMARK    6  A    between atoms: C5_7  and  C6_8 
ROOT
HETATM    1  C9  UNL     1      24.822   1.904  51.931  1.00  0.00     0.023 C 
HETATM    2  C10 UNL     1      26.270   2.192  52.081  1.00  0.00     0.034 C 
HETATM    3  C11 UNL     1      27.428   1.893  52.753  1.00  0.00     0.001 C 
HETATM    4  C12 UNL     1      28.234   1.150  53.784  1.00  0.00    -0.009 C 
HETATM    5  C13 UNL     1      27.764   0.203  54.626  1.00  0.00     0.087 C 
HETATM    6  N2  UNL     1      26.394  -0.191  54.583  1.00  0.00    -0.334 N 
HETATM    7  C14 UNL     1      24.996  -0.596  54.543  1.00  0.00     0.244 C 
HETATM    8  O1  UNL     1      25.358  -1.423  55.401  1.00  0.00    -0.268 OA
HETATM    9  C15 UNL     1      23.893  -0.028  53.680  1.00  0.00     0.071 C 
HETATM   10  C16 UNL     1      24.189   0.909  52.792  1.00  0.00    -0.015 C 
HETATM   11  H16 UNL     1      25.959   0.621  54.232  1.00  0.00     0.168 HD
ENDROOT
BRANCH   1  12
HETATM   12  C4  UNL     1      24.031   3.219  52.083  1.00  0.00     0.038 C 
BRANCH  12  13
HETATM   13  C3  UNL     1      24.599   4.241  51.193  1.00  0.00     0.095 C 
HETATM   14  N1  UNL     1      24.413   5.469  50.950  1.00  0.00    -0.257 NA
BRANCH  14  15
HETATM   15  P1  UNL     1      25.353   6.381  49.743  1.00  0.00     0.138 P 
BRANCH  15  16
HETATM   16  C2  UNL     1      26.590   5.526  49.008  1.00  0.00    -0.121 C 
HETATM   17  C1  UNL     1      27.645   4.804  48.639  1.00  0.00     0.099 C 
ENDBRANCH  15  16
ENDBRANCH  14  15
ENDBRANCH  12  13
BRANCH  12  18
HETATM   18  C5  UNL     1      22.578   2.959  51.870  1.00  0.00     0.038 C 
BRANCH  18  19
HETATM   19  C6  UNL     1      22.298   2.770  50.423  1.00  0.00    -0.012 C 
HETATM   20  C7  UNL     1      21.757   1.977  49.545  1.00  0.00    -0.019 C 
HETATM   21  C8  UNL     1      21.331   1.490  48.227  1.00  0.00     0.056 C 
HETATM   22 BR1  UNL     1      21.183   0.579  50.755  1.00  0.00    -0.057 Br
ENDBRANCH  18  19
ENDBRANCH  12  18
ENDBRANCH   1  12
TORSDOF 6
ENDMDL
MODEL 7
REMARK VINA RESULT:      -7.0      4.108      5.855
REMARK  6 active torsions:
REMARK  status: ('A' for Active; 'I' for Inactive)
REMARK    1  A    between atoms: C2_2  and  P1_3 
REMARK    2  A    between atoms: P1_3  and  N1_4 
REMARK    3  A    between atoms: C3_5  and  C4_6 
REMARK    4  A    between atoms: C4_6  and  C5_7 
REMARK    5  A    between atoms: C4_6  and  C9_12 
REMARK    6  A    between atoms: C5_7  and  C6_8 
ROOT
HETATM    1  C9  UNL     1      24.925   2.747  51.488  1.00  0.00     0.023 C 
HETATM    2  C10 UNL     1      23.575   2.447  52.024  1.00  0.00     0.034 C 
HETATM    3  C11 UNL     1      22.798   1.558  52.722  1.00  0.00     0.001 C 
HETATM    4  C12 UNL     1      22.563   0.279  53.480  1.00  0.00    -0.009 C 
HETATM    5  C13 UNL     1      23.490  -0.669  53.741  1.00  0.00     0.087 C 
HETATM    6  N2  UNL     1      24.838  -0.507  53.303  1.00  0.00    -0.334 N 
HETATM    7  C14 UNL     1      26.214  -0.345  52.857  1.00  0.00     0.244 C 
HETATM    8  O1  UNL     1      26.391  -1.409  53.481  1.00  0.00    -0.268 OA
HETATM    9  C15 UNL     1      26.792   0.778  52.028  1.00  0.00     0.071 C 
HETATM   10  C16 UNL     1      26.014   1.795  51.691  1.00  0.00    -0.015 C 
HETATM   11  H16 UNL     1      24.727   0.076  52.516  1.00  0.00     0.168 HD
ENDROOT
BRANCH   1  12
HETATM   12  C4  UNL     1      24.816   3.009  49.972  1.00  0.00     0.038 C 
BRANCH  12  13
HETATM   13  C3  UNL     1      23.446   2.728  49.521  1.00  0.00     0.095 C 
HETATM   14  N1  UNL     1      22.809   2.729  48.427  1.00  0.00    -0.257 NA
BRANCH  14  15
HETATM   15  P1  UNL     1      21.083   2.309  48.300  1.00  0.00     0.138 P 
BRANCH  15  16
HETATM   16  C2  UNL     1      20.428   1.567  49.650  1.00  0.00    -0.121 C 
HETATM   17  C1  UNL     1      19.811   0.832  50.573  1.00  0.00     0.099 C 
ENDBRANCH  15  16
ENDBRANCH  14  15
ENDBRANCH  12  13
BRANCH  12  18
HETATM   18  C5  UNL     1      25.291   4.389  49.665  1.00  0.00     0.038 C 
BRANCH  18  19
HETATM   19  C6  UNL     1      26.703   4.355  49.202  1.00  0.00    -0.012 C 
HETATM   20  C7  UNL     1      27.657   5.058  48.666  1.00  0.00    -0.019 C 
HETATM   21  C8  UNL     1      28.988   5.361  48.126  1.00  0.00     0.056 C 
HETATM   22 BR1  UNL     1      26.685   6.717  48.444  1.00  0.00    -0.057 Br
ENDBRANCH  18  19
ENDBRANCH  12  18
ENDBRANCH   1  12
TORSDOF 6
ENDMDL
MODEL 8
REMARK VINA RESULT:      -6.8      4.376      6.629
REMARK  6 active torsions:
REMARK  status: ('A' for Active; 'I' for Inactive)
REMARK    1  A    between atoms: C2_2  and  P1_3 
REMARK    2  A    between atoms: P1_3  and  N1_4 
REMARK    3  A    between atoms: C3_5  and  C4_6 
REMARK    4  A    between atoms: C4_6  and  C5_7 
REMARK    5  A    between atoms: C4_6  and  C9_12 
REMARK    6  A    between atoms: C5_7  and  C6_8 
ROOT
HETATM    1  C9  UNL     1      25.077   3.724  50.325  1.00  0.00     0.023 C 
HETATM    2  C10 UNL     1      24.385   4.945  50.808  1.00  0.00     0.034 C 
HETATM    3  C11 UNL     1      24.392   6.316  50.855  1.00  0.00     0.001 C 
HETATM    4  C12 UNL     1      24.967   7.671  50.545  1.00  0.00    -0.009 C 
HETATM    5  C13 UNL     1      26.095   7.912  49.839  1.00  0.00     0.087 C 
HETATM    6  N2  UNL     1      26.854   6.835  49.295  1.00  0.00    -0.334 N 
HETATM    7  C14 UNL     1      27.633   5.737  48.740  1.00  0.00     0.244 C 
HETATM    8  O1  UNL     1      28.314   6.657  48.248  1.00  0.00    -0.268 OA
HETATM    9  C15 UNL     1      27.387   4.255  48.899  1.00  0.00     0.071 C 
HETATM   10  C16 UNL     1      26.315   3.848  49.561  1.00  0.00    -0.015 C 
HETATM   11  H16 UNL     1      26.634   6.098  49.913  1.00  0.00     0.168 HD
ENDROOT
BRANCH   1  12
HETATM   12  C4  UNL     1      25.364   2.802  51.527  1.00  0.00     0.038 C 
BRANCH  12  13
HETATM   13  C3  UNL     1      24.151   2.045  51.868  1.00  0.00     0.095 C 
HETATM   14  N1  UNL     1      23.463   1.811  52.904  1.00  0.00    -0.257 NA
BRANCH  14  15
HETATM   15  P1  UNL     1      21.997   0.798  52.896  1.00  0.00     0.138 P 
BRANCH  15  16
HETATM   16  C2  UNL     1      21.959  -0.410  54.054  1.00  0.00    -0.121 C 
HETATM   17  C1  UNL     1      22.086  -1.476  54.842  1.00  0.00     0.099 C 
ENDBRANCH  15  16
ENDBRANCH  14  15
ENDBRANCH  12  13
BRANCH  12  18
HETATM   18  C5  UNL     1      26.555   1.952  51.236  1.00  0.00     0.038 C 
BRANCH  18  19
HETATM   19  C6  UNL     1      27.332   1.712  52.480  1.00  0.00    -0.012 C 
HETATM   20  C7  UNL     1      27.704   0.807  53.336  1.00  0.00    -0.019 C 
HETATM   21  C8  UNL     1      28.366   0.237  54.516  1.00  0.00     0.056 C 
HETATM   22 BR1  UNL     1      26.799  -0.710  52.543  1.00  0.00    -0.057 Br
ENDBRANCH  18  19
ENDBRANCH  12  18
ENDBRANCH   1  12
TORSDOF 6
ENDMDL
MODEL 9
REMARK VINA RESULT:      -6.8      9.082     11.774
REMARK  6 active torsions:
REMARK  status: ('A' for Active; 'I' for Inactive)
REMARK    1  A    between atoms: C2_2  and  P1_3 
REMARK    2  A    between atoms: P1_3  and  N1_4 
REMARK    3  A    between atoms: C3_5  and  C4_6 
REMARK    4  A    between atoms: C4_6  and  C5_7 
REMARK    5  A    between atoms: C4_6  and  C9_12 
REMARK    6  A    between atoms: C5_7  and  C6_8 
ROOT
HETATM    1  C9  UNL     1      29.910   6.824  48.246  1.00  0.00     0.023 C 
HETATM    2  C10 UNL     1      28.939   5.701  48.237  1.00  0.00     0.034 C 
HETATM    3  C11 UNL     1      27.679   5.282  48.581  1.00  0.00     0.001 C 
HETATM    4  C12 UNL     1      26.311   5.475  49.178  1.00  0.00    -0.009 C 
HETATM    5  C13 UNL     1      25.846   6.610  49.745  1.00  0.00     0.087 C 
HETATM    6  N2  UNL     1      26.662   7.777  49.807  1.00  0.00    -0.334 N 
HETATM    7  C14 UNL     1      27.493   8.971  49.873  1.00  0.00     0.244 C 
HETATM    8  O1  UNL     1      26.467   9.486  50.356  1.00  0.00    -0.268 OA
HETATM    9  C15 UNL     1      28.929   9.125  49.427  1.00  0.00     0.071 C 
HETATM   10  C16 UNL     1      29.534   8.103  48.842  1.00  0.00    -0.015 C 
HETATM   11  H16 UNL     1      27.570   7.392  49.806  1.00  0.00     0.168 HD
ENDROOT
BRANCH   1  12
HETATM   12  C4  UNL     1      31.210   6.357  48.932  1.00  0.00     0.038 C 
BRANCH  12  13
HETATM   13  C3  UNL     1      31.872   5.347  48.096  1.00  0.00     0.095 C 
HETATM   14  N1  UNL     1      32.289   4.159  48.229  1.00  0.00    -0.257 NA
BRANCH  14  15
HETATM   15  P1  UNL     1      33.070   3.243  46.915  1.00  0.00     0.138 P 
BRANCH  15  16
HETATM   16  C2  UNL     1      32.552   1.660  46.744  1.00  0.00    -0.121 C 
HETATM   17  C1  UNL     1      31.958   0.469  46.733  1.00  0.00     0.099 C 
ENDBRANCH  15  16
ENDBRANCH  14  15
ENDBRANCH  12  13
BRANCH  12  18
HETATM   18  C5  UNL     1      32.061   7.539  49.254  1.00  0.00     0.038 C 
BRANCH  18  19
HETATM   19  C6  UNL     1      33.169   7.658  48.271  1.00  0.00    -0.012 C 
HETATM   20  C7  UNL     1      33.701   8.424  47.365  1.00  0.00    -0.019 C 
HETATM   21  C8  UNL     1      34.645   8.853  46.327  1.00  0.00     0.056 C 
HETATM   22 BR1  UNL     1      32.434   9.885  47.462  1.00  0.00    -0.057 Br
ENDBRANCH  18  19
ENDBRANCH  12  18
ENDBRANCH   1  12
TORSDOF 6
ENDMDL
