MODEL 1
REMARK VINA RESULT:      -8.0      0.000      0.000
REMARK  5 active torsions:
REMARK  status: ('A' for Active; 'I' for Inactive)
REMARK    1  A    between atoms: N1_1  and  C1_2 
REMARK    2  A    between atoms: N2_5  and  C4_6 
REMARK    3  A    between atoms: C4_6  and  C5_7 
REMARK    4  A    between atoms: C8_12  and  N5_13 
REMARK    5  A    between atoms: N5_13  and  C9_14 
ROOT
HETATM    1  C5  UNL     1      22.504   1.952  51.828  1.00  0.00     0.099 A 
HETATM    2  C6  UNL     1      21.253   1.174  51.842  1.00  0.00     0.006 A 
HETATM    3  C7  UNL     1      21.447   0.035  52.534  1.00  0.00     0.118 A 
HETATM    4  N3  UNL     1      22.776  -0.063  53.029  1.00  0.00    -0.214 N 
HETATM    5  N4  UNL     1      23.605  -0.817  53.720  1.00  0.00     0.027 NA
HETATM    6  C8  UNL     1      24.821  -0.215  53.794  1.00  0.00     0.746 A 
HETATM    7  N6  UNL     1      24.643   0.924  53.108  1.00  0.00    -0.045 NA
HETATM    8  C15 UNL     1      23.399   1.042  52.628  1.00  0.00     0.156 A 
ENDROOT
BRANCH   1   9
HETATM    9  C4  UNL     1      23.157   2.118  50.499  1.00  0.00     0.133 C 
BRANCH   9  10
HETATM   10  N2  UNL     1      23.651   3.402  50.174  1.00  0.00    -0.411 N 
HETATM   11  C3  UNL     1      25.005   3.456  49.833  1.00  0.00     0.119 C 
HETATM   12  C2  UNL     1      25.728   4.747  49.996  1.00  0.00     0.055 C 
HETATM   13  C1  UNL     1      24.834   5.914  50.278  1.00  0.00     0.221 C 
HETATM   14  C17 UNL     1      23.922   5.508  51.430  1.00  0.00     0.055 C 
HETATM   15  C16 UNL     1      23.016   4.440  50.871  1.00  0.00     0.119 C 
BRANCH  13  16
HETATM   16  N1  UNL     1      25.661   7.012  50.789  1.00  0.00     0.083 N 
HETATM   17  H1  UNL     1      25.468   7.859  50.226  1.00  0.00     0.313 HD
HETATM   18  H2  UNL     1      25.472   7.124  51.804  1.00  0.00     0.313 HD
ENDBRANCH  13  16
ENDBRANCH   9  10
ENDBRANCH   1   9
BRANCH   6  19
HETATM   19  N5  UNL     1      25.952  -0.747  54.467  1.00  0.00    -0.187 N 
HETATM   20  H13 UNL     1      25.768  -1.391  55.273  1.00  0.00     0.184 HD
BRANCH  19  21
HETATM   21  C9  UNL     1      27.304  -0.477  54.134  1.00  0.00     0.052 A 
HETATM   22  C10 UNL     1      28.157  -1.317  53.456  1.00  0.00     0.030 A 
HETATM   23  C11 UNL     1      29.479  -0.956  53.172  1.00  0.00     0.005 A 
HETATM   24  C12 UNL     1      29.967   0.265  53.569  1.00  0.00     0.042 A 
HETATM   25  C13 UNL     1      29.137   1.128  54.251  1.00  0.00     0.118 A 
HETATM   26  F1  UNL     1      29.625   2.330  54.639  1.00  0.00    -0.206 F 
HETATM   27  C14 UNL     1      27.849   0.731  54.507  1.00  0.00     0.072 A 
ENDBRANCH  19  21
ENDBRANCH   6  19
TORSDOF 5
ENDMDL
MODEL 2
REMARK VINA RESULT:      -7.9      1.407      1.715
REMARK  5 active torsions:
REMARK  status: ('A' for Active; 'I' for Inactive)
REMARK    1  A    between atoms: N1_1  and  C1_2 
REMARK    2  A    between atoms: N2_5  and  C4_6 
REMARK    3  A    between atoms: C4_6  and  C5_7 
REMARK    4  A    between atoms: C8_12  and  N5_13 
REMARK    5  A    between atoms: N5_13  and  C9_14 
ROOT
HETATM    1  C5  UNL     1      22.524   2.239  51.578  1.00  0.00     0.099 A 
HETATM    2  C6  UNL     1      21.601   1.097  51.698  1.00  0.00     0.006 A 
HETATM    3  C7  UNL     1      22.145   0.169  52.508  1.00  0.00     0.118 A 
HETATM    4  N3  UNL     1      23.420   0.571  52.989  1.00  0.00    -0.214 N 
HETATM    5  N4  UNL     1      24.438   0.214  53.746  1.00  0.00     0.027 NA
HETATM    6  C8  UNL     1      25.384   1.188  53.734  1.00  0.00     0.746 A 
HETATM    7  N6  UNL     1      24.855   2.123  52.929  1.00  0.00    -0.045 NA
HETATM    8  C15 UNL     1      23.653   1.770  52.459  1.00  0.00     0.156 A 
ENDROOT
BRANCH   1   9
HETATM    9  C4  UNL     1      23.114   2.465  50.229  1.00  0.00     0.133 C 
BRANCH   9  10
HETATM   10  N2  UNL     1      23.675   3.737  49.970  1.00  0.00    -0.411 N 
HETATM   11  C3  UNL     1      25.020   3.735  49.595  1.00  0.00     0.119 C 
HETATM   12  C2  UNL     1      25.822   4.971  49.816  1.00  0.00     0.055 C 
HETATM   13  C1  UNL     1      25.004   6.166  50.196  1.00  0.00     0.221 C 
HETATM   14  C17 UNL     1      24.099   5.741  51.346  1.00  0.00     0.055 C 
HETATM   15  C16 UNL     1      23.119   4.763  50.748  1.00  0.00     0.119 C 
BRANCH  13  16
HETATM   16  N1  UNL     1      25.907   7.181  50.749  1.00  0.00     0.083 N 
HETATM   17  H1  UNL     1      25.481   8.113  50.605  1.00  0.00     0.313 HD
HETATM   18  H2  UNL     1      26.095   6.949  51.744  1.00  0.00     0.313 HD
ENDBRANCH  13  16
ENDBRANCH   9  10
ENDBRANCH   1   9
BRANCH   6  19
HETATM   19  N5  UNL     1      26.612   1.137  54.443  1.00  0.00    -0.187 N 
HETATM   20  H13 UNL     1      26.680   1.706  55.321  1.00  0.00     0.184 HD
BRANCH  19  21
HETATM   21  C9  UNL     1      27.748   0.379  54.060  1.00  0.00     0.052 A 
HETATM   22  C10 UNL     1      29.056   0.803  54.091  1.00  0.00     0.030 A 
HETATM   23  C11 UNL     1      30.112  -0.026  53.694  1.00  0.00     0.005 A 
HETATM   24  C12 UNL     1      29.866  -1.304  53.255  1.00  0.00     0.042 A 
HETATM   25  C13 UNL     1      28.565  -1.758  53.211  1.00  0.00     0.118 A 
HETATM   26  F1  UNL     1      28.330  -3.018  52.778  1.00  0.00    -0.206 F 
HETATM   27  C14 UNL     1      27.563  -0.909  53.611  1.00  0.00     0.072 A 
ENDBRANCH  19  21
ENDBRANCH   6  19
TORSDOF 5
ENDMDL
MODEL 3
REMARK VINA RESULT:      -7.8      2.760      6.820
REMARK  5 active torsions:
REMARK  status: ('A' for Active; 'I' for Inactive)
REMARK    1  A    between atoms: N1_1  and  C1_2 
REMARK    2  A    between atoms: N2_5  and  C4_6 
REMARK    3  A    between atoms: C4_6  and  C5_7 
REMARK    4  A    between atoms: C8_12  and  N5_13 
REMARK    5  A    between atoms: N5_13  and  C9_14 
ROOT
HETATM    1  C5  UNL     1      25.391   1.211  53.733  1.00  0.00     0.099 A 
HETATM    2  C6  UNL     1      26.768   0.895  54.150  1.00  0.00     0.006 A 
HETATM    3  C7  UNL     1      27.632   1.425  53.264  1.00  0.00     0.118 A 
HETATM    4  N3  UNL     1      26.961   2.115  52.218  1.00  0.00    -0.214 N 
HETATM    5  N4  UNL     1      27.134   2.810  51.113  1.00  0.00     0.027 NA
HETATM    6  C8  UNL     1      25.928   3.179  50.607  1.00  0.00     0.746 A 
HETATM    7  N6  UNL     1      25.055   2.657  51.482  1.00  0.00    -0.045 NA
HETATM    8  C15 UNL     1      25.660   1.999  52.478  1.00  0.00     0.156 A 
ENDROOT
BRANCH   1   9
HETATM    9  C4  UNL     1      24.548   0.052  53.325  1.00  0.00     0.133 C 
BRANCH   9  10
HETATM   10  N2  UNL     1      23.197   0.052  53.743  1.00  0.00    -0.411 N 
HETATM   11  C3  UNL     1      22.796  -1.065  54.478  1.00  0.00     0.119 C 
HETATM   12  C2  UNL     1      21.350  -1.419  54.501  1.00  0.00     0.055 C 
HETATM   13  C1  UNL     1      20.457  -0.367  53.921  1.00  0.00     0.221 C 
HETATM   14  C17 UNL     1      21.032   0.005  52.560  1.00  0.00     0.055 C 
HETATM   15  C16 UNL     1      22.335   0.707  52.851  1.00  0.00     0.119 C 
BRANCH  13  16
HETATM   16  N1  UNL     1      19.150  -0.975  53.651  1.00  0.00     0.083 N 
HETATM   17  H1  UNL     1      18.795  -1.396  54.528  1.00  0.00     0.313 HD
HETATM   18  H2  UNL     1      18.526  -0.250  53.245  1.00  0.00     0.313 HD
ENDBRANCH  13  16
ENDBRANCH   9  10
ENDBRANCH   1   9
BRANCH   6  19
HETATM   19  N5  UNL     1      25.742   3.941  49.425  1.00  0.00    -0.187 N 
HETATM   20  H13 UNL     1      24.947   3.664  48.799  1.00  0.00     0.184 HD
BRANCH  19  21
HETATM   21  C9  UNL     1      26.541   5.043  49.027  1.00  0.00     0.052 A 
HETATM   22  C10 UNL     1      26.169   6.367  49.050  1.00  0.00     0.030 A 
HETATM   23  C11 UNL     1      27.035   7.386  48.638  1.00  0.00     0.005 A 
HETATM   24  C12 UNL     1      28.300   7.086  48.192  1.00  0.00     0.042 A 
HETATM   25  C13 UNL     1      28.702   5.768  48.156  1.00  0.00     0.118 A 
HETATM   26  F1  UNL     1      29.949   5.480  47.717  1.00  0.00    -0.206 F 
HETATM   27  C14 UNL     1      27.817   4.804  48.570  1.00  0.00     0.072 A 
ENDBRANCH  19  21
ENDBRANCH   6  19
TORSDOF 5
ENDMDL
MODEL 4
REMARK VINA RESULT:      -7.7      2.801      3.308
REMARK  5 active torsions:
REMARK  status: ('A' for Active; 'I' for Inactive)
REMARK    1  A    between atoms: N1_1  and  C1_2 
REMARK    2  A    between atoms: N2_5  and  C4_6 
REMARK    3  A    between atoms: C4_6  and  C5_7 
REMARK    4  A    between atoms: C8_12  and  N5_13 
REMARK    5  A    between atoms: N5_13  and  C9_14 
ROOT
HETATM    1  C5  UNL     1      21.257   0.361  53.637  1.00  0.00     0.099 A 
HETATM    2  C6  UNL     1      21.166  -0.739  54.613  1.00  0.00     0.006 A 
HETATM    3  C7  UNL     1      22.395  -1.246  54.825  1.00  0.00     0.118 A 
HETATM    4  N3  UNL     1      23.384  -0.574  54.057  1.00  0.00    -0.214 N 
HETATM    5  N4  UNL     1      24.671  -0.527  53.777  1.00  0.00     0.027 NA
HETATM    6  C8  UNL     1      24.910   0.461  52.876  1.00  0.00     0.746 A 
HETATM    7  N6  UNL     1      23.691   0.977  52.654  1.00  0.00    -0.045 NA
HETATM    8  C15 UNL     1      22.738   0.361  53.364  1.00  0.00     0.156 A 
ENDROOT
BRANCH   1   9
HETATM    9  C4  UNL     1      20.591   0.130  52.325  1.00  0.00     0.133 C 
BRANCH   9  10
HETATM   10  N2  UNL     1      20.258   1.269  51.556  1.00  0.00    -0.411 N 
HETATM   11  C3  UNL     1      20.876   1.352  50.306  1.00  0.00     0.119 C 
HETATM   12  C2  UNL     1      21.024   2.692  49.674  1.00  0.00     0.055 C 
HETATM   13  C1  UNL     1      20.254   3.777  50.360  1.00  0.00     0.221 C 
HETATM   14  C17 UNL     1      20.596   3.696  51.843  1.00  0.00     0.055 C 
HETATM   15  C16 UNL     1      19.983   2.407  52.329  1.00  0.00     0.119 C 
BRANCH  13  16
HETATM   16  N1  UNL     1      20.774   5.068  49.898  1.00  0.00     0.083 N 
HETATM   17  H1  UNL     1      21.492   5.393  50.570  1.00  0.00     0.313 HD
HETATM   18  H2  UNL     1      21.121   4.956  48.926  1.00  0.00     0.313 HD
ENDBRANCH  13  16
ENDBRANCH   9  10
ENDBRANCH   1   9
BRANCH   6  19
HETATM   19  N5  UNL     1      26.187   0.793  52.354  1.00  0.00    -0.187 N 
HETATM   20  H13 UNL     1      26.214   1.467  51.551  1.00  0.00     0.184 HD
BRANCH  19  21
HETATM   21  C9  UNL     1      27.423   0.290  52.833  1.00  0.00     0.052 A 
HETATM   22  C10 UNL     1      28.457   1.034  53.352  1.00  0.00     0.030 A 
HETATM   23  C11 UNL     1      29.642   0.440  53.804  1.00  0.00     0.005 A 
HETATM   24  C12 UNL     1      29.804  -0.923  53.741  1.00  0.00     0.042 A 
HETATM   25  C13 UNL     1      28.786  -1.695  53.226  1.00  0.00     0.118 A 
HETATM   26  F1  UNL     1      28.953  -3.037  53.167  1.00  0.00    -0.206 F 
HETATM   27  C14 UNL     1      27.644  -1.068  52.795  1.00  0.00     0.072 A 
ENDBRANCH  19  21
ENDBRANCH   6  19
TORSDOF 5
ENDMDL
MODEL 5
REMARK VINA RESULT:      -7.7      2.336      4.978
REMARK  5 active torsions:
REMARK  status: ('A' for Active; 'I' for Inactive)
REMARK    1  A    between atoms: N1_1  and  C1_2 
REMARK    2  A    between atoms: N2_5  and  C4_6 
REMARK    3  A    between atoms: C4_6  and  C5_7 
REMARK    4  A    between atoms: C8_12  and  N5_13 
REMARK    5  A    between atoms: N5_13  and  C9_14 
ROOT
HETATM    1  C5  UNL     1      22.325   1.726  51.018  1.00  0.00     0.099 A 
HETATM    2  C6  UNL     1      22.481   2.440  49.739  1.00  0.00     0.006 A 
HETATM    3  C7  UNL     1      23.750   2.879  49.629  1.00  0.00     0.118 A 
HETATM    4  N3  UNL     1      24.532   2.523  50.761  1.00  0.00    -0.214 N 
HETATM    5  N4  UNL     1      25.732   2.605  51.299  1.00  0.00     0.027 NA
HETATM    6  C8  UNL     1      25.739   1.976  52.503  1.00  0.00     0.746 A 
HETATM    7  N6  UNL     1      24.479   1.532  52.627  1.00  0.00    -0.045 NA
HETATM    8  C15 UNL     1      23.718   1.854  51.575  1.00  0.00     0.156 A 
ENDROOT
BRANCH   1   9
HETATM    9  C4  UNL     1      21.417   2.361  52.015  1.00  0.00     0.133 C 
BRANCH   9  10
HETATM   10  N2  UNL     1      20.526   1.514  52.715  1.00  0.00    -0.411 N 
HETATM   11  C3  UNL     1      21.126   0.573  53.555  1.00  0.00     0.119 C 
HETATM   12  C2  UNL     1      20.365  -0.659  53.900  1.00  0.00     0.055 C 
HETATM   13  C1  UNL     1      18.925  -0.618  53.494  1.00  0.00     0.221 C 
HETATM   14  C17 UNL     1      18.887  -0.198  52.029  1.00  0.00     0.055 C 
HETATM   15  C16 UNL     1      19.345   1.239  52.010  1.00  0.00     0.119 C 
BRANCH  13  16
HETATM   16  N1  UNL     1      18.400  -1.987  53.532  1.00  0.00     0.083 N 
HETATM   17  H1  UNL     1      18.085  -2.192  54.496  1.00  0.00     0.313 HD
HETATM   18  H2  UNL     1      17.654  -2.075  52.814  1.00  0.00     0.313 HD
ENDBRANCH  13  16
ENDBRANCH   9  10
ENDBRANCH   1   9
BRANCH   6  19
HETATM   19  N5  UNL     1      26.869   1.867  53.356  1.00  0.00    -0.187 N 
HETATM   20  H13 UNL     1      27.028   2.647  54.039  1.00  0.00     0.184 HD
BRANCH  19  21
HETATM   21  C9  UNL     1      27.793   0.792  53.357  1.00  0.00     0.052 A 
HETATM   22  C10 UNL     1      29.134   0.873  53.650  1.00  0.00     0.030 A 
HETATM   23  C11 UNL     1      29.966  -0.253  53.627  1.00  0.00     0.005 A 
HETATM   24  C12 UNL     1      29.456  -1.487  53.306  1.00  0.00     0.042 A 
HETATM   25  C13 UNL     1      28.116  -1.601  53.007  1.00  0.00     0.118 A 
HETATM   26  F1  UNL     1      27.621  -2.821  52.692  1.00  0.00    -0.206 F 
HETATM   27  C14 UNL     1      27.340  -0.470  53.042  1.00  0.00     0.072 A 
ENDBRANCH  19  21
ENDBRANCH   6  19
TORSDOF 5
ENDMDL
MODEL 6
REMARK VINA RESULT:      -7.6      3.250      7.129
REMARK  5 active torsions:
REMARK  status: ('A' for Active; 'I' for Inactive)
REMARK    1  A    between atoms: N1_1  and  C1_2 
REMARK    2  A    between atoms: N2_5  and  C4_6 
REMARK    3  A    between atoms: C4_6  and  C5_7 
REMARK    4  A    between atoms: C8_12  and  N5_13 
REMARK    5  A    between atoms: N5_13  and  C9_14 
ROOT
HETATM    1  C5  UNL     1      25.346   2.013  52.641  1.00  0.00     0.099 A 
HETATM    2  C6  UNL     1      24.111   2.746  52.966  1.00  0.00     0.006 A 
HETATM    3  C7  UNL     1      23.957   3.762  52.096  1.00  0.00     0.118 A 
HETATM    4  N3  UNL     1      25.015   3.811  51.149  1.00  0.00    -0.214 N 
HETATM    5  N4  UNL     1      25.486   4.465  50.106  1.00  0.00     0.027 NA
HETATM    6  C8  UNL     1      26.643   3.889  49.687  1.00  0.00     0.746 A 
HETATM    7  N6  UNL     1      26.810   2.872  50.546  1.00  0.00    -0.045 NA
HETATM    8  C15 UNL     1      25.828   2.802  51.452  1.00  0.00     0.156 A 
ENDROOT
BRANCH   1   9
HETATM    9  C4  UNL     1      26.435   2.081  53.656  1.00  0.00     0.133 C 
BRANCH   9  10
HETATM   10  N2  UNL     1      27.135   0.886  53.939  1.00  0.00    -0.411 N 
HETATM   11  C3  UNL     1      28.522   0.951  53.786  1.00  0.00     0.119 C 
HETATM   12  C2  UNL     1      29.270  -0.312  53.537  1.00  0.00     0.055 C 
HETATM   13  C1  UNL     1      28.454  -1.551  53.731  1.00  0.00     0.221 C 
HETATM   14  C17 UNL     1      27.168  -1.367  52.934  1.00  0.00     0.055 C 
HETATM   15  C16 UNL     1      26.407  -0.275  53.642  1.00  0.00     0.119 C 
BRANCH  13  16
HETATM   16  N1  UNL     1      29.161  -2.669  53.099  1.00  0.00     0.083 N 
HETATM   17  H1  UNL     1      29.115  -3.487  53.732  1.00  0.00     0.313 HD
HETATM   18  H2  UNL     1      28.748  -2.834  52.161  1.00  0.00     0.313 HD
ENDBRANCH  13  16
ENDBRANCH   9  10
ENDBRANCH   1   9
BRANCH   6  19
HETATM   19  N5  UNL     1      27.419   4.333  48.585  1.00  0.00    -0.187 N 
HETATM   20  H13 UNL     1      27.526   3.671  47.779  1.00  0.00     0.184 HD
BRANCH  19  21
HETATM   21  C9  UNL     1      28.056   5.596  48.488  1.00  0.00     0.052 A 
HETATM   22  C10 UNL     1      27.439   6.824  48.549  1.00  0.00     0.030 A 
HETATM   23  C11 UNL     1      28.160   8.020  48.447  1.00  0.00     0.005 A 
HETATM   24  C12 UNL     1      29.523   7.998  48.280  1.00  0.00     0.042 A 
HETATM   25  C13 UNL     1      30.170   6.783  48.213  1.00  0.00     0.118 A 
HETATM   26  F1  UNL     1      31.513   6.768  48.049  1.00  0.00    -0.206 F 
HETATM   27  C14 UNL     1      29.421   5.637  48.319  1.00  0.00     0.072 A 
ENDBRANCH  19  21
ENDBRANCH   6  19
TORSDOF 5
ENDMDL
MODEL 7
REMARK VINA RESULT:      -7.6      1.233      1.568
REMARK  5 active torsions:
REMARK  status: ('A' for Active; 'I' for Inactive)
REMARK    1  A    between atoms: N1_1  and  C1_2 
REMARK    2  A    between atoms: N2_5  and  C4_6 
REMARK    3  A    between atoms: C4_6  and  C5_7 
REMARK    4  A    between atoms: C8_12  and  N5_13 
REMARK    5  A    between atoms: N5_13  and  C9_14 
ROOT
HETATM    1  C5  UNL     1      22.521   2.490  51.009  1.00  0.00     0.099 A 
HETATM    2  C6  UNL     1      21.245   1.825  50.697  1.00  0.00     0.006 A 
HETATM    3  C7  UNL     1      21.206   0.628  51.315  1.00  0.00     0.118 A 
HETATM    4  N3  UNL     1      22.387   0.383  52.065  1.00  0.00    -0.214 N 
HETATM    5  N4  UNL     1      22.995  -0.487  52.847  1.00  0.00     0.027 NA
HETATM    6  C8  UNL     1      24.206   0.001  53.222  1.00  0.00     0.746 A 
HETATM    7  N6  UNL     1      24.260   1.196  52.613  1.00  0.00    -0.045 NA
HETATM    8  C15 UNL     1      23.159   1.454  51.897  1.00  0.00     0.156 A 
ENDROOT
BRANCH   1   9
HETATM    9  C4  UNL     1      23.453   2.688  49.864  1.00  0.00     0.133 C 
BRANCH   9  10
HETATM   10  N2  UNL     1      24.382   3.751  49.958  1.00  0.00    -0.411 N 
HETATM   11  C3  UNL     1      24.081   4.880  49.193  1.00  0.00     0.119 C 
HETATM   12  C2  UNL     1      25.193   5.791  48.804  1.00  0.00     0.055 C 
HETATM   13  C1  UNL     1      26.485   5.508  49.504  1.00  0.00     0.221 C 
HETATM   14  C17 UNL     1      26.758   4.016  49.351  1.00  0.00     0.055 C 
HETATM   15  C16 UNL     1      25.700   3.326  50.174  1.00  0.00     0.119 C 
BRANCH  13  16
HETATM   16  N1  UNL     1      27.560   6.189  48.776  1.00  0.00     0.083 N 
HETATM   17  H1  UNL     1      27.291   7.180  48.644  1.00  0.00     0.313 HD
HETATM   18  H2  UNL     1      28.449   6.056  49.296  1.00  0.00     0.313 HD
ENDBRANCH  13  16
ENDBRANCH   9  10
ENDBRANCH   1   9
BRANCH   6  19
HETATM   19  N5  UNL     1      25.126  -0.671  54.068  1.00  0.00    -0.187 N 
HETATM   20  H13 UNL     1      24.727  -1.220  54.867  1.00  0.00     0.184 HD
BRANCH  19  21
HETATM   21  C9  UNL     1      26.536  -0.660  53.916  1.00  0.00     0.052 A 
HETATM   22  C10 UNL     1      27.277  -1.523  53.143  1.00  0.00     0.030 A 
HETATM   23  C11 UNL     1      28.671  -1.427  53.055  1.00  0.00     0.005 A 
HETATM   24  C12 UNL     1      29.346  -0.454  53.751  1.00  0.00     0.042 A 
HETATM   25  C13 UNL     1      28.632   0.426  54.535  1.00  0.00     0.118 A 
HETATM   26  F1  UNL     1      29.303   1.383  55.217  1.00  0.00    -0.206 F 
HETATM   27  C14 UNL     1      27.266   0.293  54.589  1.00  0.00     0.072 A 
ENDBRANCH  19  21
ENDBRANCH   6  19
TORSDOF 5
ENDMDL
MODEL 8
REMARK VINA RESULT:      -7.3      2.816      7.037
REMARK  5 active torsions:
REMARK  status: ('A' for Active; 'I' for Inactive)
REMARK    1  A    between atoms: N1_1  and  C1_2 
REMARK    2  A    between atoms: N2_5  and  C4_6 
REMARK    3  A    between atoms: C4_6  and  C5_7 
REMARK    4  A    between atoms: C8_12  and  N5_13 
REMARK    5  A    between atoms: N5_13  and  C9_14 
ROOT
HETATM    1  C5  UNL     1      25.581   0.572  54.181  1.00  0.00     0.099 A 
HETATM    2  C6  UNL     1      26.882   0.008  54.580  1.00  0.00     0.006 A 
HETATM    3  C7  UNL     1      27.854   0.557  53.827  1.00  0.00     0.118 A 
HETATM    4  N3  UNL     1      27.333   1.497  52.897  1.00  0.00    -0.214 N 
HETATM    5  N4  UNL     1      27.654   2.338  51.935  1.00  0.00     0.027 NA
HETATM    6  C8  UNL     1      26.534   2.946  51.463  1.00  0.00     0.746 A 
HETATM    7  N6  UNL     1      25.555   2.407  52.206  1.00  0.00    -0.045 NA
HETATM    8  C15 UNL     1      26.016   1.516  53.091  1.00  0.00     0.156 A 
ENDROOT
BRANCH   1   9
HETATM    9  C4  UNL     1      24.621  -0.378  53.551  1.00  0.00     0.133 C 
BRANCH   9  10
HETATM   10  N2  UNL     1      23.254  -0.233  53.881  1.00  0.00    -0.411 N 
HETATM   11  C3  UNL     1      22.709  -1.266  54.648  1.00  0.00     0.119 C 
HETATM   12  C2  UNL     1      21.237  -1.489  54.596  1.00  0.00     0.055 C 
HETATM   13  C1  UNL     1      20.480  -0.397  53.906  1.00  0.00     0.221 C 
HETATM   14  C17 UNL     1      21.167  -0.156  52.567  1.00  0.00     0.055 C 
HETATM   15  C16 UNL     1      22.509   0.443  52.904  1.00  0.00     0.119 C 
BRANCH  13  16
HETATM   16  N1  UNL     1      19.141  -0.901  53.586  1.00  0.00     0.083 N 
HETATM   17  H1  UNL     1      18.660  -1.143  54.470  1.00  0.00     0.313 HD
HETATM   18  H2  UNL     1      18.647  -0.186  53.016  1.00  0.00     0.313 HD
ENDBRANCH  13  16
ENDBRANCH   9  10
ENDBRANCH   1   9
BRANCH   6  19
HETATM   19  N5  UNL     1      26.511   3.914  50.426  1.00  0.00    -0.187 N 
HETATM   20  H13 UNL     1      27.420   4.122  49.947  1.00  0.00     0.184 HD
BRANCH  19  21
HETATM   21  C9  UNL     1      25.359   4.616  49.988  1.00  0.00     0.052 A 
HETATM   22  C10 UNL     1      24.999   5.893  50.351  1.00  0.00     0.030 A 
HETATM   23  C11 UNL     1      23.840   6.504  49.858  1.00  0.00     0.005 A 
HETATM   24  C12 UNL     1      23.018   5.833  48.985  1.00  0.00     0.042 A 
HETATM   25  C13 UNL     1      23.351   4.551  48.603  1.00  0.00     0.118 A 
HETATM   26  F1  UNL     1      22.538   3.896  47.742  1.00  0.00    -0.206 F 
HETATM   27  C14 UNL     1      24.498   3.994  49.112  1.00  0.00     0.072 A 
ENDBRANCH  19  21
ENDBRANCH   6  19
TORSDOF 5
ENDMDL
MODEL 9
REMARK VINA RESULT:      -7.3      2.408      3.066
REMARK  5 active torsions:
REMARK  status: ('A' for Active; 'I' for Inactive)
REMARK    1  A    between atoms: N1_1  and  C1_2 
REMARK    2  A    between atoms: N2_5  and  C4_6 
REMARK    3  A    between atoms: C4_6  and  C5_7 
REMARK    4  A    between atoms: C8_12  and  N5_13 
REMARK    5  A    between atoms: N5_13  and  C9_14 
ROOT
HETATM    1  C5  UNL     1      21.194   0.518  52.681  1.00  0.00     0.099 A 
HETATM    2  C6  UNL     1      20.206  -0.345  53.351  1.00  0.00     0.006 A 
HETATM    3  C7  UNL     1      20.842  -1.156  54.218  1.00  0.00     0.118 A 
HETATM    4  N3  UNL     1      22.245  -0.931  54.219  1.00  0.00    -0.214 N 
HETATM    5  N4  UNL     1      23.388  -1.312  54.754  1.00  0.00     0.027 NA
HETATM    6  C8  UNL     1      24.407  -0.587  54.224  1.00  0.00     0.746 A 
HETATM    7  N6  UNL     1      23.788   0.228  53.357  1.00  0.00    -0.045 NA
HETATM    8  C15 UNL     1      22.463   0.037  53.333  1.00  0.00     0.156 A 
ENDROOT
BRANCH   1   9
HETATM    9  C4  UNL     1      21.368   0.300  51.218  1.00  0.00     0.133 C 
BRANCH   9  10
HETATM   10  N2  UNL     1      21.349   1.442  50.384  1.00  0.00    -0.411 N 
HETATM   11  C3  UNL     1      20.329   1.473  49.430  1.00  0.00     0.119 C 
HETATM   12  C2  UNL     1      20.521   2.304  48.210  1.00  0.00     0.055 C 
HETATM   13  C1  UNL     1      21.706   3.217  48.276  1.00  0.00     0.221 C 
HETATM   14  C17 UNL     1      22.899   2.369  48.702  1.00  0.00     0.055 C 
HETATM   15  C16 UNL     1      22.622   1.973  50.131  1.00  0.00     0.119 C 
BRANCH  13  16
HETATM   16  N1  UNL     1      22.006   3.676  46.916  1.00  0.00     0.083 N 
HETATM   17  H1  UNL     1      21.351   3.215  46.261  1.00  0.00     0.313 HD
HETATM   18  H2  UNL     1      21.962   4.714  46.901  1.00  0.00     0.313 HD
ENDBRANCH  13  16
ENDBRANCH   9  10
ENDBRANCH   1   9
BRANCH   6  19
HETATM   19  N5  UNL     1      25.775  -0.731  54.575  1.00  0.00    -0.187 N 
HETATM   20  H13 UNL     1      26.033  -1.564  55.157  1.00  0.00     0.184 HD
BRANCH  19  21
HETATM   21  C9  UNL     1      26.814   0.157  54.200  1.00  0.00     0.052 A 
HETATM   22  C10 UNL     1      26.698   1.517  54.025  1.00  0.00     0.030 A 
HETATM   23  C11 UNL     1      27.790   2.311  53.656  1.00  0.00     0.005 A 
HETATM   24  C12 UNL     1      29.026   1.745  53.455  1.00  0.00     0.042 A 
HETATM   25  C13 UNL     1      29.174   0.385  53.621  1.00  0.00     0.118 A 
HETATM   26  F1  UNL     1      30.394  -0.166  53.421  1.00  0.00    -0.206 F 
HETATM   27  C14 UNL     1      28.075  -0.353  53.984  1.00  0.00     0.072 A 
ENDBRANCH  19  21
ENDBRANCH   6  19
TORSDOF 5
ENDMDL
