MODEL 1
REMARK VINA RESULT:      -7.5      0.000      0.000
REMARK  4 active torsions:
REMARK  status: ('A' for Active; 'I' for Inactive)
REMARK    1  A    between atoms: C2_2  and  N1_3 
REMARK    2  A    between atoms: N1_3  and  C3_4 
REMARK    3  A    between atoms: C4_6  and  N3_7 
REMARK    4  A    between atoms: C6_9  and  C7_10 
ROOT
HETATM    1  C7  UNL     1      24.655   1.696  52.927  1.00  0.00    -0.040 C 
HETATM    2  C8  UNL     1      24.278   0.315  52.992  1.00  0.00     0.032 C 
HETATM    3  C9  UNL     1      23.249  -0.470  53.182  1.00  0.00     0.135 C 
HETATM    4  O1  UNL     1      22.007  -1.062  53.412  1.00  0.00    -0.363 OA
HETATM    5  C10 UNL     1      20.864  -0.218  53.076  1.00  0.00     0.176 C 
HETATM    6  C11 UNL     1      21.208   0.239  51.666  1.00  0.00     0.057 C 
HETATM    7  C12 UNL     1      20.251   1.262  51.119  1.00  0.00     0.278 C 
HETATM    8  N4  UNL     1      20.898   1.821  49.940  1.00  0.00     0.121 N 
HETATM    9  C13 UNL     1      20.013   1.947  48.829  1.00  0.00     0.301 C 
HETATM   10  C14 UNL     1      19.643   3.339  48.442  1.00  0.00     0.198 C 
HETATM   11  O2  UNL     1      20.709   4.201  48.339  1.00  0.00    -0.385 OA
HETATM   12  C15 UNL     1      21.864   3.748  48.929  1.00  0.00     0.231 C 
HETATM   13  C16 UNL     1      21.562   3.076  50.275  1.00  0.00     0.382 C 
HETATM   14  O3  UNL     1      22.771   2.898  50.936  1.00  0.00    -0.355 OA
HETATM   15  C17 UNL     1      22.701   3.153  52.279  1.00  0.00     0.175 C 
HETATM   16  C18 UNL     1      23.955   2.981  53.067  1.00  0.00     0.066 C 
ENDROOT
BRANCH   1  17
HETATM   17  C6  UNL     1      25.957   1.768  52.661  1.00  0.00     0.039 A 
HETATM   18  C3  UNL     1      27.278   1.719  53.236  1.00  0.00     0.135 A 
HETATM   19  N2  UNL     1      27.899   1.965  52.142  1.00  0.00    -0.239 NA
HETATM   20  C4  UNL     1      26.693   2.032  51.394  1.00  0.00     0.267 A 
BRANCH  18  21
HETATM   21  N1  UNL     1      27.763   1.495  54.554  1.00  0.00    -0.354 N 
HETATM   22  H4  UNL     1      27.525   2.310  55.174  1.00  0.00     0.166 HD
BRANCH  21  23
HETATM   23  C2  UNL     1      28.465   0.293  54.907  1.00  0.00     0.063 C 
HETATM   24  C1  UNL     1      29.183  -0.508  54.133  1.00  0.00     0.049 C 
ENDBRANCH  21  23
ENDBRANCH  18  21
BRANCH  20  25
HETATM   25  N3  UNL     1      26.328   3.326  50.898  1.00  0.00    -0.280 NA
HETATM   26  C5  UNL     1      26.178   3.572  49.649  1.00  0.00     0.145 C 
ENDBRANCH  20  25
ENDBRANCH   1  17
TORSDOF 4
ENDMDL
MODEL 2
REMARK VINA RESULT:      -7.3      2.438      3.125
REMARK  4 active torsions:
REMARK  status: ('A' for Active; 'I' for Inactive)
REMARK    1  A    between atoms: C2_2  and  N1_3 
REMARK    2  A    between atoms: N1_3  and  C3_4 
REMARK    3  A    between atoms: C4_6  and  N3_7 
REMARK    4  A    between atoms: C6_9  and  C7_10 
ROOT
HETATM    1  C7  UNL     1      24.394   2.432  52.325  1.00  0.00    -0.040 C 
HETATM    2  C8  UNL     1      23.673   1.592  51.415  1.00  0.00     0.032 C 
HETATM    3  C9  UNL     1      22.482   1.391  50.914  1.00  0.00     0.135 C 
HETATM    4  O1  UNL     1      21.138   1.398  50.543  1.00  0.00    -0.363 OA
HETATM    5  C10 UNL     1      20.470   2.686  50.714  1.00  0.00     0.176 C 
HETATM    6  C11 UNL     1      21.429   3.638  50.014  1.00  0.00     0.057 C 
HETATM    7  C12 UNL     1      21.053   5.085  50.169  1.00  0.00     0.278 C 
HETATM    8  N4  UNL     1      22.219   5.846  49.744  1.00  0.00     0.121 N 
HETATM    9  C13 UNL     1      21.886   6.945  48.898  1.00  0.00     0.301 C 
HETATM   10  C14 UNL     1      22.069   8.302  49.487  1.00  0.00     0.198 C 
HETATM   11  O2  UNL     1      23.280   8.493  50.109  1.00  0.00    -0.385 OA
HETATM   12  C15 UNL     1      23.964   7.335  50.385  1.00  0.00     0.231 C 
HETATM   13  C16 UNL     1      23.011   6.248  50.901  1.00  0.00     0.382 C 
HETATM   14  O3  UNL     1      23.788   5.219  51.418  1.00  0.00    -0.355 OA
HETATM   15  C17 UNL     1      23.285   4.684  52.574  1.00  0.00     0.175 C 
HETATM   16  C18 UNL     1      24.055   3.568  53.194  1.00  0.00     0.066 C 
ENDROOT
BRANCH   1  17
HETATM   17  C6  UNL     1      25.670   2.053  52.333  1.00  0.00     0.039 A 
HETATM   18  C3  UNL     1      26.757   1.603  53.167  1.00  0.00     0.135 A 
HETATM   19  N2  UNL     1      27.626   1.563  52.225  1.00  0.00    -0.239 NA
HETATM   20  C4  UNL     1      26.686   1.982  51.247  1.00  0.00     0.267 A 
BRANCH  18  21
HETATM   21  N1  UNL     1      26.869   1.310  54.553  1.00  0.00    -0.354 N 
HETATM   22  H4  UNL     1      27.334   2.106  55.058  1.00  0.00     0.166 HD
BRANCH  21  23
HETATM   23  C2  UNL     1      26.384   0.078  55.107  1.00  0.00     0.063 C 
HETATM   24  C1  UNL     1      25.335  -0.644  54.738  1.00  0.00     0.049 C 
ENDBRANCH  21  23
ENDBRANCH  18  21
BRANCH  20  25
HETATM   25  N3  UNL     1      26.882   3.292  50.700  1.00  0.00    -0.280 NA
HETATM   26  C5  UNL     1      26.566   3.593  49.495  1.00  0.00     0.145 C 
ENDBRANCH  20  25
ENDBRANCH   1  17
TORSDOF 4
ENDMDL
MODEL 3
REMARK VINA RESULT:      -7.2      2.095      7.298
REMARK  4 active torsions:
REMARK  status: ('A' for Active; 'I' for Inactive)
REMARK    1  A    between atoms: C2_2  and  N1_3 
REMARK    2  A    between atoms: N1_3  and  C3_4 
REMARK    3  A    between atoms: C4_6  and  N3_7 
REMARK    4  A    between atoms: C6_9  and  C7_10 
ROOT
HETATM    1  C7  UNL     1      22.629   2.451  51.311  1.00  0.00    -0.040 C 
HETATM    2  C8  UNL     1      23.301   2.540  50.048  1.00  0.00     0.032 C 
HETATM    3  C9  UNL     1      24.377   3.018  49.480  1.00  0.00     0.135 C 
HETATM    4  O1  UNL     1      25.587   3.622  49.137  1.00  0.00    -0.363 OA
HETATM    5  C10 UNL     1      26.525   3.769  50.246  1.00  0.00     0.176 C 
HETATM    6  C11 UNL     1      26.547   2.366  50.835  1.00  0.00     0.057 C 
HETATM    7  C12 UNL     1      27.338   2.266  52.110  1.00  0.00     0.278 C 
HETATM    8  N4  UNL     1      26.984   0.981  52.697  1.00  0.00     0.121 N 
HETATM    9  C13 UNL     1      28.116   0.261  53.181  1.00  0.00     0.301 C 
HETATM   10  C14 UNL     1      28.225   0.134  54.662  1.00  0.00     0.198 C 
HETATM   11  O2  UNL     1      27.068  -0.270  55.284  1.00  0.00    -0.385 OA
HETATM   12  C15 UNL     1      25.939  -0.156  54.509  1.00  0.00     0.231 C 
HETATM   13  C16 UNL     1      25.953   1.156  53.714  1.00  0.00     0.382 C 
HETATM   14  O3  UNL     1      24.682   1.338  53.182  1.00  0.00    -0.355 OA
HETATM   15  C17 UNL     1      24.251   2.637  53.233  1.00  0.00     0.175 C 
HETATM   16  C18 UNL     1      22.897   2.923  52.677  1.00  0.00     0.066 C 
ENDROOT
BRANCH   1  17
HETATM   17  C6  UNL     1      21.506   1.754  51.146  1.00  0.00     0.039 A 
HETATM   18  C3  UNL     1      20.108   1.841  50.807  1.00  0.00     0.135 A 
HETATM   19  N2  UNL     1      19.857   0.598  50.994  1.00  0.00    -0.239 NA
HETATM   20  C4  UNL     1      21.204   0.309  51.340  1.00  0.00     0.267 A 
BRANCH  18  21
HETATM   21  N1  UNL     1      19.263   2.915  50.413  1.00  0.00    -0.354 N 
HETATM   22  H4  UNL     1      18.434   2.550  49.879  1.00  0.00     0.166 HD
BRANCH  21  23
HETATM   23  C2  UNL     1      19.568   4.278  50.745  1.00  0.00     0.063 C 
HETATM   24  C1  UNL     1      19.819   5.295  49.934  1.00  0.00     0.049 C 
ENDBRANCH  21  23
ENDBRANCH  18  21
BRANCH  20  25
HETATM   25  N3  UNL     1      21.445  -0.043  52.708  1.00  0.00    -0.280 NA
HETATM   26  C5  UNL     1      22.229  -0.998  53.050  1.00  0.00     0.145 C 
ENDBRANCH  20  25
ENDBRANCH   1  17
TORSDOF 4
ENDMDL
MODEL 4
REMARK VINA RESULT:      -7.2      0.523      2.798
REMARK  4 active torsions:
REMARK  status: ('A' for Active; 'I' for Inactive)
REMARK    1  A    between atoms: C2_2  and  N1_3 
REMARK    2  A    between atoms: N1_3  and  C3_4 
REMARK    3  A    between atoms: C4_6  and  N3_7 
REMARK    4  A    between atoms: C6_9  and  C7_10 
ROOT
HETATM    1  C7  UNL     1      24.640   1.938  52.964  1.00  0.00    -0.040 C 
HETATM    2  C8  UNL     1      24.351   0.539  53.078  1.00  0.00     0.032 C 
HETATM    3  C9  UNL     1      23.376  -0.301  53.313  1.00  0.00     0.135 C 
HETATM    4  O1  UNL     1      22.178  -0.960  53.587  1.00  0.00    -0.363 OA
HETATM    5  C10 UNL     1      20.978  -0.198  53.250  1.00  0.00     0.176 C 
HETATM    6  C11 UNL     1      21.266   0.236  51.821  1.00  0.00     0.057 C 
HETATM    7  C12 UNL     1      20.237   1.180  51.265  1.00  0.00     0.278 C 
HETATM    8  N4  UNL     1      20.825   1.742  50.056  1.00  0.00     0.121 N 
HETATM    9  C13 UNL     1      19.912   1.780  48.961  1.00  0.00     0.301 C 
HETATM   10  C14 UNL     1      19.451   3.134  48.542  1.00  0.00     0.198 C 
HETATM   11  O2  UNL     1      20.458   4.056  48.390  1.00  0.00    -0.385 OA
HETATM   12  C15 UNL     1      21.651   3.693  48.968  1.00  0.00     0.231 C 
HETATM   13  C16 UNL     1      21.417   3.044  50.340  1.00  0.00     0.382 C 
HETATM   14  O3  UNL     1      22.647   2.961  50.980  1.00  0.00    -0.355 OA
HETATM   15  C17 UNL     1      22.588   3.252  52.316  1.00  0.00     0.175 C 
HETATM   16  C18 UNL     1      23.865   3.181  53.082  1.00  0.00     0.066 C 
ENDROOT
BRANCH   1  17
HETATM   17  C6  UNL     1      25.930   2.081  52.669  1.00  0.00     0.039 A 
HETATM   18  C3  UNL     1      26.869   2.361  51.611  1.00  0.00     0.135 A 
HETATM   19  N2  UNL     1      27.918   2.206  52.332  1.00  0.00    -0.239 NA
HETATM   20  C4  UNL     1      27.157   1.924  53.497  1.00  0.00     0.267 A 
BRANCH  18  21
HETATM   21  N1  UNL     1      26.723   2.685  50.234  1.00  0.00    -0.354 N 
HETATM   22  H4  UNL     1      26.995   1.866  49.635  1.00  0.00     0.166 HD
BRANCH  21  23
HETATM   23  C2  UNL     1      26.257   3.974  49.807  1.00  0.00     0.063 C 
HETATM   24  C1  UNL     1      26.820   4.823  48.958  1.00  0.00     0.049 C 
ENDBRANCH  21  23
ENDBRANCH  18  21
BRANCH  20  25
HETATM   25  N3  UNL     1      27.224   0.579  53.988  1.00  0.00    -0.280 NA
HETATM   26  C5  UNL     1      27.987   0.233  54.958  1.00  0.00     0.145 C 
ENDBRANCH  20  25
ENDBRANCH   1  17
TORSDOF 4
ENDMDL
MODEL 5
REMARK VINA RESULT:      -7.1      2.502      5.999
REMARK  4 active torsions:
REMARK  status: ('A' for Active; 'I' for Inactive)
REMARK    1  A    between atoms: C2_2  and  N1_3 
REMARK    2  A    between atoms: N1_3  and  C3_4 
REMARK    3  A    between atoms: C4_6  and  N3_7 
REMARK    4  A    between atoms: C6_9  and  C7_10 
ROOT
HETATM    1  C7  UNL     1      23.937   4.250  50.143  1.00  0.00    -0.040 C 
HETATM    2  C8  UNL     1      25.155   3.576  49.802  1.00  0.00     0.032 C 
HETATM    3  C9  UNL     1      26.196   2.988  50.333  1.00  0.00     0.135 C 
HETATM    4  O1  UNL     1      27.180   2.426  51.146  1.00  0.00    -0.363 OA
HETATM    5  C10 UNL     1      26.717   2.041  52.476  1.00  0.00     0.176 C 
HETATM    6  C11 UNL     1      25.474   1.223  52.158  1.00  0.00     0.057 C 
HETATM    7  C12 UNL     1      24.698   0.815  53.379  1.00  0.00     0.278 C 
HETATM    8  N4  UNL     1      23.406   0.351  52.892  1.00  0.00     0.121 N 
HETATM    9  C13 UNL     1      22.981  -0.860  53.515  1.00  0.00     0.301 C 
HETATM   10  C14 UNL     1      21.820  -0.745  54.442  1.00  0.00     0.198 C 
HETATM   11  O2  UNL     1      20.755  -0.039  53.934  1.00  0.00    -0.385 OA
HETATM   12  C15 UNL     1      21.055   0.720  52.828  1.00  0.00     0.231 C 
HETATM   13  C16 UNL     1      22.413   1.414  52.995  1.00  0.00     0.382 C 
HETATM   14  O3  UNL     1      22.524   2.367  51.990  1.00  0.00    -0.355 OA
HETATM   15  C17 UNL     1      23.094   3.539  52.411  1.00  0.00     0.175 C 
HETATM   16  C18 UNL     1      23.256   4.617  51.393  1.00  0.00     0.066 C 
ENDROOT
BRANCH   1  17
HETATM   17  C6  UNL     1      23.312   4.591  49.018  1.00  0.00     0.039 A 
HETATM   18  C3  UNL     1      22.619   4.085  47.859  1.00  0.00     0.135 A 
HETATM   19  N2  UNL     1      22.450   5.229  47.306  1.00  0.00    -0.239 NA
HETATM   20  C4  UNL     1      23.090   5.914  48.373  1.00  0.00     0.267 A 
BRANCH  18  21
HETATM   21  N1  UNL     1      22.248   2.780  47.434  1.00  0.00    -0.354 N 
HETATM   22  H4  UNL     1      22.785   2.510  46.572  1.00  0.00     0.166 HD
BRANCH  21  23
HETATM   23  C2  UNL     1      21.272   2.003  48.145  1.00  0.00     0.063 C 
HETATM   24  C1  UNL     1      21.463   1.027  49.021  1.00  0.00     0.049 C 
ENDBRANCH  21  23
ENDBRANCH  18  21
BRANCH  20  25
HETATM   25  N3  UNL     1      24.359   6.511  48.072  1.00  0.00    -0.280 NA
HETATM   26  C5  UNL     1      24.629   7.735  48.340  1.00  0.00     0.145 C 
ENDBRANCH  20  25
ENDBRANCH   1  17
TORSDOF 4
ENDMDL
MODEL 6
REMARK VINA RESULT:      -7.0      2.732      4.737
REMARK  4 active torsions:
REMARK  status: ('A' for Active; 'I' for Inactive)
REMARK    1  A    between atoms: C2_2  and  N1_3 
REMARK    2  A    between atoms: N1_3  and  C3_4 
REMARK    3  A    between atoms: C4_6  and  N3_7 
REMARK    4  A    between atoms: C6_9  and  C7_10 
ROOT
HETATM    1  C7  UNL     1      22.781   1.947  51.656  1.00  0.00    -0.040 C 
HETATM    2  C8  UNL     1      22.620   1.420  50.333  1.00  0.00     0.032 C 
HETATM    3  C9  UNL     1      21.949   1.595  49.224  1.00  0.00     0.135 C 
HETATM    4  O1  UNL     1      21.113   1.997  48.182  1.00  0.00    -0.363 OA
HETATM    5  C10 UNL     1      20.694   3.395  48.250  1.00  0.00     0.176 C 
HETATM    6  C11 UNL     1      22.019   4.117  48.446  1.00  0.00     0.057 C 
HETATM    7  C12 UNL     1      21.865   5.590  48.701  1.00  0.00     0.278 C 
HETATM    8  N4  UNL     1      23.159   6.047  49.188  1.00  0.00     0.121 N 
HETATM    9  C13 UNL     1      23.578   7.270  48.585  1.00  0.00     0.301 C 
HETATM   10  C14 UNL     1      23.590   8.466  49.474  1.00  0.00     0.198 C 
HETATM   11  O2  UNL     1      24.203   8.266  50.688  1.00  0.00    -0.385 OA
HETATM   12  C15 UNL     1      24.390   6.946  51.018  1.00  0.00     0.231 C 
HETATM   13  C16 UNL     1      23.157   6.110  50.645  1.00  0.00     0.382 C 
HETATM   14  O3  UNL     1      23.294   4.867  51.249  1.00  0.00    -0.355 OA
HETATM   15  C17 UNL     1      22.124   4.379  51.765  1.00  0.00     0.175 C 
HETATM   16  C18 UNL     1      22.180   3.044  52.427  1.00  0.00     0.066 C 
ENDROOT
BRANCH   1  17
HETATM   17  C6  UNL     1      23.719   1.240  52.283  1.00  0.00     0.039 A 
HETATM   18  C3  UNL     1      25.121   0.904  52.301  1.00  0.00     0.135 A 
HETATM   19  N2  UNL     1      25.036   0.071  53.272  1.00  0.00    -0.239 NA
HETATM   20  C4  UNL     1      23.640   0.286  53.422  1.00  0.00     0.267 A 
BRANCH  18  21
HETATM   21  N1  UNL     1      26.236   1.318  51.521  1.00  0.00    -0.354 N 
HETATM   22  H4  UNL     1      26.870   0.502  51.329  1.00  0.00     0.166 HD
BRANCH  21  23
HETATM   23  C2  UNL     1      26.394   2.678  51.092  1.00  0.00     0.063 C 
HETATM   24  C1  UNL     1      26.290   3.183  49.871  1.00  0.00     0.049 C 
ENDBRANCH  21  23
ENDBRANCH  18  21
BRANCH  20  25
HETATM   25  N3  UNL     1      22.789  -0.810  53.061  1.00  0.00    -0.280 NA
HETATM   26  C5  UNL     1      21.896  -1.282  53.851  1.00  0.00     0.145 C 
ENDBRANCH  20  25
ENDBRANCH   1  17
TORSDOF 4
ENDMDL
MODEL 7
REMARK VINA RESULT:      -6.9      2.553      5.887
REMARK  4 active torsions:
REMARK  status: ('A' for Active; 'I' for Inactive)
REMARK    1  A    between atoms: C2_2  and  N1_3 
REMARK    2  A    between atoms: N1_3  and  C3_4 
REMARK    3  A    between atoms: C4_6  and  N3_7 
REMARK    4  A    between atoms: C6_9  and  C7_10 
ROOT
HETATM    1  C7  UNL     1      24.245   4.264  50.407  1.00  0.00    -0.040 C 
HETATM    2  C8  UNL     1      25.448   3.542  50.116  1.00  0.00     0.032 C 
HETATM    3  C9  UNL     1      26.406   2.855  50.682  1.00  0.00     0.135 C 
HETATM    4  O1  UNL     1      27.285   2.177  51.527  1.00  0.00    -0.363 OA
HETATM    5  C10 UNL     1      26.690   1.727  52.782  1.00  0.00     0.176 C 
HETATM    6  C11 UNL     1      25.436   1.011  52.303  1.00  0.00     0.057 C 
HETATM    7  C12 UNL     1      24.537   0.567  53.424  1.00  0.00     0.278 C 
HETATM    8  N4  UNL     1      23.268   0.218  52.800  1.00  0.00     0.121 N 
HETATM    9  C13 UNL     1      22.726  -1.006  53.294  1.00  0.00     0.301 C 
HETATM   10  C14 UNL     1      21.498  -0.886  54.130  1.00  0.00     0.198 C 
HETATM   11  O2  UNL     1      20.521  -0.081  53.593  1.00  0.00    -0.385 OA
HETATM   12  C15 UNL     1      20.954   0.735  52.576  1.00  0.00     0.231 C 
HETATM   13  C16 UNL     1      22.331   1.330  52.903  1.00  0.00     0.382 C 
HETATM   14  O3  UNL     1      22.578   2.344  51.987  1.00  0.00    -0.355 OA
HETATM   15  C17 UNL     1      23.175   3.446  52.539  1.00  0.00     0.175 C 
HETATM   16  C18 UNL     1      23.482   4.581  51.623  1.00  0.00     0.066 C 
ENDROOT
BRANCH   1  17
HETATM   17  C6  UNL     1      23.737   4.721  49.264  1.00  0.00     0.039 A 
HETATM   18  C3  UNL     1      23.625   5.876  48.408  1.00  0.00     0.135 A 
HETATM   19  N2  UNL     1      22.859   5.315  47.546  1.00  0.00    -0.239 NA
HETATM   20  C4  UNL     1      22.864   4.079  48.244  1.00  0.00     0.267 A 
BRANCH  18  21
HETATM   21  N1  UNL     1      24.151   7.195  48.471  1.00  0.00    -0.354 N 
HETATM   22  H4  UNL     1      23.426   7.892  48.168  1.00  0.00     0.166 HD
BRANCH  21  23
HETATM   23  C2  UNL     1      25.495   7.452  48.905  1.00  0.00     0.063 C 
HETATM   24  C1  UNL     1      25.952   7.630  50.136  1.00  0.00     0.049 C 
ENDBRANCH  21  23
ENDBRANCH  18  21
BRANCH  20  25
HETATM   25  N3  UNL     1      21.628   3.693  48.858  1.00  0.00    -0.280 NA
HETATM   26  C5  UNL     1      21.132   2.518  48.738  1.00  0.00     0.145 C 
ENDBRANCH  20  25
ENDBRANCH   1  17
TORSDOF 4
ENDMDL
MODEL 8
REMARK VINA RESULT:      -6.9      2.472      6.656
REMARK  4 active torsions:
REMARK  status: ('A' for Active; 'I' for Inactive)
REMARK    1  A    between atoms: C2_2  and  N1_3 
REMARK    2  A    between atoms: N1_3  and  C3_4 
REMARK    3  A    between atoms: C4_6  and  N3_7 
REMARK    4  A    between atoms: C6_9  and  C7_10 
ROOT
HETATM    1  C7  UNL     1      20.777   1.049  52.387  1.00  0.00    -0.040 C 
HETATM    2  C8  UNL     1      20.637   0.631  53.751  1.00  0.00     0.032 C 
HETATM    3  C9  UNL     1      21.079  -0.244  54.616  1.00  0.00     0.135 C 
HETATM    4  O1  UNL     1      21.712  -1.268  55.321  1.00  0.00    -0.363 OA
HETATM    5  C10 UNL     1      23.009  -1.663  54.778  1.00  0.00     0.176 C 
HETATM    6  C11 UNL     1      23.718  -0.324  54.636  1.00  0.00     0.057 C 
HETATM    7  C12 UNL     1      25.050  -0.423  53.946  1.00  0.00     0.278 C 
HETATM    8  N4  UNL     1      25.421   0.943  53.601  1.00  0.00     0.121 N 
HETATM    9  C13 UNL     1      26.785   1.238  53.896  1.00  0.00     0.301 C 
HETATM   10  C14 UNL     1      27.681   1.426  52.720  1.00  0.00     0.198 C 
HETATM   11  O2  UNL     1      27.181   2.266  51.753  1.00  0.00    -0.385 OA
HETATM   12  C15 UNL     1      25.834   2.511  51.857  1.00  0.00     0.231 C 
HETATM   13  C16 UNL     1      25.071   1.228  52.214  1.00  0.00     0.382 C 
HETATM   14  O3  UNL     1      23.717   1.479  52.029  1.00  0.00    -0.355 OA
HETATM   15  C17 UNL     1      23.041   0.431  51.463  1.00  0.00     0.175 C 
HETATM   16  C18 UNL     1      21.579   0.614  51.235  1.00  0.00     0.066 C 
ENDROOT
BRANCH   1  17
HETATM   17  C6  UNL     1      19.975   2.091  52.178  1.00  0.00     0.039 A 
HETATM   18  C3  UNL     1      18.672   2.495  51.711  1.00  0.00     0.135 A 
HETATM   19  N2  UNL     1      18.879   3.754  51.842  1.00  0.00    -0.239 NA
HETATM   20  C4  UNL     1      20.193   3.554  52.343  1.00  0.00     0.267 A 
BRANCH  18  21
HETATM   21  N1  UNL     1      17.535   1.780  51.246  1.00  0.00    -0.354 N 
HETATM   22  H4  UNL     1      16.709   2.424  51.159  1.00  0.00     0.166 HD
BRANCH  21  23
HETATM   23  C2  UNL     1      17.593   0.376  50.952  1.00  0.00     0.063 C 
HETATM   24  C1  UNL     1      17.488  -0.652  51.781  1.00  0.00     0.049 C 
ENDBRANCH  21  23
ENDBRANCH  18  21
BRANCH  20  25
HETATM   25  N3  UNL     1      21.267   3.969  51.489  1.00  0.00    -0.280 NA
HETATM   26  C5  UNL     1      21.959   5.025  51.712  1.00  0.00     0.145 C 
ENDBRANCH  20  25
ENDBRANCH   1  17
TORSDOF 4
ENDMDL
MODEL 9
REMARK VINA RESULT:      -6.8      2.503      4.178
REMARK  4 active torsions:
REMARK  status: ('A' for Active; 'I' for Inactive)
REMARK    1  A    between atoms: C2_2  and  N1_3 
REMARK    2  A    between atoms: N1_3  and  C3_4 
REMARK    3  A    between atoms: C4_6  and  N3_7 
REMARK    4  A    between atoms: C6_9  and  C7_10 
ROOT
HETATM    1  C7  UNL     1      23.171   1.628  52.117  1.00  0.00    -0.040 C 
HETATM    2  C8  UNL     1      22.509   0.990  51.016  1.00  0.00     0.032 C 
HETATM    3  C9  UNL     1      21.552   1.164  50.143  1.00  0.00     0.135 C 
HETATM    4  O1  UNL     1      20.497   1.601  49.341  1.00  0.00    -0.363 OA
HETATM    5  C10 UNL     1      20.348   3.052  49.278  1.00  0.00     0.176 C 
HETATM    6  C11 UNL     1      21.761   3.505  48.942  1.00  0.00     0.057 C 
HETATM    7  C12 UNL     1      21.931   4.999  48.962  1.00  0.00     0.278 C 
HETATM    8  N4  UNL     1      23.368   5.235  48.955  1.00  0.00     0.121 N 
HETATM    9  C13 UNL     1      23.756   6.264  48.047  1.00  0.00     0.301 C 
HETATM   10  C14 UNL     1      24.243   7.531  48.664  1.00  0.00     0.198 C 
HETATM   11  O2  UNL     1      25.177   7.356  49.657  1.00  0.00    -0.385 OA
HETATM   12  C15 UNL     1      25.251   6.075  50.147  1.00  0.00     0.231 C 
HETATM   13  C16 UNL     1      23.849   5.472  50.312  1.00  0.00     0.382 C 
HETATM   14  O3  UNL     1      23.977   4.309  51.060  1.00  0.00    -0.355 OA
HETATM   15  C17 UNL     1      22.976   4.138  51.978  1.00  0.00     0.175 C 
HETATM   16  C18 UNL     1      23.033   2.910  52.822  1.00  0.00     0.066 C 
ENDROOT
BRANCH   1  17
HETATM   17  C6  UNL     1      24.138   0.824  52.553  1.00  0.00     0.039 A 
HETATM   18  C3  UNL     1      24.477  -0.187  53.524  1.00  0.00     0.135 A 
HETATM   19  N2  UNL     1      25.703  -0.296  53.167  1.00  0.00    -0.239 NA
HETATM   20  C4  UNL     1      25.559   0.672  52.137  1.00  0.00     0.267 A 
BRANCH  18  21
HETATM   21  N1  UNL     1      23.741  -0.847  54.546  1.00  0.00    -0.354 N 
HETATM   22  H4  UNL     1      24.371  -1.092  55.350  1.00  0.00     0.166 HD
BRANCH  21  23
HETATM   23  C2  UNL     1      22.333  -1.098  54.421  1.00  0.00     0.063 C 
HETATM   24  C1  UNL     1      21.315  -0.308  54.735  1.00  0.00     0.049 C 
ENDBRANCH  21  23
ENDBRANCH  18  21
BRANCH  20  25
HETATM   25  N3  UNL     1      26.244   1.915  52.336  1.00  0.00    -0.280 NA
HETATM   26  C5  UNL     1      26.863   2.522  51.393  1.00  0.00     0.145 C 
ENDBRANCH  20  25
ENDBRANCH   1  17
TORSDOF 4
ENDMDL
