MODEL 1
REMARK VINA RESULT:      -9.4      0.000      0.000
REMARK  6 active torsions:
REMARK  status: ('A' for Active; 'I' for Inactive)
REMARK    1  A    between atoms: N1_1  and  C1_2 
REMARK    2  A    between atoms: N2_7  and  C6_8 
REMARK    3  A    between atoms: C6_8  and  C7_9 
REMARK    4  A    between atoms: C7_9  and  C8_10 
REMARK    5  A    between atoms: C8_10  and  N3_11 
REMARK    6  A    between atoms: C15_20  and  C16_21 
ROOT
HETATM    1  N3  UNL     1      23.218   2.170  50.522  1.00  0.00    -0.317 N 
HETATM    2  C9  UNL     1      21.890   1.894  50.075  1.00  0.00     0.248 C 
HETATM    3  O1  UNL     1      21.337   2.808  49.412  1.00  0.00    -0.271 OA
HETATM    4  C10 UNL     1      21.337   0.587  50.439  1.00  0.00     0.272 C 
HETATM    5  O2  UNL     1      21.587   0.128  51.704  1.00  0.00    -0.364 OA
HETATM    6  C11 UNL     1      22.471   0.837  52.452  1.00  0.00     0.224 A 
HETATM    7  C12 UNL     1      23.634   1.345  51.637  1.00  0.00     0.050 A 
HETATM    8  C13 UNL     1      24.801   0.935  52.104  1.00  0.00     0.044 A 
HETATM    9  C14 UNL     1      24.557   0.098  53.292  1.00  0.00     0.023 A 
HETATM   10  C15 UNL     1      25.450  -0.548  54.122  1.00  0.00     0.081 A 
HETATM   11  N4  UNL     1      24.928  -1.256  55.168  1.00  0.00    -0.240 NA
HETATM   12  C22 UNL     1      23.577  -1.295  55.345  1.00  0.00     0.234 A 
HETATM   13  N5  UNL     1      22.703  -0.658  54.528  1.00  0.00    -0.242 NA
HETATM   14  C23 UNL     1      23.171   0.050  53.487  1.00  0.00     0.083 A 
ENDROOT
BRANCH   1  15
HETATM   15  C8  UNL     1      24.119   3.133  49.995  1.00  0.00     0.134 C 
BRANCH  15  16
HETATM   16  C7  UNL     1      24.465   4.279  50.882  1.00  0.00     0.050 C 
BRANCH  16  17
HETATM   17  C6  UNL     1      24.037   5.611  50.341  1.00  0.00     0.277 C 
BRANCH  17  18
HETATM   18  N2  UNL     1      24.751   5.985  49.107  1.00  0.00     0.121 N 
HETATM   19  C1  UNL     1      26.108   6.291  49.526  1.00  0.00     0.451 C 
HETATM   20  C2  UNL     1      27.008   6.708  48.417  1.00  0.00     0.068 C 
HETATM   21  C3  UNL     1      26.436   7.818  47.597  1.00  0.00     0.006 C 
HETATM   22  C4  UNL     1      24.992   7.554  47.317  1.00  0.00     0.030 C 
HETATM   23  C5  UNL     1      24.199   7.204  48.546  1.00  0.00     0.275 C 
BRANCH  19  24
HETATM   24  N1  UNL     1      26.123   7.291  50.577  1.00  0.00     0.112 N 
HETATM   25  H1  UNL     1      25.120   7.493  50.807  1.00  0.00     0.315 HD
HETATM   26  H2  UNL     1      26.552   6.936  51.464  1.00  0.00     0.315 HD
ENDBRANCH  19  24
ENDBRANCH  17  18
ENDBRANCH  16  17
ENDBRANCH  15  16
ENDBRANCH   1  15
BRANCH  10  27
HETATM   27  C16 UNL     1      26.895  -0.490  53.916  1.00  0.00    -0.005 A 
HETATM   28  C17 UNL     1      27.659  -1.451  53.277  1.00  0.00     0.014 A 
HETATM   29  C18 UNL     1      29.028  -1.288  53.131  1.00  0.00     0.003 A 
HETATM   30  C19 UNL     1      29.681  -0.168  53.612  1.00  0.00     0.024 A 
HETATM   31  C20 UNL     1      28.922   0.795  54.252  1.00  0.00     0.035 A 
HETATM   32 CL1  UNL     1      29.802   2.200  54.845  1.00  0.00    -0.084 Cl
HETATM   33  C21 UNL     1      27.555   0.622  54.392  1.00  0.00     0.037 A 
ENDBRANCH  10  27
TORSDOF 6
ENDMDL
MODEL 2
REMARK VINA RESULT:      -9.4      2.750      6.573
REMARK  6 active torsions:
REMARK  status: ('A' for Active; 'I' for Inactive)
REMARK    1  A    between atoms: N1_1  and  C1_2 
REMARK    2  A    between atoms: N2_7  and  C6_8 
REMARK    3  A    between atoms: C6_8  and  C7_9 
REMARK    4  A    between atoms: C7_9  and  C8_10 
REMARK    5  A    between atoms: C8_10  and  N3_11 
REMARK    6  A    between atoms: C15_20  and  C16_21 
ROOT
HETATM    1  N3  UNL     1      22.965  -0.262  53.597  1.00  0.00    -0.317 N 
HETATM    2  C9  UNL     1      21.791  -0.655  54.310  1.00  0.00     0.248 C 
HETATM    3  O1  UNL     1      21.932  -1.625  55.097  1.00  0.00    -0.271 OA
HETATM    4  C10 UNL     1      20.575   0.115  54.040  1.00  0.00     0.272 C 
HETATM    5  O2  UNL     1      20.327   0.463  52.739  1.00  0.00    -0.364 OA
HETATM    6  C11 UNL     1      21.312   0.221  51.838  1.00  0.00     0.224 A 
HETATM    7  C12 UNL     1      22.683   0.502  52.399  1.00  0.00     0.050 A 
HETATM    8  C13 UNL     1      23.355   1.390  51.685  1.00  0.00     0.044 A 
HETATM    9  C14 UNL     1      22.508   1.812  50.556  1.00  0.00     0.023 A 
HETATM   10  C15 UNL     1      22.765   2.709  49.540  1.00  0.00     0.081 A 
HETATM   11  N4  UNL     1      21.779   2.898  48.612  1.00  0.00    -0.240 NA
HETATM   12  C22 UNL     1      20.609   2.208  48.725  1.00  0.00     0.234 A 
HETATM   13  N5  UNL     1      20.360   1.327  49.725  1.00  0.00    -0.242 NA
HETATM   14  C23 UNL     1      21.301   1.110  50.659  1.00  0.00     0.083 A 
ENDROOT
BRANCH   1  15
HETATM   15  C8  UNL     1      24.314  -0.540  53.944  1.00  0.00     0.134 C 
BRANCH  15  16
HETATM   16  C7  UNL     1      25.233  -0.889  52.824  1.00  0.00     0.050 C 
BRANCH  16  17
HETATM   17  C6  UNL     1      26.635  -1.187  53.265  1.00  0.00     0.277 C 
BRANCH  17  18
HETATM   18  N2  UNL     1      27.569  -0.079  52.995  1.00  0.00     0.121 N 
HETATM   19  C1  UNL     1      28.404   0.017  54.181  1.00  0.00     0.451 C 
HETATM   20  C2  UNL     1      29.426   1.096  54.120  1.00  0.00     0.068 C 
HETATM   21  C3  UNL     1      28.840   2.425  53.768  1.00  0.00     0.006 C 
HETATM   22  C4  UNL     1      27.862   2.270  52.649  1.00  0.00     0.030 C 
HETATM   23  C5  UNL     1      26.854   1.178  52.882  1.00  0.00     0.275 C 
BRANCH  19  24
HETATM   24  N1  UNL     1      27.601   0.162  55.381  1.00  0.00     0.112 N 
HETATM   25  H1  UNL     1      26.902   0.917  55.179  1.00  0.00     0.315 HD
HETATM   26  H2  UNL     1      27.039  -0.695  55.596  1.00  0.00     0.315 HD
ENDBRANCH  19  24
ENDBRANCH  17  18
ENDBRANCH  16  17
ENDBRANCH  15  16
ENDBRANCH   1  15
BRANCH  10  27
HETATM   27  C16 UNL     1      24.029   3.435  49.435  1.00  0.00    -0.005 A 
HETATM   28  C17 UNL     1      25.286   2.907  49.674  1.00  0.00     0.014 A 
HETATM   29  C18 UNL     1      26.421   3.690  49.536  1.00  0.00     0.003 A 
HETATM   30  C19 UNL     1      26.347   5.017  49.157  1.00  0.00     0.024 A 
HETATM   31  C20 UNL     1      25.093   5.549  48.917  1.00  0.00     0.035 A 
HETATM   32 CL1  UNL     1      25.055   7.243  48.437  1.00  0.00    -0.084 Cl
HETATM   33  C21 UNL     1      23.965   4.758  49.058  1.00  0.00     0.037 A 
ENDBRANCH  10  27
TORSDOF 6
ENDMDL
MODEL 3
REMARK VINA RESULT:      -9.4      1.309      1.723
REMARK  6 active torsions:
REMARK  status: ('A' for Active; 'I' for Inactive)
REMARK    1  A    between atoms: N1_1  and  C1_2 
REMARK    2  A    between atoms: N2_7  and  C6_8 
REMARK    3  A    between atoms: C6_8  and  C7_9 
REMARK    4  A    between atoms: C7_9  and  C8_10 
REMARK    5  A    between atoms: C8_10  and  N3_11 
REMARK    6  A    between atoms: C15_20  and  C16_21 
ROOT
HETATM    1  N3  UNL     1      23.195   2.193  50.542  1.00  0.00    -0.317 N 
HETATM    2  C9  UNL     1      21.864   1.921  50.100  1.00  0.00     0.248 C 
HETATM    3  O1  UNL     1      21.309   2.839  49.445  1.00  0.00    -0.271 OA
HETATM    4  C10 UNL     1      21.312   0.613  50.459  1.00  0.00     0.272 C 
HETATM    5  O2  UNL     1      21.569   0.146  51.720  1.00  0.00    -0.364 OA
HETATM    6  C11 UNL     1      22.457   0.850  52.468  1.00  0.00     0.224 A 
HETATM    7  C12 UNL     1      23.616   1.361  51.650  1.00  0.00     0.050 A 
HETATM    8  C13 UNL     1      24.786   0.948  52.108  1.00  0.00     0.044 A 
HETATM    9  C14 UNL     1      24.547   0.105  53.293  1.00  0.00     0.023 A 
HETATM   10  C15 UNL     1      25.444  -0.547  54.114  1.00  0.00     0.081 A 
HETATM   11  N4  UNL     1      24.927  -1.261  55.158  1.00  0.00    -0.240 NA
HETATM   12  C22 UNL     1      23.577  -1.300  55.342  1.00  0.00     0.234 A 
HETATM   13  N5  UNL     1      22.699  -0.657  54.533  1.00  0.00    -0.242 NA
HETATM   14  C23 UNL     1      23.163   0.056  53.494  1.00  0.00     0.083 A 
ENDROOT
BRANCH   1  15
HETATM   15  C8  UNL     1      24.094   3.159  50.016  1.00  0.00     0.134 C 
BRANCH  15  16
HETATM   16  C7  UNL     1      24.560   4.219  50.954  1.00  0.00     0.050 C 
BRANCH  16  17
HETATM   17  C6  UNL     1      23.457   5.091  51.474  1.00  0.00     0.277 C 
BRANCH  17  18
HETATM   18  N2  UNL     1      22.871   5.957  50.435  1.00  0.00     0.121 N 
HETATM   19  C1  UNL     1      23.812   7.051  50.271  1.00  0.00     0.451 C 
HETATM   20  C2  UNL     1      23.402   8.061  49.258  1.00  0.00     0.068 C 
HETATM   21  C3  UNL     1      22.017   8.574  49.484  1.00  0.00     0.006 C 
HETATM   22  C4  UNL     1      21.101   7.440  49.812  1.00  0.00     0.030 C 
HETATM   23  C5  UNL     1      21.625   6.540  50.896  1.00  0.00     0.275 C 
BRANCH  19  24
HETATM   24  N1  UNL     1      24.089   7.704  51.537  1.00  0.00     0.112 N 
HETATM   25  H1  UNL     1      24.583   6.996  52.133  1.00  0.00     0.315 HD
HETATM   26  H2  UNL     1      24.754   8.507  51.439  1.00  0.00     0.315 HD
ENDBRANCH  19  24
ENDBRANCH  17  18
ENDBRANCH  16  17
ENDBRANCH  15  16
ENDBRANCH   1  15
BRANCH  10  27
HETATM   27  C16 UNL     1      26.888  -0.489  53.901  1.00  0.00    -0.005 A 
HETATM   28  C17 UNL     1      27.649  -1.451  53.258  1.00  0.00     0.014 A 
HETATM   29  C18 UNL     1      29.017  -1.287  53.105  1.00  0.00     0.003 A 
HETATM   30  C19 UNL     1      29.672  -0.167  53.583  1.00  0.00     0.024 A 
HETATM   31  C20 UNL     1      28.917   0.796  54.225  1.00  0.00     0.035 A 
HETATM   32 CL1  UNL     1      29.799   2.201  54.814  1.00  0.00    -0.084 Cl
HETATM   33  C21 UNL     1      27.550   0.623  54.373  1.00  0.00     0.037 A 
ENDBRANCH  10  27
TORSDOF 6
ENDMDL
MODEL 4
REMARK VINA RESULT:      -9.2      2.733      6.458
REMARK  6 active torsions:
REMARK  status: ('A' for Active; 'I' for Inactive)
REMARK    1  A    between atoms: N1_1  and  C1_2 
REMARK    2  A    between atoms: N2_7  and  C6_8 
REMARK    3  A    between atoms: C6_8  and  C7_9 
REMARK    4  A    between atoms: C7_9  and  C8_10 
REMARK    5  A    between atoms: C8_10  and  N3_11 
REMARK    6  A    between atoms: C15_20  and  C16_21 
ROOT
HETATM    1  N3  UNL     1      21.114   3.905  51.202  1.00  0.00    -0.317 N 
HETATM    2  C9  UNL     1      20.630   5.156  50.712  1.00  0.00     0.248 C 
HETATM    3  O1  UNL     1      19.395   5.210  50.484  1.00  0.00    -0.271 OA
HETATM    4  C10 UNL     1      21.624   6.217  50.536  1.00  0.00     0.272 C 
HETATM    5  O2  UNL     1      22.836   5.862  50.008  1.00  0.00    -0.364 OA
HETATM    6  C11 UNL     1      23.077   4.535  49.857  1.00  0.00     0.224 A 
HETATM    7  C12 UNL     1      22.537   3.721  51.006  1.00  0.00     0.050 A 
HETATM    8  C13 UNL     1      23.471   3.001  51.605  1.00  0.00     0.044 A 
HETATM    9  C14 UNL     1      24.755   3.251  50.926  1.00  0.00     0.023 A 
HETATM   10  C15 UNL     1      26.008   2.733  51.178  1.00  0.00     0.081 A 
HETATM   11  N4  UNL     1      27.027   3.146  50.367  1.00  0.00    -0.240 NA
HETATM   12  C22 UNL     1      26.771   4.034  49.364  1.00  0.00     0.234 A 
HETATM   13  N5  UNL     1      25.537   4.540  49.119  1.00  0.00    -0.242 NA
HETATM   14  C23 UNL     1      24.505   4.161  49.891  1.00  0.00     0.083 A 
ENDROOT
BRANCH   1  15
HETATM   15  C8  UNL     1      20.360   2.879  51.832  1.00  0.00     0.134 C 
BRANCH  15  16
HETATM   16  C7  UNL     1      20.425   1.525  51.212  1.00  0.00     0.050 C 
BRANCH  16  17
HETATM   17  C6  UNL     1      19.905   0.431  52.096  1.00  0.00     0.277 C 
BRANCH  17  18
HETATM   18  N2  UNL     1      20.972  -0.447  52.611  1.00  0.00     0.121 N 
HETATM   19  C1  UNL     1      20.577  -0.772  53.971  1.00  0.00     0.451 C 
HETATM   20  C2  UNL     1      21.536  -1.656  54.688  1.00  0.00     0.068 C 
HETATM   21  C3  UNL     1      22.938  -1.141  54.645  1.00  0.00     0.006 C 
HETATM   22  C4  UNL     1      23.262  -0.661  53.267  1.00  0.00     0.030 C 
HETATM   23  C5  UNL     1      22.229   0.272  52.699  1.00  0.00     0.275 C 
BRANCH  19  24
HETATM   24  N1  UNL     1      20.331   0.426  54.751  1.00  0.00     0.112 N 
HETATM   25  H1  UNL     1      21.207   0.606  55.301  1.00  0.00     0.315 HD
HETATM   26  H2  UNL     1      20.193   1.275  54.154  1.00  0.00     0.315 HD
ENDBRANCH  19  24
ENDBRANCH  17  18
ENDBRANCH  16  17
ENDBRANCH  15  16
ENDBRANCH   1  15
BRANCH  10  27
HETATM   27  C16 UNL     1      26.261   1.779  52.256  1.00  0.00    -0.005 A 
HETATM   28  C17 UNL     1      26.274   2.074  53.608  1.00  0.00     0.014 A 
HETATM   29  C18 UNL     1      26.518   1.084  54.547  1.00  0.00     0.003 A 
HETATM   30  C19 UNL     1      26.756  -0.226  54.176  1.00  0.00     0.024 A 
HETATM   31  C20 UNL     1      26.745  -0.526  52.826  1.00  0.00     0.035 A 
HETATM   32 CL1  UNL     1      27.054  -2.208  52.408  1.00  0.00    -0.084 Cl
HETATM   33  C21 UNL     1      26.499   0.471  51.896  1.00  0.00     0.037 A 
ENDBRANCH  10  27
TORSDOF 6
ENDMDL
MODEL 5
REMARK VINA RESULT:      -9.2      3.146      5.802
REMARK  6 active torsions:
REMARK  status: ('A' for Active; 'I' for Inactive)
REMARK    1  A    between atoms: N1_1  and  C1_2 
REMARK    2  A    between atoms: N2_7  and  C6_8 
REMARK    3  A    between atoms: C6_8  and  C7_9 
REMARK    4  A    between atoms: C7_9  and  C8_10 
REMARK    5  A    between atoms: C8_10  and  N3_11 
REMARK    6  A    between atoms: C15_20  and  C16_21 
ROOT
HETATM    1  N3  UNL     1      26.390   0.401  52.929  1.00  0.00    -0.317 N 
HETATM    2  C9  UNL     1      27.200  -0.002  54.034  1.00  0.00     0.248 C 
HETATM    3  O1  UNL     1      28.411  -0.215  53.772  1.00  0.00    -0.271 OA
HETATM    4  C10 UNL     1      26.526  -0.117  55.329  1.00  0.00     0.272 C 
HETATM    5  O2  UNL     1      25.277  -0.677  55.341  1.00  0.00    -0.364 OA
HETATM    6  C11 UNL     1      24.698  -0.915  54.137  1.00  0.00     0.224 A 
HETATM    7  C12 UNL     1      24.974   0.182  53.141  1.00  0.00     0.050 A 
HETATM    8  C13 UNL     1      23.869   0.725  52.660  1.00  0.00     0.044 A 
HETATM    9  C14 UNL     1      22.714   0.053  53.282  1.00  0.00     0.023 A 
HETATM   10  C15 UNL     1      21.362   0.261  53.101  1.00  0.00     0.081 A 
HETATM   11  N4  UNL     1      20.510  -0.530  53.818  1.00  0.00    -0.240 NA
HETATM   12  C22 UNL     1      21.017  -1.471  54.664  1.00  0.00     0.234 A 
HETATM   13  N5  UNL     1      22.346  -1.672  54.839  1.00  0.00    -0.242 NA
HETATM   14  C23 UNL     1      23.221  -0.918  54.154  1.00  0.00     0.083 A 
ENDROOT
BRANCH   1  15
HETATM   15  C8  UNL     1      26.830   0.970  51.704  1.00  0.00     0.134 C 
BRANCH  15  16
HETATM   16  C7  UNL     1      26.864   2.459  51.633  1.00  0.00     0.050 C 
BRANCH  16  17
HETATM   17  C6  UNL     1      26.489   3.007  50.288  1.00  0.00     0.277 C 
BRANCH  17  18
HETATM   18  N2  UNL     1      25.088   3.460  50.223  1.00  0.00     0.121 N 
HETATM   19  C1  UNL     1      25.114   4.675  49.427  1.00  0.00     0.451 C 
HETATM   20  C2  UNL     1      23.781   5.311  49.242  1.00  0.00     0.068 C 
HETATM   21  C3  UNL     1      23.065   5.532  50.535  1.00  0.00     0.006 C 
HETATM   22  C4  UNL     1      23.193   4.322  51.402  1.00  0.00     0.030 C 
HETATM   23  C5  UNL     1      24.608   3.832  51.541  1.00  0.00     0.275 C 
BRANCH  19  24
HETATM   24  N1  UNL     1      26.052   5.641  49.967  1.00  0.00     0.112 N 
HETATM   25  H1  UNL     1      26.820   5.734  49.259  1.00  0.00     0.315 HD
HETATM   26  H2  UNL     1      25.637   6.597  50.062  1.00  0.00     0.315 HD
ENDBRANCH  19  24
ENDBRANCH  17  18
ENDBRANCH  16  17
ENDBRANCH  15  16
ENDBRANCH   1  15
BRANCH  10  27
HETATM   27  C16 UNL     1      20.840   1.273  52.185  1.00  0.00    -0.005 A 
HETATM   28  C17 UNL     1      20.100   2.385  52.548  1.00  0.00     0.014 A 
HETATM   29  C18 UNL     1      19.661   3.287  51.592  1.00  0.00     0.003 A 
HETATM   30  C19 UNL     1      19.940   3.115  50.249  1.00  0.00     0.024 A 
HETATM   31  C20 UNL     1      20.679   2.005  49.881  1.00  0.00     0.035 A 
HETATM   32 CL1  UNL     1      21.007   1.834  48.160  1.00  0.00    -0.084 Cl
HETATM   33  C21 UNL     1      21.113   1.110  50.845  1.00  0.00     0.037 A 
ENDBRANCH  10  27
TORSDOF 6
ENDMDL
MODEL 6
REMARK VINA RESULT:      -8.9      1.733      2.030
REMARK  6 active torsions:
REMARK  status: ('A' for Active; 'I' for Inactive)
REMARK    1  A    between atoms: N1_1  and  C1_2 
REMARK    2  A    between atoms: N2_7  and  C6_8 
REMARK    3  A    between atoms: C6_8  and  C7_9 
REMARK    4  A    between atoms: C7_9  and  C8_10 
REMARK    5  A    between atoms: C8_10  and  N3_11 
REMARK    6  A    between atoms: C15_20  and  C16_21 
ROOT
HETATM    1  N3  UNL     1      21.273   2.912  51.709  1.00  0.00    -0.317 N 
HETATM    2  C9  UNL     1      19.883   2.714  51.448  1.00  0.00     0.248 C 
HETATM    3  O1  UNL     1      19.236   3.744  51.132  1.00  0.00    -0.271 OA
HETATM    4  C10 UNL     1      19.383   1.343  51.578  1.00  0.00     0.272 C 
HETATM    5  O2  UNL     1      19.846   0.602  52.631  1.00  0.00    -0.364 OA
HETATM    6  C11 UNL     1      20.859   1.135  53.361  1.00  0.00     0.224 A 
HETATM    7  C12 UNL     1      21.867   1.855  52.501  1.00  0.00     0.050 A 
HETATM    8  C13 UNL     1      23.092   1.378  52.643  1.00  0.00     0.044 A 
HETATM    9  C14 UNL     1      23.049   0.275  53.619  1.00  0.00     0.023 A 
HETATM   10  C15 UNL     1      24.065  -0.526  54.099  1.00  0.00     0.081 A 
HETATM   11  N4  UNL     1      23.725  -1.478  55.019  1.00  0.00    -0.240 NA
HETATM   12  C22 UNL     1      22.426  -1.596  55.416  1.00  0.00     0.234 A 
HETATM   13  N5  UNL     1      21.431  -0.806  54.942  1.00  0.00    -0.242 NA
HETATM   14  C23 UNL     1      21.719   0.143  54.037  1.00  0.00     0.083 A 
ENDROOT
BRANCH   1  15
HETATM   15  C8  UNL     1      22.081   3.998  51.279  1.00  0.00     0.134 C 
BRANCH  15  16
HETATM   16  C7  UNL     1      22.567   3.953  49.871  1.00  0.00     0.050 C 
BRANCH  16  17
HETATM   17  C6  UNL     1      23.910   3.303  49.716  1.00  0.00     0.277 C 
BRANCH  17  18
HETATM   18  N2  UNL     1      24.864   4.131  48.956  1.00  0.00     0.121 N 
HETATM   19  C1  UNL     1      26.176   3.768  49.463  1.00  0.00     0.451 C 
HETATM   20  C2  UNL     1      27.300   4.506  48.825  1.00  0.00     0.068 C 
HETATM   21  C3  UNL     1      27.106   5.987  48.851  1.00  0.00     0.006 C 
HETATM   22  C4  UNL     1      25.697   6.322  48.481  1.00  0.00     0.030 C 
HETATM   23  C5  UNL     1      24.673   5.538  49.253  1.00  0.00     0.275 C 
BRANCH  19  24
HETATM   24  N1  UNL     1      26.244   3.913  50.905  1.00  0.00     0.112 N 
HETATM   25  H1  UNL     1      27.231   4.191  51.128  1.00  0.00     0.315 HD
HETATM   26  H2  UNL     1      25.643   4.694  51.260  1.00  0.00     0.315 HD
ENDBRANCH  19  24
ENDBRANCH  17  18
ENDBRANCH  16  17
ENDBRANCH  15  16
ENDBRANCH   1  15
BRANCH  10  27
HETATM   27  C16 UNL     1      25.452  -0.380  53.663  1.00  0.00    -0.005 A 
HETATM   28  C17 UNL     1      26.194  -1.340  52.995  1.00  0.00     0.014 A 
HETATM   29  C18 UNL     1      27.505  -1.089  52.621  1.00  0.00     0.003 A 
HETATM   30  C19 UNL     1      28.120   0.119  52.896  1.00  0.00     0.024 A 
HETATM   31  C20 UNL     1      27.383   1.080  53.563  1.00  0.00     0.035 A 
HETATM   32 CL1  UNL     1      28.213   2.598  53.888  1.00  0.00    -0.084 Cl
HETATM   33  C21 UNL     1      26.074   0.819  53.932  1.00  0.00     0.037 A 
ENDBRANCH  10  27
TORSDOF 6
ENDMDL
MODEL 7
REMARK VINA RESULT:      -8.9      1.982      2.732
REMARK  6 active torsions:
REMARK  status: ('A' for Active; 'I' for Inactive)
REMARK    1  A    between atoms: N1_1  and  C1_2 
REMARK    2  A    between atoms: N2_7  and  C6_8 
REMARK    3  A    between atoms: C6_8  and  C7_9 
REMARK    4  A    between atoms: C7_9  and  C8_10 
REMARK    5  A    between atoms: C8_10  and  N3_11 
REMARK    6  A    between atoms: C15_20  and  C16_21 
ROOT
HETATM    1  N3  UNL     1      20.085   1.891  51.400  1.00  0.00    -0.317 N 
HETATM    2  C9  UNL     1      18.811   1.260  51.262  1.00  0.00     0.248 C 
HETATM    3  O1  UNL     1      17.871   2.006  50.888  1.00  0.00    -0.271 OA
HETATM    4  C10 UNL     1      18.755  -0.171  51.570  1.00  0.00     0.272 C 
HETATM    5  O2  UNL     1      19.460  -0.609  52.659  1.00  0.00    -0.364 OA
HETATM    6  C11 UNL     1      20.290   0.285  53.254  1.00  0.00     0.224 A 
HETATM    7  C12 UNL     1      21.000   1.162  52.253  1.00  0.00     0.050 A 
HETATM    8  C13 UNL     1      22.317   1.091  52.356  1.00  0.00     0.044 A 
HETATM    9  C14 UNL     1      22.647   0.151  53.442  1.00  0.00     0.023 A 
HETATM   10  C15 UNL     1      23.874  -0.249  53.928  1.00  0.00     0.081 A 
HETATM   11  N4  UNL     1      23.873  -1.140  54.964  1.00  0.00    -0.240 NA
HETATM   12  C22 UNL     1      22.687  -1.589  55.464  1.00  0.00     0.234 A 
HETATM   13  N5  UNL     1      21.483  -1.193  54.983  1.00  0.00    -0.242 NA
HETATM   14  C23 UNL     1      21.435  -0.317  53.966  1.00  0.00     0.083 A 
ENDROOT
BRANCH   1  15
HETATM   15  C8  UNL     1      20.510   3.107  50.802  1.00  0.00     0.134 C 
BRANCH  15  16
HETATM   16  C7  UNL     1      20.423   4.332  51.647  1.00  0.00     0.050 C 
BRANCH  16  17
HETATM   17  C6  UNL     1      21.686   5.140  51.670  1.00  0.00     0.277 C 
BRANCH  17  18
HETATM   18  N2  UNL     1      22.661   4.711  50.651  1.00  0.00     0.121 N 
HETATM   19  C1  UNL     1      23.955   4.768  51.309  1.00  0.00     0.451 C 
HETATM   20  C2  UNL     1      25.098   4.376  50.440  1.00  0.00     0.068 C 
HETATM   21  C3  UNL     1      25.120   5.123  49.146  1.00  0.00     0.006 C 
HETATM   22  C4  UNL     1      23.742   5.187  48.571  1.00  0.00     0.030 C 
HETATM   23  C5  UNL     1      22.705   5.658  49.553  1.00  0.00     0.275 C 
BRANCH  19  24
HETATM   24  N1  UNL     1      24.197   6.078  51.884  1.00  0.00     0.112 N 
HETATM   25  H1  UNL     1      23.360   6.665  51.645  1.00  0.00     0.315 HD
HETATM   26  H2  UNL     1      24.239   6.057  52.930  1.00  0.00     0.315 HD
ENDBRANCH  19  24
ENDBRANCH  17  18
ENDBRANCH  16  17
ENDBRANCH  15  16
ENDBRANCH   1  15
BRANCH  10  27
HETATM   27  C16 UNL     1      25.135   0.248  53.380  1.00  0.00    -0.005 A 
HETATM   28  C17 UNL     1      25.315   0.761  52.108  1.00  0.00     0.014 A 
HETATM   29  C18 UNL     1      26.560   1.213  51.695  1.00  0.00     0.003 A 
HETATM   30  C19 UNL     1      27.661   1.169  52.530  1.00  0.00     0.024 A 
HETATM   31  C20 UNL     1      27.486   0.657  53.802  1.00  0.00     0.035 A 
HETATM   32 CL1  UNL     1      28.919   0.624  54.823  1.00  0.00    -0.084 Cl
HETATM   33  C21 UNL     1      26.238   0.209  54.204  1.00  0.00     0.037 A 
ENDBRANCH  10  27
TORSDOF 6
ENDMDL
MODEL 8
REMARK VINA RESULT:      -8.7      1.654      2.082
REMARK  6 active torsions:
REMARK  status: ('A' for Active; 'I' for Inactive)
REMARK    1  A    between atoms: N1_1  and  C1_2 
REMARK    2  A    between atoms: N2_7  and  C6_8 
REMARK    3  A    between atoms: C6_8  and  C7_9 
REMARK    4  A    between atoms: C7_9  and  C8_10 
REMARK    5  A    between atoms: C8_10  and  N3_11 
REMARK    6  A    between atoms: C15_20  and  C16_21 
ROOT
HETATM    1  N3  UNL     1      23.759   3.936  50.526  1.00  0.00    -0.317 N 
HETATM    2  C9  UNL     1      22.496   4.207  49.917  1.00  0.00     0.248 C 
HETATM    3  O1  UNL     1      22.341   5.374  49.479  1.00  0.00    -0.271 OA
HETATM    4  C10 UNL     1      21.541   3.097  49.875  1.00  0.00     0.272 C 
HETATM    5  O2  UNL     1      21.446   2.306  50.988  1.00  0.00    -0.364 OA
HETATM    6  C11 UNL     1      22.365   2.507  51.967  1.00  0.00     0.224 A 
HETATM    7  C12 UNL     1      23.739   2.790  51.412  1.00  0.00     0.050 A 
HETATM    8  C13 UNL     1      24.650   1.936  51.845  1.00  0.00     0.044 A 
HETATM    9  C14 UNL     1      23.991   0.973  52.744  1.00  0.00     0.023 A 
HETATM   10  C15 UNL     1      24.518  -0.095  53.441  1.00  0.00     0.081 A 
HETATM   11  N4  UNL     1      23.656  -0.819  54.216  1.00  0.00    -0.240 NA
HETATM   12  C22 UNL     1      22.341  -0.466  54.268  1.00  0.00     0.234 A 
HETATM   13  N5  UNL     1      21.827   0.584  53.582  1.00  0.00    -0.242 NA
HETATM   14  C23 UNL     1      22.638   1.325  52.808  1.00  0.00     0.083 A 
ENDROOT
BRANCH   1  15
HETATM   15  C8  UNL     1      24.970   4.656  50.348  1.00  0.00     0.134 C 
BRANCH  15  16
HETATM   16  C7  UNL     1      25.775   4.321  49.139  1.00  0.00     0.050 C 
BRANCH  16  17
HETATM   17  C6  UNL     1      27.143   4.934  49.136  1.00  0.00     0.277 C 
BRANCH  17  18
HETATM   18  N2  UNL     1      27.233   6.135  48.285  1.00  0.00     0.121 N 
HETATM   19  C1  UNL     1      28.624   6.210  47.873  1.00  0.00     0.451 C 
HETATM   20  C2  UNL     1      28.938   7.374  47.000  1.00  0.00     0.068 C 
HETATM   21  C3  UNL     1      28.480   8.671  47.583  1.00  0.00     0.006 C 
HETATM   22  C4  UNL     1      27.104   8.519  48.146  1.00  0.00     0.030 C 
HETATM   23  C5  UNL     1      26.958   7.332  49.057  1.00  0.00     0.275 C 
BRANCH  19  24
HETATM   24  N1  UNL     1      29.516   6.195  49.017  1.00  0.00     0.112 N 
HETATM   25  H1  UNL     1      28.918   5.985  49.854  1.00  0.00     0.315 HD
HETATM   26  H2  UNL     1      30.219   5.422  48.969  1.00  0.00     0.315 HD
ENDBRANCH  19  24
ENDBRANCH  17  18
ENDBRANCH  16  17
ENDBRANCH  15  16
ENDBRANCH   1  15
BRANCH  10  27
HETATM   27  C16 UNL     1      25.933  -0.455  53.375  1.00  0.00    -0.005 A 
HETATM   28  C17 UNL     1      26.451  -1.587  52.770  1.00  0.00     0.014 A 
HETATM   29  C18 UNL     1      27.817  -1.823  52.760  1.00  0.00     0.003 A 
HETATM   30  C19 UNL     1      28.710  -0.947  53.348  1.00  0.00     0.024 A 
HETATM   31  C20 UNL     1      28.197   0.186  53.954  1.00  0.00     0.035 A 
HETATM   32 CL1  UNL     1      29.377   1.268  54.686  1.00  0.00    -0.084 Cl
HETATM   33  C21 UNL     1      26.831   0.413  53.957  1.00  0.00     0.037 A 
ENDBRANCH  10  27
TORSDOF 6
ENDMDL
MODEL 9
REMARK VINA RESULT:      -8.6      2.673      7.937
REMARK  6 active torsions:
REMARK  status: ('A' for Active; 'I' for Inactive)
REMARK    1  A    between atoms: N1_1  and  C1_2 
REMARK    2  A    between atoms: N2_7  and  C6_8 
REMARK    3  A    between atoms: C6_8  and  C7_9 
REMARK    4  A    between atoms: C7_9  and  C8_10 
REMARK    5  A    between atoms: C8_10  and  N3_11 
REMARK    6  A    between atoms: C15_20  and  C16_21 
ROOT
HETATM    1  N3  UNL     1      24.419   3.325  51.226  1.00  0.00    -0.317 N 
HETATM    2  C9  UNL     1      23.099   3.445  51.756  1.00  0.00     0.248 C 
HETATM    3  O1  UNL     1      22.609   2.395  52.243  1.00  0.00    -0.271 OA
HETATM    4  C10 UNL     1      22.479   4.770  51.671  1.00  0.00     0.272 C 
HETATM    5  O2  UNL     1      22.664   5.477  50.514  1.00  0.00    -0.364 OA
HETATM    6  C11 UNL     1      23.547   4.970  49.616  1.00  0.00     0.224 A 
HETATM    7  C12 UNL     1      24.759   4.370  50.282  1.00  0.00     0.050 A 
HETATM    8  C13 UNL     1      25.891   4.917  49.871  1.00  0.00     0.044 A 
HETATM    9  C14 UNL     1      25.568   5.956  48.877  1.00  0.00     0.023 A 
HETATM   10  C15 UNL     1      26.402   6.792  48.165  1.00  0.00     0.081 A 
HETATM   11  N4  UNL     1      25.813   7.664  47.293  1.00  0.00    -0.240 NA
HETATM   12  C22 UNL     1      24.455   7.673  47.165  1.00  0.00     0.234 A 
HETATM   13  N5  UNL     1      23.639   6.848  47.867  1.00  0.00    -0.242 NA
HETATM   14  C23 UNL     1      24.175   5.975  48.735  1.00  0.00     0.083 A 
ENDROOT
BRANCH   1  15
HETATM   15  C8  UNL     1      25.378   2.322  51.528  1.00  0.00     0.134 C 
BRANCH  15  16
HETATM   16  C7  UNL     1      25.443   1.865  52.946  1.00  0.00     0.050 C 
BRANCH  16  17
HETATM   17  C6  UNL     1      26.795   2.033  53.572  1.00  0.00     0.277 C 
BRANCH  17  18
HETATM   18  N2  UNL     1      27.769   1.025  53.115  1.00  0.00     0.121 N 
HETATM   19  C1  UNL     1      27.201  -0.257  53.494  1.00  0.00     0.451 C 
HETATM   20  C2  UNL     1      28.042  -1.428  53.128  1.00  0.00     0.068 C 
HETATM   21  C3  UNL     1      29.449  -1.301  53.613  1.00  0.00     0.006 C 
HETATM   22  C4  UNL     1      29.954   0.082  53.355  1.00  0.00     0.030 C 
HETATM   23  C5  UNL     1      29.021   1.159  53.835  1.00  0.00     0.275 C 
BRANCH  19  24
HETATM   24  N1  UNL     1      26.886  -0.297  54.910  1.00  0.00     0.112 N 
HETATM   25  H1  UNL     1      27.692  -0.779  55.378  1.00  0.00     0.315 HD
HETATM   26  H2  UNL     1      26.838   0.656  55.340  1.00  0.00     0.315 HD
ENDBRANCH  19  24
ENDBRANCH  17  18
ENDBRANCH  16  17
ENDBRANCH  15  16
ENDBRANCH   1  15
BRANCH  10  27
HETATM   27  C16 UNL     1      27.855   6.764  48.314  1.00  0.00    -0.005 A 
HETATM   28  C17 UNL     1      28.664   5.654  48.143  1.00  0.00     0.014 A 
HETATM   29  C18 UNL     1      30.038   5.745  48.303  1.00  0.00     0.003 A 
HETATM   30  C19 UNL     1      30.652   6.938  48.636  1.00  0.00     0.024 A 
HETATM   31  C20 UNL     1      29.849   8.051  48.808  1.00  0.00     0.035 A 
HETATM   32 CL1  UNL     1      30.681   9.543  49.231  1.00  0.00    -0.084 Cl
HETATM   33  C21 UNL     1      28.477   7.948  48.645  1.00  0.00     0.037 A 
ENDBRANCH  10  27
TORSDOF 6
ENDMDL
