MODEL 1
REMARK VINA RESULT:     -10.0      0.000      0.000
REMARK  0 active torsions:
REMARK  status: ('A' for Active; 'I' for Inactive)
ROOT
HETATM    1  C1  UNL     1      23.453   8.460  47.823  1.00  0.00     0.043 C 
HETATM    2  C2  UNL     1      24.248   7.253  48.177  1.00  0.00    -0.081 C 
HETATM    3  C3  UNL     1      23.629   6.201  48.694  1.00  0.00     0.041 C 
HETATM    4  C4  UNL     1      24.144   4.898  49.130  1.00  0.00     0.098 C 
HETATM    5  C5  UNL     1      25.404   4.518  49.238  1.00  0.00     0.080 C 
HETATM    6  C6  UNL     1      26.631   5.292  48.950  1.00  0.00     0.068 C 
HETATM    7  C7  UNL     1      26.388   6.753  49.170  1.00  0.00     0.011 C 
HETATM    8  C8  UNL     1      25.719   7.326  47.913  1.00  0.00     0.034 C 
HETATM    9  O1  UNL     1      25.473   3.201  49.691  1.00  0.00    -0.346 OA
HETATM   10  C9  UNL     1      26.508   2.789  50.586  1.00  0.00     0.239 C 
HETATM   11  C10 UNL     1      25.798   1.892  51.563  1.00  0.00     0.071 C 
HETATM   12  C11 UNL     1      24.514   1.536  51.615  1.00  0.00     0.041 C 
HETATM   13  C12 UNL     1      23.422   0.784  52.285  1.00  0.00    -0.054 C 
HETATM   14  C13 UNL     1      22.150   0.817  51.772  1.00  0.00    -0.013 C 
HETATM   15  C14 UNL     1      22.207   1.686  50.546  1.00  0.00     0.044 C 
HETATM   16  C15 UNL     1      21.093   1.935  49.787  1.00  0.00    -0.017 C 
HETATM   17  C16 UNL     1      21.213   2.793  48.588  1.00  0.00     0.028 C 
HETATM   18  C17 UNL     1      22.620   3.275  48.370  1.00  0.00     0.176 C 
HETATM   19  O2  UNL     1      23.007   4.124  49.410  1.00  0.00    -0.349 OA
HETATM   20  C18 UNL     1      24.117   0.094  53.371  1.00  0.00     0.057 C 
HETATM   21  C19 UNL     1      24.087  -0.800  54.405  1.00  0.00    -0.001 C 
HETATM   22  C20 UNL     1      25.384  -0.947  55.115  1.00  0.00     0.122 C 
HETATM   23  N1  UNL     1      26.353  -0.064  54.436  1.00  0.00    -0.377 N 
HETATM   24  C21 UNL     1      27.587   0.719  54.343  1.00  0.00     0.116 C 
HETATM   25  N2  UNL     1      28.151  -0.230  55.003  1.00  0.00    -0.286 NA
HETATM   26  C22 UNL     1      27.263   2.018  53.561  1.00  0.00     0.253 C 
HETATM   27  O3  UNL     1      26.754   1.514  52.377  1.00  0.00    -0.346 OA
HETATM   28  H25 UNL     1      26.014   0.007  53.454  1.00  0.00     0.160 HD
HETATM   29  H26 UNL     1      29.171  -0.203  55.260  1.00  0.00     0.188 HD
ENDROOT
TORSDOF 0
ENDMDL
MODEL 2
REMARK VINA RESULT:      -9.8      3.899      7.249
REMARK  0 active torsions:
REMARK  status: ('A' for Active; 'I' for Inactive)
ROOT
HETATM    1  C1  UNL     1      27.808  -2.448  52.842  1.00  0.00     0.043 C 
HETATM    2  C2  UNL     1      27.086  -1.156  52.993  1.00  0.00    -0.081 C 
HETATM    3  C3  UNL     1      25.760  -1.157  53.017  1.00  0.00     0.041 C 
HETATM    4  C4  UNL     1      24.799  -0.056  53.153  1.00  0.00     0.098 C 
HETATM    5  C5  UNL     1      25.043   1.242  53.143  1.00  0.00     0.080 C 
HETATM    6  C6  UNL     1      26.339   1.937  52.996  1.00  0.00     0.068 C 
HETATM    7  C7  UNL     1      27.286   1.107  52.184  1.00  0.00     0.011 C 
HETATM    8  C8  UNL     1      27.935   0.070  53.111  1.00  0.00     0.034 C 
HETATM    9  O1  UNL     1      23.856   1.957  53.296  1.00  0.00    -0.346 OA
HETATM   10  C9  UNL     1      23.650   3.189  52.604  1.00  0.00     0.239 C 
HETATM   11  C10 UNL     1      22.217   3.110  52.152  1.00  0.00     0.071 C 
HETATM   12  C11 UNL     1      21.319   2.143  52.335  1.00  0.00     0.041 C 
HETATM   13  C12 UNL     1      19.946   1.615  52.122  1.00  0.00    -0.054 C 
HETATM   14  C13 UNL     1      19.589   0.399  52.645  1.00  0.00    -0.013 C 
HETATM   15  C14 UNL     1      20.796  -0.125  53.374  1.00  0.00     0.044 C 
HETATM   16  C15 UNL     1      20.782  -1.334  54.018  1.00  0.00    -0.017 C 
HETATM   17  C16 UNL     1      21.999  -1.793  54.722  1.00  0.00     0.028 C 
HETATM   18  C17 UNL     1      23.122  -0.797  54.627  1.00  0.00     0.176 C 
HETATM   19  O2  UNL     1      23.547  -0.674  53.301  1.00  0.00    -0.349 OA
HETATM   20  C18 UNL     1      19.287   2.701  51.398  1.00  0.00     0.057 C 
HETATM   21  C19 UNL     1      18.150   3.229  50.851  1.00  0.00    -0.001 C 
HETATM   22  C20 UNL     1      18.350   4.548  50.197  1.00  0.00     0.122 C 
HETATM   23  N1  UNL     1      19.771   4.908  50.371  1.00  0.00    -0.377 N 
HETATM   24  C21 UNL     1      20.999   5.635  50.044  1.00  0.00     0.116 C 
HETATM   25  N2  UNL     1      20.248   6.655  49.823  1.00  0.00    -0.286 NA
HETATM   26  C22 UNL     1      22.188   4.653  50.210  1.00  0.00     0.253 C 
HETATM   27  O3  UNL     1      22.034   4.247  51.524  1.00  0.00    -0.346 OA
HETATM   28  H25 UNL     1      20.068   4.427  51.246  1.00  0.00     0.160 HD
HETATM   29  H26 UNL     1      20.639   7.583  49.519  1.00  0.00     0.188 HD
ENDROOT
TORSDOF 0
ENDMDL
MODEL 3
REMARK VINA RESULT:      -9.8      3.866      6.158
REMARK  0 active torsions:
REMARK  status: ('A' for Active; 'I' for Inactive)
ROOT
HETATM    1  C1  UNL     1      27.168   4.358  48.958  1.00  0.00     0.043 C 
HETATM    2  C2  UNL     1      25.881   4.466  49.697  1.00  0.00    -0.081 C 
HETATM    3  C3  UNL     1      25.426   3.410  50.358  1.00  0.00     0.041 C 
HETATM    4  C4  UNL     1      24.212   3.227  51.162  1.00  0.00     0.098 C 
HETATM    5  C5  UNL     1      23.195   4.058  51.298  1.00  0.00     0.080 C 
HETATM    6  C6  UNL     1      23.002   5.390  50.687  1.00  0.00     0.068 C 
HETATM    7  C7  UNL     1      23.711   5.467  49.369  1.00  0.00     0.011 C 
HETATM    8  C8  UNL     1      25.188   5.790  49.635  1.00  0.00     0.034 C 
HETATM    9  O1  UNL     1      22.234   3.509  52.147  1.00  0.00    -0.346 OA
HETATM   10  C9  UNL     1      20.842   3.717  51.907  1.00  0.00     0.239 C 
HETATM   11  C10 UNL     1      20.225   2.376  52.199  1.00  0.00     0.071 C 
HETATM   12  C11 UNL     1      20.803   1.241  52.594  1.00  0.00     0.041 C 
HETATM   13  C12 UNL     1      20.683  -0.191  52.968  1.00  0.00    -0.054 C 
HETATM   14  C13 UNL     1      21.797  -0.899  53.341  1.00  0.00    -0.013 C 
HETATM   15  C14 UNL     1      22.955   0.058  53.272  1.00  0.00     0.044 C 
HETATM   16  C15 UNL     1      24.232  -0.332  53.582  1.00  0.00    -0.017 C 
HETATM   17  C16 UNL     1      25.328   0.657  53.500  1.00  0.00     0.028 C 
HETATM   18  C17 UNL     1      24.841   2.015  53.078  1.00  0.00     0.176 C 
HETATM   19  O2  UNL     1      24.355   1.969  51.768  1.00  0.00    -0.349 OA
HETATM   20  C18 UNL     1      19.242  -0.431  52.891  1.00  0.00     0.057 C 
HETATM   21  C19 UNL     1      18.177  -1.267  53.082  1.00  0.00    -0.001 C 
HETATM   22  C20 UNL     1      16.869  -0.679  52.695  1.00  0.00     0.122 C 
HETATM   23  N1  UNL     1      17.132   0.696  52.229  1.00  0.00    -0.377 N 
HETATM   24  C21 UNL     1      16.816   1.929  51.504  1.00  0.00     0.116 C 
HETATM   25  N2  UNL     1      15.601   1.754  51.886  1.00  0.00    -0.286 NA
HETATM   26  C22 UNL     1      18.132   2.455  50.872  1.00  0.00     0.253 C 
HETATM   27  O3  UNL     1      18.947   2.576  51.983  1.00  0.00    -0.346 OA
HETATM   28  H25 UNL     1      17.994   0.994  52.733  1.00  0.00     0.160 HD
HETATM   29  H26 UNL     1      14.831   2.421  51.625  1.00  0.00     0.188 HD
ENDROOT
TORSDOF 0
ENDMDL
MODEL 4
REMARK VINA RESULT:      -9.3      3.055      5.117
REMARK  0 active torsions:
REMARK  status: ('A' for Active; 'I' for Inactive)
ROOT
HETATM    1  C1  UNL     1      15.985   4.332  51.257  1.00  0.00     0.043 C 
HETATM    2  C2  UNL     1      17.325   3.823  50.855  1.00  0.00    -0.081 C 
HETATM    3  C3  UNL     1      17.892   2.863  51.573  1.00  0.00     0.041 C 
HETATM    4  C4  UNL     1      19.181   2.178  51.417  1.00  0.00     0.098 C 
HETATM    5  C5  UNL     1      20.160   2.470  50.580  1.00  0.00     0.080 C 
HETATM    6  C6  UNL     1      20.226   3.554  49.577  1.00  0.00     0.068 C 
HETATM    7  C7  UNL     1      19.400   4.723  50.018  1.00  0.00     0.011 C 
HETATM    8  C8  UNL     1      17.936   4.449  49.643  1.00  0.00     0.034 C 
HETATM    9  O1  UNL     1      21.220   1.579  50.749  1.00  0.00    -0.346 OA
HETATM   10  C9  UNL     1      22.572   2.021  50.625  1.00  0.00     0.239 C 
HETATM   11  C10 UNL     1      23.283   1.310  51.744  1.00  0.00     0.071 C 
HETATM   12  C11 UNL     1      22.805   0.461  52.653  1.00  0.00     0.041 C 
HETATM   13  C12 UNL     1      23.035  -0.411  53.834  1.00  0.00    -0.054 C 
HETATM   14  C13 UNL     1      21.998  -1.135  54.365  1.00  0.00    -0.013 C 
HETATM   15  C14 UNL     1      20.788  -0.829  53.526  1.00  0.00     0.044 C 
HETATM   16  C15 UNL     1      19.567  -1.392  53.789  1.00  0.00    -0.017 C 
HETATM   17  C16 UNL     1      18.415  -1.056  52.923  1.00  0.00     0.028 C 
HETATM   18  C17 UNL     1      18.789  -0.106  51.820  1.00  0.00     0.176 C 
HETATM   19  O2  UNL     1      19.160   1.132  52.352  1.00  0.00    -0.349 OA
HETATM   20  C18 UNL     1      24.474  -0.283  54.062  1.00  0.00     0.057 C 
HETATM   21  C19 UNL     1      25.595  -0.665  54.745  1.00  0.00    -0.001 C 
HETATM   22  C20 UNL     1      26.830   0.046  54.327  1.00  0.00     0.122 C 
HETATM   23  N1  UNL     1      26.453   0.966  53.236  1.00  0.00    -0.377 N 
HETATM   24  C21 UNL     1      26.637   2.130  52.366  1.00  0.00     0.116 C 
HETATM   25  N2  UNL     1      27.889   1.837  52.363  1.00  0.00    -0.286 NA
HETATM   26  C22 UNL     1      25.244   2.776  52.142  1.00  0.00     0.253 C 
HETATM   27  O3  UNL     1      24.525   1.716  51.620  1.00  0.00    -0.346 OA
HETATM   28  H25 UNL     1      25.624   0.526  52.784  1.00  0.00     0.160 HD
HETATM   29  H26 UNL     1      28.596   2.407  51.832  1.00  0.00     0.188 HD
ENDROOT
TORSDOF 0
ENDMDL
MODEL 5
REMARK VINA RESULT:      -9.1      2.049      4.393
REMARK  0 active torsions:
REMARK  status: ('A' for Active; 'I' for Inactive)
ROOT
HETATM    1  C1  UNL     1      21.308   4.739  44.897  1.00  0.00     0.043 C 
HETATM    2  C2  UNL     1      21.197   4.491  46.360  1.00  0.00    -0.081 C 
HETATM    3  C3  UNL     1      22.295   4.222  47.053  1.00  0.00     0.041 C 
HETATM    4  C4  UNL     1      22.487   3.941  48.481  1.00  0.00     0.098 C 
HETATM    5  C5  UNL     1      21.562   3.749  49.403  1.00  0.00     0.080 C 
HETATM    6  C6  UNL     1      20.091   3.766  49.254  1.00  0.00     0.068 C 
HETATM    7  C7  UNL     1      19.703   3.347  47.869  1.00  0.00     0.011 C 
HETATM    8  C8  UNL     1      19.823   4.567  46.944  1.00  0.00     0.034 C 
HETATM    9  O1  UNL     1      22.158   3.504  50.640  1.00  0.00    -0.346 OA
HETATM   10  C9  UNL     1      21.583   2.572  51.556  1.00  0.00     0.239 C 
HETATM   11  C10 UNL     1      22.773   1.838  52.112  1.00  0.00     0.071 C 
HETATM   12  C11 UNL     1      24.070   1.992  51.844  1.00  0.00     0.041 C 
HETATM   13  C12 UNL     1      25.480   1.582  52.070  1.00  0.00    -0.054 C 
HETATM   14  C13 UNL     1      26.496   2.227  51.413  1.00  0.00    -0.013 C 
HETATM   15  C14 UNL     1      25.851   3.286  50.561  1.00  0.00     0.044 C 
HETATM   16  C15 UNL     1      26.591   4.120  49.765  1.00  0.00    -0.017 C 
HETATM   17  C16 UNL     1      25.900   5.145  48.954  1.00  0.00     0.028 C 
HETATM   18  C17 UNL     1      24.410   5.120  49.152  1.00  0.00     0.176 C 
HETATM   19  O2  UNL     1      23.879   3.920  48.670  1.00  0.00    -0.349 OA
HETATM   20  C18 UNL     1      25.360   0.546  53.095  1.00  0.00     0.057 C 
HETATM   21  C19 UNL     1      25.959  -0.324  53.964  1.00  0.00    -0.001 C 
HETATM   22  C20 UNL     1      25.004  -1.148  54.750  1.00  0.00     0.122 C 
HETATM   23  N1  UNL     1      23.644  -0.734  54.352  1.00  0.00    -0.377 N 
HETATM   24  C21 UNL     1      22.197  -0.910  54.215  1.00  0.00     0.116 C 
HETATM   25  N2  UNL     1      22.230  -1.472  55.371  1.00  0.00    -0.286 NA
HETATM   26  C22 UNL     1      21.776  -0.310  52.847  1.00  0.00     0.253 C 
HETATM   27  O3  UNL     1      22.238   0.989  52.957  1.00  0.00    -0.346 OA
HETATM   28  H25 UNL     1      23.740   0.257  54.047  1.00  0.00     0.160 HD
HETATM   29  H26 UNL     1      21.365  -1.847  55.837  1.00  0.00     0.188 HD
ENDROOT
TORSDOF 0
ENDMDL
MODEL 6
REMARK VINA RESULT:      -9.0      2.901      6.296
REMARK  0 active torsions:
REMARK  status: ('A' for Active; 'I' for Inactive)
ROOT
HETATM    1  C1  UNL     1      15.951  -0.645  49.381  1.00  0.00     0.043 C 
HETATM    2  C2  UNL     1      16.939  -0.271  50.429  1.00  0.00    -0.081 C 
HETATM    3  C3  UNL     1      18.018   0.418  50.082  1.00  0.00     0.041 C 
HETATM    4  C4  UNL     1      19.140   0.917  50.885  1.00  0.00     0.098 C 
HETATM    5  C5  UNL     1      19.407   0.666  52.154  1.00  0.00     0.080 C 
HETATM    6  C6  UNL     1      18.655  -0.179  53.106  1.00  0.00     0.068 C 
HETATM    7  C7  UNL     1      17.941  -1.276  52.378  1.00  0.00     0.011 C 
HETATM    8  C8  UNL     1      16.626  -0.712  51.824  1.00  0.00     0.034 C 
HETATM    9  O1  UNL     1      20.570   1.329  52.542  1.00  0.00    -0.346 OA
HETATM   10  C9  UNL     1      21.486   0.725  53.456  1.00  0.00     0.239 C 
HETATM   11  C10 UNL     1      22.837   1.066  52.887  1.00  0.00     0.071 C 
HETATM   12  C11 UNL     1      23.148   1.766  51.796  1.00  0.00     0.041 C 
HETATM   13  C12 UNL     1      24.182   2.324  50.886  1.00  0.00    -0.054 C 
HETATM   14  C13 UNL     1      23.809   3.066  49.796  1.00  0.00    -0.013 C 
HETATM   15  C14 UNL     1      22.307   3.131  49.816  1.00  0.00     0.044 C 
HETATM   16  C15 UNL     1      21.601   3.804  48.853  1.00  0.00    -0.017 C 
HETATM   17  C16 UNL     1      20.124   3.837  48.930  1.00  0.00     0.028 C 
HETATM   18  C17 UNL     1      19.600   3.097  50.128  1.00  0.00     0.176 C 
HETATM   19  O2  UNL     1      19.883   1.733  50.017  1.00  0.00    -0.349 OA
HETATM   20  C18 UNL     1      25.434   1.934  51.535  1.00  0.00     0.057 C 
HETATM   21  C19 UNL     1      26.799   1.989  51.585  1.00  0.00    -0.001 C 
HETATM   22  C20 UNL     1      27.396   1.204  52.696  1.00  0.00     0.122 C 
HETATM   23  N1  UNL     1      26.280   0.604  53.452  1.00  0.00    -0.377 N 
HETATM   24  C21 UNL     1      25.675  -0.364  54.370  1.00  0.00     0.116 C 
HETATM   25  N2  UNL     1      26.755  -0.269  55.063  1.00  0.00    -0.286 NA
HETATM   26  C22 UNL     1      24.274  -0.729  53.815  1.00  0.00     0.253 C 
HETATM   27  O3  UNL     1      23.672   0.514  53.734  1.00  0.00    -0.346 OA
HETATM   28  H25 UNL     1      25.476   1.250  53.308  1.00  0.00     0.160 HD
HETATM   29  H26 UNL     1      26.899  -0.814  55.951  1.00  0.00     0.188 HD
ENDROOT
TORSDOF 0
ENDMDL
MODEL 7
REMARK VINA RESULT:      -8.7      4.786      7.802
REMARK  0 active torsions:
REMARK  status: ('A' for Active; 'I' for Inactive)
ROOT
HETATM    1  C1  UNL     1      31.146  12.151  45.368  1.00  0.00     0.043 C 
HETATM    2  C2  UNL     1      30.318  11.733  46.532  1.00  0.00    -0.081 C 
HETATM    3  C3  UNL     1      30.090  10.442  46.730  1.00  0.00     0.041 C 
HETATM    4  C4  UNL     1      29.326   9.749  47.774  1.00  0.00     0.098 C 
HETATM    5  C5  UNL     1      28.552  10.280  48.703  1.00  0.00     0.080 C 
HETATM    6  C6  UNL     1      28.246  11.706  48.946  1.00  0.00     0.068 C 
HETATM    7  C7  UNL     1      28.326  12.482  47.667  1.00  0.00     0.011 C 
HETATM    8  C8  UNL     1      29.798  12.830  47.405  1.00  0.00     0.034 C 
HETATM    9  O1  UNL     1      28.000   9.279  49.501  1.00  0.00    -0.346 OA
HETATM   10  C9  UNL     1      26.667   9.393  49.999  1.00  0.00     0.239 C 
HETATM   11  C10 UNL     1      26.107   8.005  49.845  1.00  0.00     0.071 C 
HETATM   12  C11 UNL     1      26.684   6.903  49.366  1.00  0.00     0.041 C 
HETATM   13  C12 UNL     1      26.597   5.460  49.024  1.00  0.00    -0.054 C 
HETATM   14  C13 UNL     1      27.689   4.810  48.506  1.00  0.00    -0.013 C 
HETATM   15  C14 UNL     1      28.792   5.828  48.422  1.00  0.00     0.044 C 
HETATM   16  C15 UNL     1      30.035   5.507  47.940  1.00  0.00    -0.017 C 
HETATM   17  C16 UNL     1      31.081   6.551  47.887  1.00  0.00     0.028 C 
HETATM   18  C17 UNL     1      30.595   7.873  48.412  1.00  0.00     0.176 C 
HETATM   19  O2  UNL     1      29.592   8.384  47.583  1.00  0.00    -0.349 OA
HETATM   20  C18 UNL     1      25.247   5.101  49.455  1.00  0.00     0.057 C 
HETATM   21  C19 UNL     1      24.291   4.143  49.652  1.00  0.00    -0.001 C 
HETATM   22  C20 UNL     1      23.007   4.670  50.183  1.00  0.00     0.122 C 
HETATM   23  N1  UNL     1      23.178   6.124  50.368  1.00  0.00    -0.377 N 
HETATM   24  C21 UNL     1      22.703   7.500  50.528  1.00  0.00     0.116 C 
HETATM   25  N2  UNL     1      21.759   7.012  51.250  1.00  0.00    -0.286 NA
HETATM   26  C22 UNL     1      23.665   8.426  49.737  1.00  0.00     0.253 C 
HETATM   27  O3  UNL     1      24.886   8.117  50.310  1.00  0.00    -0.346 OA
HETATM   28  H25 UNL     1      24.197   6.259  50.536  1.00  0.00     0.160 HD
HETATM   29  H26 UNL     1      21.020   7.618  51.690  1.00  0.00     0.188 HD
ENDROOT
TORSDOF 0
ENDMDL
MODEL 8
REMARK VINA RESULT:      -8.6      2.232      3.267
REMARK  0 active torsions:
REMARK  status: ('A' for Active; 'I' for Inactive)
ROOT
HETATM    1  C1  UNL     1      27.821  10.809  48.923  1.00  0.00     0.043 C 
HETATM    2  C2  UNL     1      27.606   9.347  48.751  1.00  0.00    -0.081 C 
HETATM    3  C3  UNL     1      26.546   8.780  49.312  1.00  0.00     0.041 C 
HETATM    4  C4  UNL     1      26.086   7.387  49.311  1.00  0.00     0.098 C 
HETATM    5  C5  UNL     1      26.718   6.322  48.852  1.00  0.00     0.080 C 
HETATM    6  C6  UNL     1      28.051   6.242  48.216  1.00  0.00     0.068 C 
HETATM    7  C7  UNL     1      28.938   7.337  48.726  1.00  0.00     0.011 C 
HETATM    8  C8  UNL     1      28.627   8.617  47.937  1.00  0.00     0.034 C 
HETATM    9  O1  UNL     1      25.942   5.180  49.043  1.00  0.00    -0.346 OA
HETATM   10  C9  UNL     1      26.548   3.932  49.381  1.00  0.00     0.239 C 
HETATM   11  C10 UNL     1      25.622   3.355  50.418  1.00  0.00     0.071 C 
HETATM   12  C11 UNL     1      24.494   3.854  50.924  1.00  0.00     0.041 C 
HETATM   13  C12 UNL     1      23.343   3.725  51.855  1.00  0.00    -0.054 C 
HETATM   14  C13 UNL     1      22.384   4.704  51.902  1.00  0.00    -0.013 C 
HETATM   15  C14 UNL     1      22.788   5.747  50.895  1.00  0.00     0.044 C 
HETATM   16  C15 UNL     1      22.040   6.876  50.687  1.00  0.00    -0.017 C 
HETATM   17  C16 UNL     1      22.486   7.862  49.679  1.00  0.00     0.028 C 
HETATM   18  C17 UNL     1      23.755   7.441  48.992  1.00  0.00     0.176 C 
HETATM   19  O2  UNL     1      24.814   7.416  49.905  1.00  0.00    -0.349 OA
HETATM   20  C18 UNL     1      23.558   2.412  52.461  1.00  0.00     0.057 C 
HETATM   21  C19 UNL     1      23.118   1.408  53.279  1.00  0.00    -0.001 C 
HETATM   22  C20 UNL     1      24.054   0.259  53.385  1.00  0.00     0.122 C 
HETATM   23  N1  UNL     1      25.208   0.558  52.513  1.00  0.00    -0.377 N 
HETATM   24  C21 UNL     1      26.589   0.406  52.052  1.00  0.00     0.116 C 
HETATM   25  N2  UNL     1      26.451  -0.850  52.286  1.00  0.00    -0.286 NA
HETATM   26  C22 UNL     1      27.113   1.813  51.662  1.00  0.00     0.253 C 
HETATM   27  O3  UNL     1      26.181   2.208  50.719  1.00  0.00    -0.346 OA
HETATM   28  H25 UNL     1      24.831   1.182  51.769  1.00  0.00     0.160 HD
HETATM   29  H26 UNL     1      27.227  -1.540  52.117  1.00  0.00     0.188 HD
ENDROOT
TORSDOF 0
ENDMDL
MODEL 9
REMARK VINA RESULT:      -8.4      3.235      5.475
REMARK  0 active torsions:
REMARK  status: ('A' for Active; 'I' for Inactive)
ROOT
HETATM    1  C1  UNL     1      25.273  10.378  44.507  1.00  0.00     0.043 C 
HETATM    2  C2  UNL     1      24.820   9.929  45.851  1.00  0.00    -0.081 C 
HETATM    3  C3  UNL     1      25.303   8.800  46.351  1.00  0.00     0.041 C 
HETATM    4  C4  UNL     1      25.044   8.123  47.628  1.00  0.00     0.098 C 
HETATM    5  C5  UNL     1      24.136   8.425  48.537  1.00  0.00     0.080 C 
HETATM    6  C6  UNL     1      23.141   9.518  48.522  1.00  0.00     0.068 C 
HETATM    7  C7  UNL     1      22.766   9.862  47.113  1.00  0.00     0.011 C 
HETATM    8  C8  UNL     1      23.833  10.810  46.548  1.00  0.00     0.034 C 
HETATM    9  O1  UNL     1      24.211   7.534  49.607  1.00  0.00    -0.346 OA
HETATM   10  C9  UNL     1      23.028   7.100  50.281  1.00  0.00     0.239 C 
HETATM   11  C10 UNL     1      23.269   5.633  50.515  1.00  0.00     0.071 C 
HETATM   12  C11 UNL     1      24.320   4.880  50.191  1.00  0.00     0.041 C 
HETATM   13  C12 UNL     1      24.986   3.553  50.179  1.00  0.00    -0.054 C 
HETATM   14  C13 UNL     1      26.239   3.418  49.638  1.00  0.00    -0.013 C 
HETATM   15  C14 UNL     1      26.649   4.785  49.163  1.00  0.00     0.044 C 
HETATM   16  C15 UNL     1      27.861   5.007  48.563  1.00  0.00    -0.017 C 
HETATM   17  C16 UNL     1      28.209   6.375  48.122  1.00  0.00     0.028 C 
HETATM   18  C17 UNL     1      27.123   7.367  48.430  1.00  0.00     0.176 C 
HETATM   19  O2  UNL     1      25.976   7.075  47.687  1.00  0.00    -0.349 OA
HETATM   20  C18 UNL     1      24.034   2.701  50.890  1.00  0.00     0.057 C 
HETATM   21  C19 UNL     1      23.723   1.487  51.437  1.00  0.00    -0.001 C 
HETATM   22  C20 UNL     1      22.369   1.427  52.047  1.00  0.00     0.122 C 
HETATM   23  N1  UNL     1      21.764   2.765  51.892  1.00  0.00    -0.377 N 
HETATM   24  C21 UNL     1      20.648   3.711  51.834  1.00  0.00     0.116 C 
HETATM   25  N2  UNL     1      20.118   3.029  52.787  1.00  0.00    -0.286 NA
HETATM   26  C22 UNL     1      20.962   4.744  50.721  1.00  0.00     0.253 C 
HETATM   27  O3  UNL     1      22.183   5.244  51.139  1.00  0.00    -0.346 OA
HETATM   28  H25 UNL     1      22.569   3.425  51.860  1.00  0.00     0.160 HD
HETATM   29  H26 UNL     1      19.186   3.282  53.205  1.00  0.00     0.188 HD
ENDROOT
TORSDOF 0
ENDMDL
