MODEL 1
REMARK VINA RESULT:      -7.7      0.000      0.000
REMARK  7 active torsions:
REMARK  status: ('A' for Active; 'I' for Inactive)
REMARK    1  A    between atoms: N1_2  and  C2_3 
REMARK    2  A    between atoms: C2_3  and  C3_4 
REMARK    3  A    between atoms: C3_4  and  O1_5 
REMARK    4  A    between atoms: O1_5  and  C4_6 
REMARK    5  A    between atoms: C7_9  and  N2_10 
REMARK    6  A    between atoms: N2_10  and  C8_11 
REMARK    7  A    between atoms: C17_24  and  O2_25 
ROOT
HETATM    1  C4  UNL     1      26.758   1.946  52.176  1.00  0.00     0.103 A 
HETATM    2  C5  UNL     1      25.847   1.210  52.801  1.00  0.00     0.054 A 
HETATM    3  C6  UNL     1      24.500   1.239  52.282  1.00  0.00     0.012 A 
HETATM    4  C7  UNL     1      23.647   0.438  52.945  1.00  0.00     0.102 C 
HETATM    5  C14 UNL     1      24.061   2.010  51.133  1.00  0.00     0.083 A 
HETATM    6  N3  UNL     1      22.839   1.989  50.713  1.00  0.00    -0.173 NA
HETATM    7  C15 UNL     1      22.553   2.794  49.582  1.00  0.00     0.206 C 
HETATM    8  N4  UNL     1      22.322   3.448  48.631  1.00  0.00    -0.170 NA
HETATM    9  C16 UNL     1      25.158   2.802  50.505  1.00  0.00     0.073 A 
HETATM   10  C17 UNL     1      26.393   2.734  51.031  1.00  0.00     0.103 A 
ENDROOT
BRANCH   4  11
HETATM   11  N2  UNL     1      22.303   0.263  52.672  1.00  0.00    -0.365 N 
HETATM   12  H11 UNL     1      22.239   1.147  53.243  1.00  0.00     0.165 HD
BRANCH  11  13
HETATM   13  C8  UNL     1      20.970   0.078  52.392  1.00  0.00     0.033 A 
HETATM   14  C9  UNL     1      20.412  -0.606  53.488  1.00  0.00     0.032 A 
HETATM   15  C10 UNL     1      19.062  -0.945  53.522  1.00  0.00     0.046 A 
HETATM   16  C11 UNL     1      18.344  -0.553  52.410  1.00  0.00     0.138 A 
HETATM   17  F1  UNL     1      17.039  -0.834  52.328  1.00  0.00    -0.204 F 
HETATM   18  C12 UNL     1      18.855   0.109  51.333  1.00  0.00     0.074 A 
HETATM   19 CL1  UNL     1      17.947   0.597  49.921  1.00  0.00    -0.081 Cl
HETATM   20  C13 UNL     1      20.181   0.421  51.336  1.00  0.00     0.056 A 
ENDBRANCH  11  13
ENDBRANCH   4  11
BRANCH  10  21
HETATM   21  O2  UNL     1      27.142   3.595  50.197  1.00  0.00    -0.353 OA
HETATM   22  C18 UNL     1      26.341   4.450  49.388  1.00  0.00     0.210 C 
ENDBRANCH  10  21
BRANCH   1  23
HETATM   23  O1  UNL     1      28.086   2.104  52.440  1.00  0.00    -0.347 OA
BRANCH  23  24
HETATM   24  C3  UNL     1      28.597   2.477  53.710  1.00  0.00     0.205 C 
BRANCH  24  25
HETATM   25  C2  UNL     1      29.241   1.269  54.381  1.00  0.00     0.295 C 
BRANCH  25  26
HETATM   26  N1  UNL     1      29.964   0.435  53.485  1.00  0.00     0.081 N 
HETATM   27  C1  UNL     1      29.646  -0.961  53.515  1.00  0.00     0.306 C 
HETATM   28  H4  UNL     1      30.983   0.548  53.685  1.00  0.00     0.315 HD
ENDBRANCH  25  26
ENDBRANCH  24  25
ENDBRANCH  23  24
ENDBRANCH   1  23
TORSDOF 7
ENDMDL
MODEL 2
REMARK VINA RESULT:      -7.5      4.793      8.337
REMARK  7 active torsions:
REMARK  status: ('A' for Active; 'I' for Inactive)
REMARK    1  A    between atoms: N1_2  and  C2_3 
REMARK    2  A    between atoms: C2_3  and  C3_4 
REMARK    3  A    between atoms: C3_4  and  O1_5 
REMARK    4  A    between atoms: O1_5  and  C4_6 
REMARK    5  A    between atoms: C7_9  and  N2_10 
REMARK    6  A    between atoms: N2_10  and  C8_11 
REMARK    7  A    between atoms: C17_24  and  O2_25 
ROOT
HETATM    1  C4  UNL     1      20.043  -0.203  53.415  1.00  0.00     0.103 A 
HETATM    2  C5  UNL     1      21.095  -0.724  54.037  1.00  0.00     0.054 A 
HETATM    3  C6  UNL     1      22.402  -0.282  53.614  1.00  0.00     0.012 A 
HETATM    4  C7  UNL     1      23.412  -0.825  54.318  1.00  0.00     0.102 C 
HETATM    5  C14 UNL     1      22.660   0.683  52.560  1.00  0.00     0.083 A 
HETATM    6  N3  UNL     1      23.857   1.042  52.231  1.00  0.00    -0.173 NA
HETATM    7  C15 UNL     1      23.959   1.991  51.182  1.00  0.00     0.206 C 
HETATM    8  N4  UNL     1      24.040   2.793  50.325  1.00  0.00    -0.170 NA
HETATM    9  C16 UNL     1      21.416   1.205  51.925  1.00  0.00     0.073 A 
HETATM   10  C17 UNL     1      20.226   0.758  52.363  1.00  0.00     0.103 A 
ENDROOT
BRANCH   4  11
HETATM   11  N2  UNL     1      24.761  -0.587  54.136  1.00  0.00    -0.365 N 
HETATM   12  H11 UNL     1      24.383   0.325  53.764  1.00  0.00     0.165 HD
BRANCH  11  13
HETATM   13  C8  UNL     1      26.106  -0.362  53.961  1.00  0.00     0.033 A 
HETATM   14  C9  UNL     1      26.613  -1.452  53.228  1.00  0.00     0.032 A 
HETATM   15  C10 UNL     1      27.957  -1.527  52.875  1.00  0.00     0.046 A 
HETATM   16  C11 UNL     1      28.722  -0.460  53.299  1.00  0.00     0.138 A 
HETATM   17  F1  UNL     1      30.031  -0.430  53.026  1.00  0.00    -0.204 F 
HETATM   18  C12 UNL     1      28.263   0.609  54.011  1.00  0.00     0.074 A 
HETATM   19 CL1  UNL     1      29.235   1.956  54.555  1.00  0.00    -0.081 Cl
HETATM   20  C13 UNL     1      26.941   0.646  54.339  1.00  0.00     0.056 A 
ENDBRANCH  11  13
ENDBRANCH   4  11
BRANCH  10  21
HETATM   21  O2  UNL     1      19.305   1.453  51.546  1.00  0.00    -0.353 OA
HETATM   22  C18 UNL     1      19.293   1.013  50.192  1.00  0.00     0.210 C 
ENDBRANCH  10  21
BRANCH   1  23
HETATM   23  O1  UNL     1      18.713  -0.430  53.607  1.00  0.00    -0.347 OA
BRANCH  23  24
HETATM   24  C3  UNL     1      17.960  -1.376  52.865  1.00  0.00     0.205 C 
BRANCH  24  25
HETATM   25  C2  UNL     1      17.752  -2.636  53.697  1.00  0.00     0.295 C 
BRANCH  25  26
HETATM   26  N1  UNL     1      16.532  -3.312  53.416  1.00  0.00     0.081 N 
HETATM   27  C1  UNL     1      15.673  -2.699  52.448  1.00  0.00     0.306 C 
HETATM   28  H4  UNL     1      16.004  -3.416  54.311  1.00  0.00     0.315 HD
ENDBRANCH  25  26
ENDBRANCH  24  25
ENDBRANCH  23  24
ENDBRANCH   1  23
TORSDOF 7
ENDMDL
MODEL 3
REMARK VINA RESULT:      -7.4      4.103      6.523
REMARK  7 active torsions:
REMARK  status: ('A' for Active; 'I' for Inactive)
REMARK    1  A    between atoms: N1_2  and  C2_3 
REMARK    2  A    between atoms: C2_3  and  C3_4 
REMARK    3  A    between atoms: C3_4  and  O1_5 
REMARK    4  A    between atoms: O1_5  and  C4_6 
REMARK    5  A    between atoms: C7_9  and  N2_10 
REMARK    6  A    between atoms: N2_10  and  C8_11 
REMARK    7  A    between atoms: C17_24  and  O2_25 
ROOT
HETATM    1  C4  UNL     1      26.012  -0.151  52.747  1.00  0.00     0.103 A 
HETATM    2  C5  UNL     1      26.669   0.759  52.037  1.00  0.00     0.054 A 
HETATM    3  C6  UNL     1      25.935   1.927  51.613  1.00  0.00     0.012 A 
HETATM    4  C7  UNL     1      26.680   2.818  50.934  1.00  0.00     0.102 C 
HETATM    5  C14 UNL     1      24.535   2.186  51.898  1.00  0.00     0.083 A 
HETATM    6  N3  UNL     1      23.935   3.257  51.494  1.00  0.00    -0.173 NA
HETATM    7  C15 UNL     1      22.565   3.374  51.842  1.00  0.00     0.206 C 
HETATM    8  N4  UNL     1      21.434   3.481  52.149  1.00  0.00    -0.170 NA
HETATM    9  C16 UNL     1      23.889   1.105  52.697  1.00  0.00     0.073 A 
HETATM   10  C17 UNL     1      24.624   0.041  53.065  1.00  0.00     0.103 A 
ENDROOT
BRANCH   4  11
HETATM   11  N2  UNL     1      26.246   4.021  50.411  1.00  0.00    -0.365 N 
HETATM   12  H11 UNL     1      26.109   4.231  51.435  1.00  0.00     0.165 HD
BRANCH  11  13
HETATM   13  C8  UNL     1      25.818   5.214  49.878  1.00  0.00     0.033 A 
HETATM   14  C9  UNL     1      26.741   5.570  48.875  1.00  0.00     0.032 A 
HETATM   15  C10 UNL     1      26.590   6.737  48.131  1.00  0.00     0.046 A 
HETATM   16  C11 UNL     1      25.479   7.487  48.459  1.00  0.00     0.138 A 
HETATM   17  F1  UNL     1      25.237   8.634  47.815  1.00  0.00    -0.204 F 
HETATM   18  C12 UNL     1      24.568   7.171  49.424  1.00  0.00     0.074 A 
HETATM   19 CL1  UNL     1      23.166   8.126  49.844  1.00  0.00    -0.081 Cl
HETATM   20  C13 UNL     1      24.752   6.022  50.133  1.00  0.00     0.056 A 
ENDBRANCH  11  13
ENDBRANCH   4  11
BRANCH  10  21
HETATM   21  O2  UNL     1      23.700  -0.751  53.785  1.00  0.00    -0.353 OA
HETATM   22  C18 UNL     1      22.391  -0.193  53.843  1.00  0.00     0.210 C 
ENDBRANCH  10  21
BRANCH   1  23
HETATM   23  O1  UNL     1      26.447  -1.330  53.274  1.00  0.00    -0.347 OA
BRANCH  23  24
HETATM   24  C3  UNL     1      27.097  -2.339  52.518  1.00  0.00     0.205 C 
BRANCH  24  25
HETATM   25  C2  UNL     1      28.573  -2.395  52.893  1.00  0.00     0.295 C 
BRANCH  25  26
HETATM   26  N1  UNL     1      28.949  -1.438  53.877  1.00  0.00     0.081 N 
HETATM   27  C1  UNL     1      29.959  -0.497  53.497  1.00  0.00     0.306 C 
HETATM   28  H4  UNL     1      29.277  -1.954  54.723  1.00  0.00     0.315 HD
ENDBRANCH  25  26
ENDBRANCH  24  25
ENDBRANCH  23  24
ENDBRANCH   1  23
TORSDOF 7
ENDMDL
MODEL 4
REMARK VINA RESULT:      -7.4      1.923      3.691
REMARK  7 active torsions:
REMARK  status: ('A' for Active; 'I' for Inactive)
REMARK    1  A    between atoms: N1_2  and  C2_3 
REMARK    2  A    between atoms: C2_3  and  C3_4 
REMARK    3  A    between atoms: C3_4  and  O1_5 
REMARK    4  A    between atoms: O1_5  and  C4_6 
REMARK    5  A    between atoms: C7_9  and  N2_10 
REMARK    6  A    between atoms: N2_10  and  C8_11 
REMARK    7  A    between atoms: C17_24  and  O2_25 
ROOT
HETATM    1  C4  UNL     1      25.922   0.919  52.574  1.00  0.00     0.103 A 
HETATM    2  C5  UNL     1      25.067   1.532  51.764  1.00  0.00     0.054 A 
HETATM    3  C6  UNL     1      23.667   1.210  51.911  1.00  0.00     0.012 A 
HETATM    4  C7  UNL     1      22.864   1.901  51.082  1.00  0.00     0.102 C 
HETATM    5  C14 UNL     1      23.120   0.269  52.871  1.00  0.00     0.083 A 
HETATM    6  N3  UNL     1      21.853   0.029  52.957  1.00  0.00    -0.173 NA
HETATM    7  C15 UNL     1      21.462  -0.917  53.939  1.00  0.00     0.206 C 
HETATM    8  N4  UNL     1      21.136  -1.687  54.767  1.00  0.00    -0.170 NA
HETATM    9  C16 UNL     1      24.161  -0.365  53.730  1.00  0.00     0.073 A 
HETATM   10  C17 UNL     1      25.449  -0.025  53.548  1.00  0.00     0.103 A 
ENDROOT
BRANCH   4  11
HETATM   11  N2  UNL     1      21.487   1.802  51.002  1.00  0.00    -0.365 N 
HETATM   12  H11 UNL     1      21.703   0.816  51.307  1.00  0.00     0.165 HD
BRANCH  11  13
HETATM   13  C8  UNL     1      20.118   1.716  50.919  1.00  0.00     0.033 A 
HETATM   14  C9  UNL     1      19.597   2.888  51.502  1.00  0.00     0.032 A 
HETATM   15  C10 UNL     1      18.226   3.117  51.573  1.00  0.00     0.046 A 
HETATM   16  C11 UNL     1      17.449   2.115  51.029  1.00  0.00     0.138 A 
HETATM   17  F1  UNL     1      16.115   2.222  51.050  1.00  0.00    -0.204 F 
HETATM   18  C12 UNL     1      17.920   0.969  50.459  1.00  0.00     0.074 A 
HETATM   19 CL1  UNL     1      16.934  -0.303  49.778  1.00  0.00    -0.081 Cl
HETATM   20  C13 UNL     1      19.269   0.781  50.410  1.00  0.00     0.056 A 
ENDBRANCH  11  13
ENDBRANCH   4  11
BRANCH  10  21
HETATM   21  O2  UNL     1      26.124  -0.808  54.513  1.00  0.00    -0.353 OA
HETATM   22  C18 UNL     1      25.424  -0.927  55.747  1.00  0.00     0.210 C 
ENDBRANCH  10  21
BRANCH   1  23
HETATM   23  O1  UNL     1      27.278   1.030  52.660  1.00  0.00    -0.347 OA
BRANCH  23  24
HETATM   24  C3  UNL     1      27.940   2.016  53.437  1.00  0.00     0.205 C 
BRANCH  24  25
HETATM   25  C2  UNL     1      29.114   1.387  54.177  1.00  0.00     0.295 C 
BRANCH  25  26
HETATM   26  N1  UNL     1      28.965  -0.009  54.405  1.00  0.00     0.081 N 
HETATM   27  C1  UNL     1      29.883  -0.868  53.720  1.00  0.00     0.306 C 
HETATM   28  H4  UNL     1      27.993  -0.280  54.137  1.00  0.00     0.315 HD
ENDBRANCH  25  26
ENDBRANCH  24  25
ENDBRANCH  23  24
ENDBRANCH   1  23
TORSDOF 7
ENDMDL
MODEL 5
REMARK VINA RESULT:      -7.3      4.729      8.783
REMARK  7 active torsions:
REMARK  status: ('A' for Active; 'I' for Inactive)
REMARK    1  A    between atoms: N1_2  and  C2_3 
REMARK    2  A    between atoms: C2_3  and  C3_4 
REMARK    3  A    between atoms: C3_4  and  O1_5 
REMARK    4  A    between atoms: O1_5  and  C4_6 
REMARK    5  A    between atoms: C7_9  and  N2_10 
REMARK    6  A    between atoms: N2_10  and  C8_11 
REMARK    7  A    between atoms: C17_24  and  O2_25 
ROOT
HETATM    1  C4  UNL     1      20.022   1.079  51.702  1.00  0.00     0.103 A 
HETATM    2  C5  UNL     1      21.215   1.474  51.270  1.00  0.00     0.054 A 
HETATM    3  C6  UNL     1      22.371   1.004  51.996  1.00  0.00     0.012 A 
HETATM    4  C7  UNL     1      23.541   1.415  51.475  1.00  0.00     0.102 C 
HETATM    5  C14 UNL     1      22.335   0.138  53.161  1.00  0.00     0.083 A 
HETATM    6  N3  UNL     1      23.409  -0.252  53.764  1.00  0.00    -0.173 NA
HETATM    7  C15 UNL     1      23.222  -1.093  54.891  1.00  0.00     0.206 C 
HETATM    8  N4  UNL     1      23.066  -1.807  55.813  1.00  0.00    -0.170 NA
HETATM    9  C16 UNL     1      20.951  -0.245  53.564  1.00  0.00     0.073 A 
HETATM   10  C17 UNL     1      19.913   0.222  52.849  1.00  0.00     0.103 A 
ENDROOT
BRANCH   4  11
HETATM   11  N2  UNL     1      24.803   1.121  51.956  1.00  0.00    -0.365 N 
HETATM   12  H11 UNL     1      24.513   0.152  51.657  1.00  0.00     0.165 HD
BRANCH  11  13
HETATM   13  C8  UNL     1      26.060   0.841  52.436  1.00  0.00     0.033 A 
HETATM   14  C9  UNL     1      26.615   2.061  52.869  1.00  0.00     0.032 A 
HETATM   15  C10 UNL     1      27.891   2.123  53.421  1.00  0.00     0.046 A 
HETATM   16  C11 UNL     1      28.541   0.908  53.503  1.00  0.00     0.138 A 
HETATM   17  F1  UNL     1      29.778   0.848  54.008  1.00  0.00    -0.204 F 
HETATM   18  C12 UNL     1      28.032  -0.289  53.092  1.00  0.00     0.074 A 
HETATM   19 CL1  UNL     1      28.859  -1.826  53.189  1.00  0.00    -0.081 Cl
HETATM   20  C13 UNL     1      26.780  -0.309  52.556  1.00  0.00     0.056 A 
ENDBRANCH  11  13
ENDBRANCH   4  11
BRANCH  10  21
HETATM   21  O2  UNL     1      18.795  -0.334  53.512  1.00  0.00    -0.353 OA
HETATM   22  C18 UNL     1      18.787  -1.758  53.529  1.00  0.00     0.210 C 
ENDBRANCH  10  21
BRANCH   1  23
HETATM   23  O1  UNL     1      18.780   1.360  51.216  1.00  0.00    -0.347 OA
BRANCH  23  24
HETATM   24  C3  UNL     1      18.215   0.720  50.082  1.00  0.00     0.205 C 
BRANCH  24  25
HETATM   25  C2  UNL     1      17.065  -0.180  50.518  1.00  0.00     0.295 C 
BRANCH  25  26
HETATM   26  N1  UNL     1      16.308   0.343  51.603  1.00  0.00     0.081 N 
HETATM   27  C1  UNL     1      15.467  -0.583  52.299  1.00  0.00     0.306 C 
HETATM   28  H4  UNL     1      15.715   1.122  51.239  1.00  0.00     0.315 HD
ENDBRANCH  25  26
ENDBRANCH  24  25
ENDBRANCH  23  24
ENDBRANCH   1  23
TORSDOF 7
ENDMDL
MODEL 6
REMARK VINA RESULT:      -7.2      4.739      8.641
REMARK  7 active torsions:
REMARK  status: ('A' for Active; 'I' for Inactive)
REMARK    1  A    between atoms: N1_2  and  C2_3 
REMARK    2  A    between atoms: C2_3  and  C3_4 
REMARK    3  A    between atoms: C3_4  and  O1_5 
REMARK    4  A    between atoms: O1_5  and  C4_6 
REMARK    5  A    between atoms: C7_9  and  N2_10 
REMARK    6  A    between atoms: N2_10  and  C8_11 
REMARK    7  A    between atoms: C17_24  and  O2_25 
ROOT
HETATM    1  C4  UNL     1      20.344   1.353  51.130  1.00  0.00     0.103 A 
HETATM    2  C5  UNL     1      21.591   1.705  50.839  1.00  0.00     0.054 A 
HETATM    3  C6  UNL     1      22.641   1.192  51.687  1.00  0.00     0.012 A 
HETATM    4  C7  UNL     1      23.876   1.562  51.304  1.00  0.00     0.102 C 
HETATM    5  C14 UNL     1      22.443   0.324  52.834  1.00  0.00     0.083 A 
HETATM    6  N3  UNL     1      23.427  -0.107  53.552  1.00  0.00    -0.173 NA
HETATM    7  C15 UNL     1      23.084  -0.945  54.644  1.00  0.00     0.206 C 
HETATM    8  N4  UNL     1      22.800  -1.656  55.537  1.00  0.00    -0.170 NA
HETATM    9  C16 UNL     1      21.010  -0.010  53.076  1.00  0.00     0.073 A 
HETATM   10  C17 UNL     1      20.076   0.496  52.251  1.00  0.00     0.103 A 
ENDROOT
BRANCH   4  11
HETATM   11  N2  UNL     1      25.064   1.220  51.922  1.00  0.00    -0.365 N 
HETATM   12  H11 UNL     1      25.373   1.133  50.917  1.00  0.00     0.165 HD
BRANCH  11  13
HETATM   13  C8  UNL     1      26.240   0.883  52.549  1.00  0.00     0.033 A 
HETATM   14  C9  UNL     1      26.402  -0.508  52.397  1.00  0.00     0.032 A 
HETATM   15  C10 UNL     1      27.509  -1.171  52.919  1.00  0.00     0.046 A 
HETATM   16  C11 UNL     1      28.408  -0.357  53.577  1.00  0.00     0.138 A 
HETATM   17  F1  UNL     1      29.506  -0.888  54.128  1.00  0.00    -0.204 F 
HETATM   18  C12 UNL     1      28.281   0.991  53.742  1.00  0.00     0.074 A 
HETATM   19 CL1  UNL     1      29.416   2.019  54.584  1.00  0.00    -0.081 Cl
HETATM   20  C13 UNL     1      27.182   1.604  53.219  1.00  0.00     0.056 A 
ENDBRANCH  11  13
ENDBRANCH   4  11
BRANCH  10  21
HETATM   21  O2  UNL     1      18.871  -0.021  52.780  1.00  0.00    -0.353 OA
HETATM   22  C18 UNL     1      19.029  -1.260  53.464  1.00  0.00     0.210 C 
ENDBRANCH  10  21
BRANCH   1  23
HETATM   23  O1  UNL     1      19.176   1.680  50.509  1.00  0.00    -0.347 OA
BRANCH  23  24
HETATM   24  C3  UNL     1      18.396   2.816  50.847  1.00  0.00     0.205 C 
BRANCH  24  25
HETATM   25  C2  UNL     1      16.915   2.482  50.714  1.00  0.00     0.295 C 
BRANCH  25  26
HETATM   26  N1  UNL     1      16.586   1.162  51.133  1.00  0.00     0.081 N 
HETATM   27  C1  UNL     1      15.554   1.044  52.118  1.00  0.00     0.306 C 
HETATM   28  H4  UNL     1      17.453   0.714  51.504  1.00  0.00     0.315 HD
ENDBRANCH  25  26
ENDBRANCH  24  25
ENDBRANCH  23  24
ENDBRANCH   1  23
TORSDOF 7
ENDMDL
MODEL 7
REMARK VINA RESULT:      -7.2      3.906      5.943
REMARK  7 active torsions:
REMARK  status: ('A' for Active; 'I' for Inactive)
REMARK    1  A    between atoms: N1_2  and  C2_3 
REMARK    2  A    between atoms: C2_3  and  C3_4 
REMARK    3  A    between atoms: C3_4  and  O1_5 
REMARK    4  A    between atoms: O1_5  and  C4_6 
REMARK    5  A    between atoms: C7_9  and  N2_10 
REMARK    6  A    between atoms: N2_10  and  C8_11 
REMARK    7  A    between atoms: C17_24  and  O2_25 
ROOT
HETATM    1  C4  UNL     1      25.234   0.206  52.927  1.00  0.00     0.103 A 
HETATM    2  C5  UNL     1      25.678   1.215  52.186  1.00  0.00     0.054 A 
HETATM    3  C6  UNL     1      24.732   2.246  51.833  1.00  0.00     0.012 A 
HETATM    4  C7  UNL     1      25.268   3.250  51.117  1.00  0.00     0.102 C 
HETATM    5  C14 UNL     1      23.333   2.268  52.220  1.00  0.00     0.083 A 
HETATM    6  N3  UNL     1      22.536   3.225  51.875  1.00  0.00    -0.173 NA
HETATM    7  C15 UNL     1      21.195   3.113  52.322  1.00  0.00     0.206 C 
HETATM    8  N4  UNL     1      20.087   3.028  52.709  1.00  0.00    -0.170 NA
HETATM    9  C16 UNL     1      22.934   1.092  53.046  1.00  0.00     0.073 A 
HETATM   10  C17 UNL     1      23.860   0.164  53.345  1.00  0.00     0.103 A 
ENDROOT
BRANCH   4  11
HETATM   11  N2  UNL     1      24.605   4.367  50.644  1.00  0.00    -0.365 N 
HETATM   12  H11 UNL     1      24.025   4.187  51.506  1.00  0.00     0.165 HD
BRANCH  11  13
HETATM   13  C8  UNL     1      23.954   5.478  50.163  1.00  0.00     0.033 A 
HETATM   14  C9  UNL     1      24.271   6.545  51.026  1.00  0.00     0.032 A 
HETATM   15  C10 UNL     1      23.770   7.826  50.812  1.00  0.00     0.046 A 
HETATM   16  C11 UNL     1      22.958   7.946  49.703  1.00  0.00     0.138 A 
HETATM   17  F1  UNL     1      22.412   9.130  49.404  1.00  0.00    -0.204 F 
HETATM   18  C12 UNL     1      22.631   6.935  48.849  1.00  0.00     0.074 A 
HETATM   19 CL1  UNL     1      21.595   7.086  47.449  1.00  0.00    -0.081 Cl
HETATM   20  C13 UNL     1      23.139   5.694  49.093  1.00  0.00     0.056 A 
ENDBRANCH  11  13
ENDBRANCH   4  11
BRANCH  10  21
HETATM   21  O2  UNL     1      23.134  -0.773  54.116  1.00  0.00    -0.353 OA
HETATM   22  C18 UNL     1      21.804  -0.361  54.416  1.00  0.00     0.210 C 
ENDBRANCH  10  21
BRANCH   1  23
HETATM   23  O1  UNL     1      25.895  -0.886  53.404  1.00  0.00    -0.347 OA
BRANCH  23  24
HETATM   24  C3  UNL     1      26.899  -1.578  52.679  1.00  0.00     0.205 C 
BRANCH  24  25
HETATM   25  C2  UNL     1      28.273  -1.222  53.235  1.00  0.00     0.295 C 
BRANCH  25  26
HETATM   26  N1  UNL     1      28.229  -0.580  54.503  1.00  0.00     0.081 N 
HETATM   27  C1  UNL     1      28.846   0.709  54.586  1.00  0.00     0.306 C 
HETATM   28  H4  UNL     1      28.679  -1.210  55.203  1.00  0.00     0.315 HD
ENDBRANCH  25  26
ENDBRANCH  24  25
ENDBRANCH  23  24
ENDBRANCH   1  23
TORSDOF 7
ENDMDL
MODEL 8
REMARK VINA RESULT:      -7.2      4.390      7.088
REMARK  7 active torsions:
REMARK  status: ('A' for Active; 'I' for Inactive)
REMARK    1  A    between atoms: N1_2  and  C2_3 
REMARK    2  A    between atoms: C2_3  and  C3_4 
REMARK    3  A    between atoms: C3_4  and  O1_5 
REMARK    4  A    between atoms: O1_5  and  C4_6 
REMARK    5  A    between atoms: C7_9  and  N2_10 
REMARK    6  A    between atoms: N2_10  and  C8_11 
REMARK    7  A    between atoms: C17_24  and  O2_25 
ROOT
HETATM    1  C4  UNL     1      25.169   0.667  52.520  1.00  0.00     0.103 A 
HETATM    2  C5  UNL     1      26.064   1.244  51.726  1.00  0.00     0.054 A 
HETATM    3  C6  UNL     1      25.699   2.503  51.121  1.00  0.00     0.012 A 
HETATM    4  C7  UNL     1      26.672   3.042  50.364  1.00  0.00     0.102 C 
HETATM    5  C14 UNL     1      24.432   3.187  51.307  1.00  0.00     0.083 A 
HETATM    6  N3  UNL     1      24.168   4.318  50.740  1.00  0.00    -0.173 NA
HETATM    7  C15 UNL     1      22.889   4.868  51.010  1.00  0.00     0.206 C 
HETATM    8  N4  UNL     1      21.836   5.334  51.250  1.00  0.00    -0.170 NA
HETATM    9  C16 UNL     1      23.499   2.457  52.212  1.00  0.00     0.073 A 
HETATM   10  C17 UNL     1      23.894   1.289  52.749  1.00  0.00     0.103 A 
ENDROOT
BRANCH   4  11
HETATM   11  N2  UNL     1      26.606   4.234  49.669  1.00  0.00    -0.365 N 
HETATM   12  H11 UNL     1      25.597   4.163  49.965  1.00  0.00     0.165 HD
BRANCH  11  13
HETATM   13  C8  UNL     1      26.554   5.420  48.975  1.00  0.00     0.033 A 
HETATM   14  C9  UNL     1      27.856   5.678  48.504  1.00  0.00     0.032 A 
HETATM   15  C10 UNL     1      28.145   6.812  47.751  1.00  0.00     0.046 A 
HETATM   16  C11 UNL     1      27.062   7.635  47.515  1.00  0.00     0.138 A 
HETATM   17  F1  UNL     1      27.223   8.760  46.810  1.00  0.00    -0.204 F 
HETATM   18  C12 UNL     1      25.791   7.415  47.957  1.00  0.00     0.074 A 
HETATM   19 CL1  UNL     1      24.422   8.461  47.664  1.00  0.00    -0.081 Cl
HETATM   20  C13 UNL     1      25.549   6.294  48.693  1.00  0.00     0.056 A 
ENDBRANCH  11  13
ENDBRANCH   4  11
BRANCH  10  21
HETATM   21  O2  UNL     1      22.778   0.901  53.525  1.00  0.00    -0.353 OA
HETATM   22  C18 UNL     1      21.527   1.113  52.877  1.00  0.00     0.210 C 
ENDBRANCH  10  21
BRANCH   1  23
HETATM   23  O1  UNL     1      25.243  -0.503  53.215  1.00  0.00    -0.347 OA
BRANCH  23  24
HETATM   24  C3  UNL     1      25.526  -0.577  54.604  1.00  0.00     0.205 C 
BRANCH  24  25
HETATM   25  C2  UNL     1      26.740   0.284  54.930  1.00  0.00     0.295 C 
BRANCH  25  26
HETATM   26  N1  UNL     1      27.981  -0.391  54.764  1.00  0.00     0.081 N 
HETATM   27  C1  UNL     1      29.038   0.357  54.152  1.00  0.00     0.306 C 
HETATM   28  H4  UNL     1      27.810  -1.251  54.196  1.00  0.00     0.315 HD
ENDBRANCH  25  26
ENDBRANCH  24  25
ENDBRANCH  23  24
ENDBRANCH   1  23
TORSDOF 7
ENDMDL
MODEL 9
REMARK VINA RESULT:      -7.1      3.592      5.619
REMARK  7 active torsions:
REMARK  status: ('A' for Active; 'I' for Inactive)
REMARK    1  A    between atoms: N1_2  and  C2_3 
REMARK    2  A    between atoms: C2_3  and  C3_4 
REMARK    3  A    between atoms: C3_4  and  O1_5 
REMARK    4  A    between atoms: O1_5  and  C4_6 
REMARK    5  A    between atoms: C7_9  and  N2_10 
REMARK    6  A    between atoms: N2_10  and  C8_11 
REMARK    7  A    between atoms: C17_24  and  O2_25 
ROOT
HETATM    1  C4  UNL     1      26.976   5.806  48.559  1.00  0.00     0.103 A 
HETATM    2  C5  UNL     1      27.167   4.600  49.083  1.00  0.00     0.054 A 
HETATM    3  C6  UNL     1      26.129   4.077  49.939  1.00  0.00     0.012 A 
HETATM    4  C7  UNL     1      26.379   2.838  50.398  1.00  0.00     0.102 C 
HETATM    5  C14 UNL     1      24.895   4.764  50.276  1.00  0.00     0.083 A 
HETATM    6  N3  UNL     1      24.001   4.238  51.047  1.00  0.00    -0.173 NA
HETATM    7  C15 UNL     1      22.847   5.026  51.293  1.00  0.00     0.206 C 
HETATM    8  N4  UNL     1      21.881   5.672  51.479  1.00  0.00    -0.170 NA
HETATM    9  C16 UNL     1      24.779   6.108  49.641  1.00  0.00     0.073 A 
HETATM   10  C17 UNL     1      25.777   6.542  48.851  1.00  0.00     0.103 A 
ENDROOT
BRANCH   4  11
HETATM   11  N2  UNL     1      25.567   2.091  51.231  1.00  0.00    -0.365 N 
HETATM   12  H11 UNL     1      24.931   2.919  51.083  1.00  0.00     0.165 HD
BRANCH  11  13
HETATM   13  C8  UNL     1      24.769   1.338  52.059  1.00  0.00     0.033 A 
HETATM   14  C9  UNL     1      25.590   0.348  52.632  1.00  0.00     0.032 A 
HETATM   15  C10 UNL     1      25.083  -0.584  53.533  1.00  0.00     0.046 A 
HETATM   16  C11 UNL     1      23.737  -0.446  53.805  1.00  0.00     0.138 A 
HETATM   17  F1  UNL     1      23.139  -1.293  54.650  1.00  0.00    -0.204 F 
HETATM   18  C12 UNL     1      22.915   0.500  53.266  1.00  0.00     0.074 A 
HETATM   19 CL1  UNL     1      21.208   0.668  53.604  1.00  0.00    -0.081 Cl
HETATM   20  C13 UNL     1      23.448   1.393  52.386  1.00  0.00     0.056 A 
ENDBRANCH  11  13
ENDBRANCH   4  11
BRANCH  10  21
HETATM   21  O2  UNL     1      25.328   7.819  48.442  1.00  0.00    -0.353 OA
HETATM   22  C18 UNL     1      24.385   7.780  47.375  1.00  0.00     0.210 C 
ENDBRANCH  10  21
BRANCH   1  23
HETATM   23  O1  UNL     1      27.772   6.533  47.726  1.00  0.00    -0.347 OA
BRANCH  23  24
HETATM   24  C3  UNL     1      29.131   6.836  48.000  1.00  0.00     0.205 C 
BRANCH  24  25
HETATM   25  C2  UNL     1      29.294   8.337  48.206  1.00  0.00     0.295 C 
BRANCH  25  26
HETATM   26  N1  UNL     1      29.177   8.744  49.563  1.00  0.00     0.081 N 
HETATM   27  C1  UNL     1      27.964   9.412  49.927  1.00  0.00     0.306 C 
HETATM   28  H4  UNL     1      29.982   9.372  49.785  1.00  0.00     0.315 HD
ENDBRANCH  25  26
ENDBRANCH  24  25
ENDBRANCH  23  24
ENDBRANCH   1  23
TORSDOF 7
ENDMDL
