MODEL 1
REMARK VINA RESULT:      -6.4      0.000      0.000
REMARK  10 active torsions:
REMARK  status: ('A' for Active; 'I' for Inactive)
REMARK    1  A    between atoms: C4_4  and  C5_5 
REMARK    2  A    between atoms: C5_5  and  C6_6 
REMARK    3  A    between atoms: C6_6  and  S1_7 
REMARK    4  A    between atoms: S1_7  and  C7_8 
REMARK    5  A    between atoms: C8_10  and  C9_11 
REMARK    6  A    between atoms: C8_10  and  O1_18 
REMARK    7  A    between atoms: C10_12  and  C11_13 
REMARK    8  A    between atoms: C11_13  and  C12_14 
REMARK    9  A    between atoms: O1_18  and  C15_19 
REMARK   10  A    between atoms: C16_21  and  O2_22 
ROOT
HETATM    1  C1  UNL     1      32.626   5.933  41.521  1.00  0.00     0.017 C 
HETATM    2  C2  UNL     1      33.006   5.579  42.583  1.00  0.00    -0.089 C 
HETATM    3  C3  UNL     1      33.436   5.155  43.852  1.00  0.00     0.063 C 
HETATM    4  C4  UNL     1      34.419   4.369  44.237  1.00  0.00     0.006 C 
ENDROOT
BRANCH   4   5
HETATM    5  C5  UNL     1      35.143   3.731  45.352  1.00  0.00    -0.009 C 
BRANCH   5   6
HETATM    6  C6  UNL     1      35.039   3.963  46.600  1.00  0.00     0.196 C 
BRANCH   6   7
HETATM    7  S1  UNL     1      34.580   4.453  48.212  1.00  0.00    -0.187 SA
BRANCH   7   8
HETATM    8  C7  UNL     1      33.099   5.468  48.253  1.00  0.00     0.058 A 
HETATM    9  N1  UNL     1      32.085   5.312  48.921  1.00  0.00    -0.245 NA
HETATM   10  C8  UNL     1      31.460   6.448  48.400  1.00  0.00     0.188 A 
HETATM   11  C18 UNL     1      32.660   6.665  47.565  1.00  0.00     0.133 A 
BRANCH  10  12
HETATM   12  C9  UNL     1      30.220   6.168  47.612  1.00  0.00     0.036 C 
HETATM   13  C10 UNL     1      29.281   5.705  48.395  1.00  0.00     0.003 C 
BRANCH  13  14
HETATM   14  C11 UNL     1      27.925   5.213  48.554  1.00  0.00     0.033 C 
BRANCH  14  15
HETATM   15  C12 UNL     1      26.797   4.686  48.951  1.00  0.00     0.086 C 
HETATM   16 CL1  UNL     1      26.511   3.046  49.566  1.00  0.00    -0.074 Cl
HETATM   17  C13 UNL     1      25.567   5.470  48.914  1.00  0.00    -0.065 C 
HETATM   18  C14 UNL     1      24.552   6.140  48.882  1.00  0.00     0.019 C 
ENDBRANCH  14  15
ENDBRANCH  13  14
ENDBRANCH  10  12
BRANCH  10  19
HETATM   19  O1  UNL     1      31.245   7.536  49.286  1.00  0.00    -0.291 OA
BRANCH  19  20
HETATM   20  C15 UNL     1      31.365   8.851  48.733  1.00  0.00     0.213 A 
HETATM   21  N2  UNL     1      31.441   9.830  48.327  1.00  0.00    -0.193 NA
HETATM   22  C16 UNL     1      31.113  11.007  48.034  1.00  0.00     0.171 A 
HETATM   23  C17 UNL     1      29.847  11.104  48.583  1.00  0.00     0.111 A 
HETATM   24  S2  UNL     1      29.621   9.404  49.331  1.00  0.00    -0.052 SA
BRANCH  22  25
HETATM   25  O2  UNL     1      31.772  12.017  47.344  1.00  0.00    -0.344 OA
HETATM   26  H10 UNL     1      32.717  12.256  47.555  1.00  0.00     0.219 HD
ENDBRANCH  22  25
ENDBRANCH  19  20
ENDBRANCH  10  19
ENDBRANCH   7   8
ENDBRANCH   6   7
ENDBRANCH   5   6
ENDBRANCH   4   5
TORSDOF 10
ENDMDL
MODEL 2
REMARK VINA RESULT:      -6.2      8.423     10.342
REMARK  10 active torsions:
REMARK  status: ('A' for Active; 'I' for Inactive)
REMARK    1  A    between atoms: C4_4  and  C5_5 
REMARK    2  A    between atoms: C5_5  and  C6_6 
REMARK    3  A    between atoms: C6_6  and  S1_7 
REMARK    4  A    between atoms: S1_7  and  C7_8 
REMARK    5  A    between atoms: C8_10  and  C9_11 
REMARK    6  A    between atoms: C8_10  and  O1_18 
REMARK    7  A    between atoms: C10_12  and  C11_13 
REMARK    8  A    between atoms: C11_13  and  C12_14 
REMARK    9  A    between atoms: O1_18  and  C15_19 
REMARK   10  A    between atoms: C16_21  and  O2_22 
ROOT
HETATM    1  C1  UNL     1      19.977   4.400  41.780  1.00  0.00     0.017 C 
HETATM    2  C2  UNL     1      20.474   4.489  42.848  1.00  0.00    -0.089 C 
HETATM    3  C3  UNL     1      21.053   4.616  44.123  1.00  0.00     0.063 C 
HETATM    4  C4  UNL     1      21.279   3.745  45.084  1.00  0.00     0.006 C 
ENDROOT
BRANCH   4   5
HETATM    5  C5  UNL     1      21.810   3.487  46.435  1.00  0.00    -0.009 C 
BRANCH   5   6
HETATM    6  C6  UNL     1      22.224   4.327  47.297  1.00  0.00     0.196 C 
BRANCH   6   7
HETATM    7  S1  UNL     1      23.061   5.227  48.538  1.00  0.00    -0.187 SA
BRANCH   7   8
HETATM    8  C7  UNL     1      23.816   4.182  49.788  1.00  0.00     0.058 A 
HETATM    9  N1  UNL     1      23.560   3.018  50.067  1.00  0.00    -0.245 NA
HETATM   10  C8  UNL     1      24.522   2.955  51.078  1.00  0.00     0.188 A 
HETATM   11  C18 UNL     1      24.854   4.364  50.783  1.00  0.00     0.133 A 
BRANCH  10  12
HETATM   12  C9  UNL     1      23.967   2.741  52.451  1.00  0.00     0.036 C 
HETATM   13  C10 UNL     1      23.353   1.589  52.516  1.00  0.00     0.003 C 
BRANCH  13  14
HETATM   14  C11 UNL     1      22.603   0.622  53.297  1.00  0.00     0.033 C 
BRANCH  14  15
HETATM   15  C12 UNL     1      21.741  -0.229  53.787  1.00  0.00     0.086 C 
HETATM   16 CL1  UNL     1      21.998  -1.432  55.067  1.00  0.00    -0.074 Cl
HETATM   17  C13 UNL     1      20.375  -0.270  53.276  1.00  0.00    -0.065 C 
HETATM   18  C14 UNL     1      19.239  -0.285  52.841  1.00  0.00     0.019 C 
ENDBRANCH  14  15
ENDBRANCH  13  14
ENDBRANCH  10  12
BRANCH  10  19
HETATM   19  O1  UNL     1      25.639   2.106  50.861  1.00  0.00    -0.291 OA
BRANCH  19  20
HETATM   20  C15 UNL     1      26.735   2.239  51.771  1.00  0.00     0.213 A 
HETATM   21  N2  UNL     1      27.550   2.324  52.449  1.00  0.00    -0.193 NA
HETATM   22  C16 UNL     1      28.440   1.971  53.262  1.00  0.00     0.171 A 
HETATM   23  C17 UNL     1      28.254   0.602  53.326  1.00  0.00     0.111 A 
HETATM   24  S2  UNL     1      26.821   0.353  52.148  1.00  0.00    -0.052 SA
BRANCH  22  25
HETATM   25  O2  UNL     1      29.400   2.687  53.965  1.00  0.00    -0.344 OA
HETATM   26  H10 UNL     1      29.270   2.924  54.925  1.00  0.00     0.219 HD
ENDBRANCH  22  25
ENDBRANCH  19  20
ENDBRANCH  10  19
ENDBRANCH   7   8
ENDBRANCH   6   7
ENDBRANCH   5   6
ENDBRANCH   4   5
TORSDOF 10
ENDMDL
MODEL 3
REMARK VINA RESULT:      -6.1      6.419      9.420
REMARK  10 active torsions:
REMARK  status: ('A' for Active; 'I' for Inactive)
REMARK    1  A    between atoms: C4_4  and  C5_5 
REMARK    2  A    between atoms: C5_5  and  C6_6 
REMARK    3  A    between atoms: C6_6  and  S1_7 
REMARK    4  A    between atoms: S1_7  and  C7_8 
REMARK    5  A    between atoms: C8_10  and  C9_11 
REMARK    6  A    between atoms: C8_10  and  O1_18 
REMARK    7  A    between atoms: C10_12  and  C11_13 
REMARK    8  A    between atoms: C11_13  and  C12_14 
REMARK    9  A    between atoms: O1_18  and  C15_19 
REMARK   10  A    between atoms: C16_21  and  O2_22 
ROOT
HETATM    1  C1  UNL     1      28.389  11.306  46.912  1.00  0.00     0.017 C 
HETATM    2  C2  UNL     1      28.293  10.310  47.541  1.00  0.00    -0.089 C 
HETATM    3  C3  UNL     1      28.168   9.138  48.307  1.00  0.00     0.063 C 
HETATM    4  C4  UNL     1      27.805   7.912  47.997  1.00  0.00     0.006 C 
ENDROOT
BRANCH   4   5
HETATM    5  C5  UNL     1      27.566   6.529  48.449  1.00  0.00    -0.009 C 
BRANCH   5   6
HETATM    6  C6  UNL     1      26.454   5.934  48.626  1.00  0.00     0.196 C 
BRANCH   6   7
HETATM    7  S1  UNL     1      24.922   5.312  49.187  1.00  0.00    -0.187 SA
BRANCH   7   8
HETATM    8  C7  UNL     1      25.088   4.013  50.415  1.00  0.00     0.058 A 
HETATM    9  N1  UNL     1      25.783   3.006  50.373  1.00  0.00    -0.245 NA
HETATM   10  C8  UNL     1      25.363   2.555  51.626  1.00  0.00     0.188 A 
HETATM   11  C18 UNL     1      24.498   3.750  51.713  1.00  0.00     0.133 A 
BRANCH  10  12
HETATM   12  C9  UNL     1      24.607   1.264  51.601  1.00  0.00     0.036 C 
HETATM   13  C10 UNL     1      23.614   1.305  52.451  1.00  0.00     0.003 C 
BRANCH  13  14
HETATM   14  C11 UNL     1      22.477   0.646  53.066  1.00  0.00     0.033 C 
BRANCH  14  15
HETATM   15  C12 UNL     1      21.635  -0.160  53.658  1.00  0.00     0.086 C 
HETATM   16 CL1  UNL     1      21.936  -1.234  55.038  1.00  0.00    -0.074 Cl
HETATM   17  C13 UNL     1      20.257  -0.258  53.189  1.00  0.00    -0.065 C 
HETATM   18  C14 UNL     1      19.110  -0.322  52.787  1.00  0.00     0.019 C 
ENDBRANCH  14  15
ENDBRANCH  13  14
ENDBRANCH  10  12
BRANCH  10  19
HETATM   19  O1  UNL     1      26.327   2.540  52.668  1.00  0.00    -0.291 OA
BRANCH  19  20
HETATM   20  C15 UNL     1      27.008   1.303  52.898  1.00  0.00     0.213 A 
HETATM   21  N2  UNL     1      27.525   0.390  53.074  1.00  0.00    -0.193 NA
HETATM   22  C16 UNL     1      28.445  -0.385  53.433  1.00  0.00     0.171 A 
HETATM   23  C17 UNL     1      29.406   0.495  53.899  1.00  0.00     0.111 A 
HETATM   24  S2  UNL     1      28.575   2.149  53.627  1.00  0.00    -0.052 SA
BRANCH  22  25
HETATM   25  O2  UNL     1      28.565  -1.769  53.408  1.00  0.00    -0.344 OA
HETATM   26  H10 UNL     1      27.898  -2.337  52.932  1.00  0.00     0.219 HD
ENDBRANCH  22  25
ENDBRANCH  19  20
ENDBRANCH  10  19
ENDBRANCH   7   8
ENDBRANCH   6   7
ENDBRANCH   5   6
ENDBRANCH   4   5
TORSDOF 10
ENDMDL
MODEL 4
REMARK VINA RESULT:      -5.9      8.633     11.779
REMARK  10 active torsions:
REMARK  status: ('A' for Active; 'I' for Inactive)
REMARK    1  A    between atoms: C4_4  and  C5_5 
REMARK    2  A    between atoms: C5_5  and  C6_6 
REMARK    3  A    between atoms: C6_6  and  S1_7 
REMARK    4  A    between atoms: S1_7  and  C7_8 
REMARK    5  A    between atoms: C8_10  and  C9_11 
REMARK    6  A    between atoms: C8_10  and  O1_18 
REMARK    7  A    between atoms: C10_12  and  C11_13 
REMARK    8  A    between atoms: C11_13  and  C12_14 
REMARK    9  A    between atoms: O1_18  and  C15_19 
REMARK   10  A    between atoms: C16_21  and  O2_22 
ROOT
HETATM    1  C1  UNL     1      27.945   5.968  48.221  1.00  0.00     0.017 C 
HETATM    2  C2  UNL     1      27.304   5.140  48.771  1.00  0.00    -0.089 C 
HETATM    3  C3  UNL     1      26.531   4.151  49.403  1.00  0.00     0.063 C 
HETATM    4  C4  UNL     1      26.823   3.247  50.314  1.00  0.00     0.006 C 
ENDROOT
BRANCH   4   5
HETATM    5  C5  UNL     1      26.357   2.135  51.163  1.00  0.00    -0.009 C 
BRANCH   5   6
HETATM    6  C6  UNL     1      25.341   2.096  51.930  1.00  0.00     0.196 C 
BRANCH   6   7
HETATM    7  S1  UNL     1      23.958   1.676  52.910  1.00  0.00    -0.187 SA
BRANCH   7   8
HETATM    8  C7  UNL     1      22.470   1.379  51.950  1.00  0.00     0.058 A 
HETATM    9  N1  UNL     1      21.788   2.185  51.331  1.00  0.00    -0.245 NA
HETATM   10  C8  UNL     1      20.877   1.217  50.899  1.00  0.00     0.188 A 
HETATM   11  C18 UNL     1      21.664   0.214  51.645  1.00  0.00     0.133 A 
BRANCH  10  12
HETATM   12  C9  UNL     1      19.485   1.398  51.417  1.00  0.00     0.036 C 
HETATM   13  C10 UNL     1      18.876   0.244  51.488  1.00  0.00     0.003 C 
BRANCH  13  14
HETATM   14  C11 UNL     1      17.682  -0.513  51.817  1.00  0.00     0.033 C 
BRANCH  14  15
HETATM   15  C12 UNL     1      16.747  -1.252  52.352  1.00  0.00     0.086 C 
HETATM   16 CL1  UNL     1      14.993  -0.978  52.341  1.00  0.00    -0.074 Cl
HETATM   17  C13 UNL     1      17.097  -2.471  53.074  1.00  0.00    -0.065 C 
HETATM   18  C14 UNL     1      17.407  -3.488  53.667  1.00  0.00     0.019 C 
ENDBRANCH  14  15
ENDBRANCH  13  14
ENDBRANCH  10  12
BRANCH  10  19
HETATM   19  O1  UNL     1      20.851   0.923  49.510  1.00  0.00    -0.291 OA
BRANCH  19  20
HETATM   20  C15 UNL     1      20.473   1.989  48.633  1.00  0.00     0.213 A 
HETATM   21  N2  UNL     1      20.205   2.780  47.976  1.00  0.00    -0.193 NA
HETATM   22  C16 UNL     1      20.328   3.654  47.082  1.00  0.00     0.171 A 
HETATM   23  C17 UNL     1      21.649   3.500  46.700  1.00  0.00     0.111 A 
HETATM   24  S2  UNL     1      22.212   2.109  47.817  1.00  0.00    -0.052 SA
BRANCH  22  25
HETATM   25  O2  UNL     1      19.438   4.578  46.550  1.00  0.00    -0.344 OA
HETATM   26  H10 UNL     1      18.469   4.366  46.450  1.00  0.00     0.219 HD
ENDBRANCH  22  25
ENDBRANCH  19  20
ENDBRANCH  10  19
ENDBRANCH   7   8
ENDBRANCH   6   7
ENDBRANCH   5   6
ENDBRANCH   4   5
TORSDOF 10
ENDMDL
MODEL 5
REMARK VINA RESULT:      -5.9      9.227     11.532
REMARK  10 active torsions:
REMARK  status: ('A' for Active; 'I' for Inactive)
REMARK    1  A    between atoms: C4_4  and  C5_5 
REMARK    2  A    between atoms: C5_5  and  C6_6 
REMARK    3  A    between atoms: C6_6  and  S1_7 
REMARK    4  A    between atoms: S1_7  and  C7_8 
REMARK    5  A    between atoms: C8_10  and  C9_11 
REMARK    6  A    between atoms: C8_10  and  O1_18 
REMARK    7  A    between atoms: C10_12  and  C11_13 
REMARK    8  A    between atoms: C11_13  and  C12_14 
REMARK    9  A    between atoms: O1_18  and  C15_19 
REMARK   10  A    between atoms: C16_21  and  O2_22 
ROOT
HETATM    1  C1  UNL     1      19.290   5.775  43.549  1.00  0.00     0.017 C 
HETATM    2  C2  UNL     1      20.197   5.661  44.298  1.00  0.00    -0.089 C 
HETATM    3  C3  UNL     1      21.289   5.517  45.171  1.00  0.00     0.063 C 
HETATM    4  C4  UNL     1      21.738   6.263  46.158  1.00  0.00     0.006 C 
ENDROOT
BRANCH   4   5
HETATM    5  C5  UNL     1      22.743   6.456  47.219  1.00  0.00    -0.009 C 
BRANCH   5   6
HETATM    6  C6  UNL     1      22.668   6.135  48.450  1.00  0.00     0.196 C 
BRANCH   6   7
HETATM    7  S1  UNL     1      22.233   5.555  50.038  1.00  0.00    -0.187 SA
BRANCH   7   8
HETATM    8  C7  UNL     1      23.090   4.048  50.506  1.00  0.00     0.058 A 
HETATM    9  N1  UNL     1      23.216   3.555  51.619  1.00  0.00    -0.245 NA
HETATM   10  C8  UNL     1      23.965   2.473  51.153  1.00  0.00     0.188 A 
HETATM   11  C18 UNL     1      23.850   3.040  49.794  1.00  0.00     0.133 A 
BRANCH  10  12
HETATM   12  C9  UNL     1      25.370   2.421  51.667  1.00  0.00     0.036 C 
HETATM   13  C10 UNL     1      25.729   1.182  51.879  1.00  0.00     0.003 C 
BRANCH  13  14
HETATM   14  C11 UNL     1      26.743   0.238  52.310  1.00  0.00     0.033 C 
BRANCH  14  15
HETATM   15  C12 UNL     1      27.454  -0.804  52.651  1.00  0.00     0.086 C 
HETATM   16 CL1  UNL     1      27.024  -2.520  52.499  1.00  0.00    -0.074 Cl
HETATM   17  C13 UNL     1      28.776  -0.631  53.243  1.00  0.00    -0.065 C 
HETATM   18  C14 UNL     1      29.879  -0.466  53.730  1.00  0.00     0.019 C 
ENDBRANCH  14  15
ENDBRANCH  13  14
ENDBRANCH  10  12
BRANCH  10  19
HETATM   19  O1  UNL     1      23.367   1.187  51.228  1.00  0.00    -0.291 OA
BRANCH  19  20
HETATM   20  C15 UNL     1      22.541   0.927  52.367  1.00  0.00     0.213 A 
HETATM   21  N2  UNL     1      21.916   0.730  53.204  1.00  0.00    -0.193 NA
HETATM   22  C16 UNL     1      20.874   0.458  53.852  1.00  0.00     0.171 A 
HETATM   23  C17 UNL     1      19.930   0.328  52.849  1.00  0.00     0.111 A 
HETATM   24  S2  UNL     1      20.951   0.658  51.316  1.00  0.00    -0.052 SA
BRANCH  22  25
HETATM   25  O2  UNL     1      20.632   0.310  55.211  1.00  0.00    -0.344 OA
HETATM   26  H10 UNL     1      19.703   0.300  55.574  1.00  0.00     0.219 HD
ENDBRANCH  22  25
ENDBRANCH  19  20
ENDBRANCH  10  19
ENDBRANCH   7   8
ENDBRANCH   6   7
ENDBRANCH   5   6
ENDBRANCH   4   5
TORSDOF 10
ENDMDL
MODEL 6
REMARK VINA RESULT:      -5.8      6.655      9.812
REMARK  10 active torsions:
REMARK  status: ('A' for Active; 'I' for Inactive)
REMARK    1  A    between atoms: C4_4  and  C5_5 
REMARK    2  A    between atoms: C5_5  and  C6_6 
REMARK    3  A    between atoms: C6_6  and  S1_7 
REMARK    4  A    between atoms: S1_7  and  C7_8 
REMARK    5  A    between atoms: C8_10  and  C9_11 
REMARK    6  A    between atoms: C8_10  and  O1_18 
REMARK    7  A    between atoms: C10_12  and  C11_13 
REMARK    8  A    between atoms: C11_13  and  C12_14 
REMARK    9  A    between atoms: O1_18  and  C15_19 
REMARK   10  A    between atoms: C16_21  and  O2_22 
ROOT
HETATM    1  C1  UNL     1      20.662   8.243  50.112  1.00  0.00     0.017 C 
HETATM    2  C2  UNL     1      21.640   8.167  49.453  1.00  0.00    -0.089 C 
HETATM    3  C3  UNL     1      22.789   8.078  48.649  1.00  0.00     0.063 C 
HETATM    4  C4  UNL     1      23.980   8.632  48.741  1.00  0.00     0.006 C 
ENDROOT
BRANCH   4   5
HETATM    5  C5  UNL     1      25.331   8.787  48.173  1.00  0.00    -0.009 C 
BRANCH   5   6
HETATM    6  C6  UNL     1      26.315   7.982  48.237  1.00  0.00     0.196 C 
BRANCH   6   7
HETATM    7  S1  UNL     1      27.400   6.622  48.392  1.00  0.00    -0.187 SA
BRANCH   7   8
HETATM    8  C7  UNL     1      26.633   5.181  49.140  1.00  0.00     0.058 A 
HETATM    9  N1  UNL     1      25.703   5.137  49.935  1.00  0.00    -0.245 NA
HETATM   10  C8  UNL     1      25.721   3.743  50.017  1.00  0.00     0.188 A 
HETATM   11  C18 UNL     1      26.855   3.751  49.070  1.00  0.00     0.133 A 
BRANCH  10  12
HETATM   12  C9  UNL     1      26.069   3.204  51.369  1.00  0.00     0.036 C 
HETATM   13  C10 UNL     1      26.204   1.905  51.317  1.00  0.00     0.003 C 
BRANCH  13  14
HETATM   14  C11 UNL     1      26.489   0.657  52.000  1.00  0.00     0.033 C 
BRANCH  14  15
HETATM   15  C12 UNL     1      27.009  -0.365  52.626  1.00  0.00     0.086 C 
HETATM   16 CL1  UNL     1      26.801  -2.091  52.268  1.00  0.00    -0.074 Cl
HETATM   17  C13 UNL     1      27.878  -0.155  53.779  1.00  0.00    -0.065 C 
HETATM   18  C14 UNL     1      28.606   0.039  54.735  1.00  0.00     0.019 C 
ENDBRANCH  14  15
ENDBRANCH  13  14
ENDBRANCH  10  12
BRANCH  10  19
HETATM   19  O1  UNL     1      24.607   3.045  49.481  1.00  0.00    -0.291 OA
BRANCH  19  20
HETATM   20  C15 UNL     1      23.344   3.260  50.121  1.00  0.00     0.213 A 
HETATM   21  N2  UNL     1      22.400   3.413  50.585  1.00  0.00    -0.193 NA
HETATM   22  C16 UNL     1      21.155   3.382  50.747  1.00  0.00     0.171 A 
HETATM   23  C17 UNL     1      20.724   2.747  49.596  1.00  0.00     0.111 A 
HETATM   24  S2  UNL     1      22.338   2.433  48.703  1.00  0.00    -0.052 SA
BRANCH  22  25
HETATM   25  O2  UNL     1      20.335   3.839  51.771  1.00  0.00    -0.344 OA
HETATM   26  H10 UNL     1      20.040   3.234  52.508  1.00  0.00     0.219 HD
ENDBRANCH  22  25
ENDBRANCH  19  20
ENDBRANCH  10  19
ENDBRANCH   7   8
ENDBRANCH   6   7
ENDBRANCH   5   6
ENDBRANCH   4   5
TORSDOF 10
ENDMDL
MODEL 7
REMARK VINA RESULT:      -5.7      7.330     11.985
REMARK  10 active torsions:
REMARK  status: ('A' for Active; 'I' for Inactive)
REMARK    1  A    between atoms: C4_4  and  C5_5 
REMARK    2  A    between atoms: C5_5  and  C6_6 
REMARK    3  A    between atoms: C6_6  and  S1_7 
REMARK    4  A    between atoms: S1_7  and  C7_8 
REMARK    5  A    between atoms: C8_10  and  C9_11 
REMARK    6  A    between atoms: C8_10  and  O1_18 
REMARK    7  A    between atoms: C10_12  and  C11_13 
REMARK    8  A    between atoms: C11_13  and  C12_14 
REMARK    9  A    between atoms: O1_18  and  C15_19 
REMARK   10  A    between atoms: C16_21  and  O2_22 
ROOT
HETATM    1  C1  UNL     1      16.649   0.329  50.059  1.00  0.00     0.017 C 
HETATM    2  C2  UNL     1      17.676   0.281  50.642  1.00  0.00    -0.089 C 
HETATM    3  C3  UNL     1      18.903   0.246  51.327  1.00  0.00     0.063 C 
HETATM    4  C4  UNL     1      19.230  -0.148  52.540  1.00  0.00     0.006 C 
ENDROOT
BRANCH   4   5
HETATM    5  C5  UNL     1      20.289  -0.337  53.548  1.00  0.00    -0.009 C 
BRANCH   5   6
HETATM    6  C6  UNL     1      21.484   0.105  53.534  1.00  0.00     0.196 C 
BRANCH   6   7
HETATM    7  S1  UNL     1      23.173   0.446  53.254  1.00  0.00    -0.187 SA
BRANCH   7   8
HETATM    8  C7  UNL     1      23.451   1.632  51.935  1.00  0.00     0.058 A 
HETATM    9  N1  UNL     1      24.448   1.783  51.241  1.00  0.00    -0.245 NA
HETATM   10  C8  UNL     1      23.891   2.838  50.513  1.00  0.00     0.188 A 
HETATM   11  C18 UNL     1      22.673   2.700  51.337  1.00  0.00     0.133 A 
BRANCH  10  12
HETATM   12  C9  UNL     1      24.590   4.149  50.686  1.00  0.00     0.036 C 
HETATM   13  C10 UNL     1      25.479   4.317  49.742  1.00  0.00     0.003 C 
BRANCH  13  14
HETATM   14  C11 UNL     1      26.509   5.140  49.136  1.00  0.00     0.033 C 
BRANCH  14  15
HETATM   15  C12 UNL     1      27.216   6.018  48.476  1.00  0.00     0.086 C 
HETATM   16 CL1  UNL     1      26.680   7.567  47.795  1.00  0.00    -0.074 Cl
HETATM   17  C13 UNL     1      28.632   5.776  48.217  1.00  0.00    -0.065 C 
HETATM   18  C14 UNL     1      29.812   5.561  48.015  1.00  0.00     0.019 C 
ENDBRANCH  14  15
ENDBRANCH  13  14
ENDBRANCH  10  12
BRANCH  10  19
HETATM   19  O1  UNL     1      23.614   2.606  49.140  1.00  0.00    -0.291 OA
BRANCH  19  20
HETATM   20  C15 UNL     1      22.235   2.540  48.764  1.00  0.00     0.213 A 
HETATM   21  N2  UNL     1      21.212   2.502  48.476  1.00  0.00    -0.193 NA
HETATM   22  C16 UNL     1      20.141   2.832  47.910  1.00  0.00     0.171 A 
HETATM   23  C17 UNL     1      20.514   3.968  47.213  1.00  0.00     0.111 A 
HETATM   24  S2  UNL     1      22.324   4.116  47.663  1.00  0.00    -0.052 SA
BRANCH  22  25
HETATM   25  O2  UNL     1      18.868   2.275  47.920  1.00  0.00    -0.344 OA
HETATM   26  H10 UNL     1      18.066   2.810  47.663  1.00  0.00     0.219 HD
ENDBRANCH  22  25
ENDBRANCH  19  20
ENDBRANCH  10  19
ENDBRANCH   7   8
ENDBRANCH   6   7
ENDBRANCH   5   6
ENDBRANCH   4   5
TORSDOF 10
ENDMDL
MODEL 8
REMARK VINA RESULT:      -5.6      5.948     10.718
REMARK  10 active torsions:
REMARK  status: ('A' for Active; 'I' for Inactive)
REMARK    1  A    between atoms: C4_4  and  C5_5 
REMARK    2  A    between atoms: C5_5  and  C6_6 
REMARK    3  A    between atoms: C6_6  and  S1_7 
REMARK    4  A    between atoms: S1_7  and  C7_8 
REMARK    5  A    between atoms: C8_10  and  C9_11 
REMARK    6  A    between atoms: C8_10  and  O1_18 
REMARK    7  A    between atoms: C10_12  and  C11_13 
REMARK    8  A    between atoms: C11_13  and  C12_14 
REMARK    9  A    between atoms: O1_18  and  C15_19 
REMARK   10  A    between atoms: C16_21  and  O2_22 
ROOT
HETATM    1  C1  UNL     1      18.423  10.282  49.331  1.00  0.00     0.017 C 
HETATM    2  C2  UNL     1      19.212   9.409  49.231  1.00  0.00    -0.089 C 
HETATM    3  C3  UNL     1      20.169   8.386  49.118  1.00  0.00     0.063 C 
HETATM    4  C4  UNL     1      20.164   7.123  49.489  1.00  0.00     0.006 C 
ENDROOT
BRANCH   4   5
HETATM    5  C5  UNL     1      20.883   5.837  49.553  1.00  0.00    -0.009 C 
BRANCH   5   6
HETATM    6  C6  UNL     1      21.268   5.194  50.583  1.00  0.00     0.196 C 
BRANCH   6   7
HETATM    7  S1  UNL     1      22.089   4.544  51.980  1.00  0.00    -0.187 SA
BRANCH   7   8
HETATM    8  C7  UNL     1      23.460   3.463  51.560  1.00  0.00     0.058 A 
HETATM    9  N1  UNL     1      24.652   3.617  51.793  1.00  0.00    -0.245 NA
HETATM   10  C8  UNL     1      25.018   2.417  51.179  1.00  0.00     0.188 A 
HETATM   11  C18 UNL     1      23.591   2.198  50.865  1.00  0.00     0.133 A 
BRANCH  10  12
HETATM   12  C9  UNL     1      25.883   2.576  49.968  1.00  0.00     0.036 C 
HETATM   13  C10 UNL     1      26.142   3.841  49.760  1.00  0.00     0.003 C 
BRANCH  13  14
HETATM   14  C11 UNL     1      26.794   4.861  48.961  1.00  0.00     0.033 C 
BRANCH  14  15
HETATM   15  C12 UNL     1      27.400   5.918  48.488  1.00  0.00     0.086 C 
HETATM   16 CL1  UNL     1      26.707   7.517  48.150  1.00  0.00    -0.074 Cl
HETATM   17  C13 UNL     1      28.821   5.867  48.163  1.00  0.00    -0.065 C 
HETATM   18  C14 UNL     1      30.009   5.808  47.904  1.00  0.00     0.019 C 
ENDBRANCH  14  15
ENDBRANCH  13  14
ENDBRANCH  10  12
BRANCH  10  19
HETATM   19  O1  UNL     1      25.526   1.387  52.013  1.00  0.00    -0.291 OA
BRANCH  19  20
HETATM   20  C15 UNL     1      26.723   1.680  52.742  1.00  0.00     0.213 A 
HETATM   21  N2  UNL     1      27.611   1.885  53.288  1.00  0.00    -0.193 NA
HETATM   22  C16 UNL     1      28.550   1.716  54.106  1.00  0.00     0.171 A 
HETATM   23  C17 UNL     1      28.249   0.479  54.648  1.00  0.00     0.111 A 
HETATM   24  S2  UNL     1      26.680   0.031  53.733  1.00  0.00    -0.052 SA
BRANCH  22  25
HETATM   25  O2  UNL     1      29.642   2.503  54.450  1.00  0.00    -0.344 OA
HETATM   26  H10 UNL     1      29.583   3.181  55.180  1.00  0.00     0.219 HD
ENDBRANCH  22  25
ENDBRANCH  19  20
ENDBRANCH  10  19
ENDBRANCH   7   8
ENDBRANCH   6   7
ENDBRANCH   5   6
ENDBRANCH   4   5
TORSDOF 10
ENDMDL
MODEL 9
REMARK VINA RESULT:      -5.6      7.659     10.892
REMARK  10 active torsions:
REMARK  status: ('A' for Active; 'I' for Inactive)
REMARK    1  A    between atoms: C4_4  and  C5_5 
REMARK    2  A    between atoms: C5_5  and  C6_6 
REMARK    3  A    between atoms: C6_6  and  S1_7 
REMARK    4  A    between atoms: S1_7  and  C7_8 
REMARK    5  A    between atoms: C8_10  and  C9_11 
REMARK    6  A    between atoms: C8_10  and  O1_18 
REMARK    7  A    between atoms: C10_12  and  C11_13 
REMARK    8  A    between atoms: C11_13  and  C12_14 
REMARK    9  A    between atoms: O1_18  and  C15_19 
REMARK   10  A    between atoms: C16_21  and  O2_22 
ROOT
HETATM    1  C1  UNL     1      29.861   6.712  47.813  1.00  0.00     0.017 C 
HETATM    2  C2  UNL     1      28.796   6.295  48.113  1.00  0.00    -0.089 C 
HETATM    3  C3  UNL     1      27.540   5.777  48.474  1.00  0.00     0.063 C 
HETATM    4  C4  UNL     1      26.522   6.298  49.126  1.00  0.00     0.006 C 
ENDROOT
BRANCH   4   5
HETATM    5  C5  UNL     1      25.160   6.119  49.661  1.00  0.00    -0.009 C 
BRANCH   5   6
HETATM    6  C6  UNL     1      24.359   5.145  49.482  1.00  0.00     0.196 C 
BRANCH   6   7
HETATM    7  S1  UNL     1      23.575   3.617  49.172  1.00  0.00    -0.187 SA
BRANCH   7   8
HETATM    8  C7  UNL     1      22.804   2.903  50.628  1.00  0.00     0.058 A 
HETATM    9  N1  UNL     1      22.361   1.773  50.781  1.00  0.00    -0.245 NA
HETATM   10  C8  UNL     1      21.962   2.011  52.099  1.00  0.00     0.188 A 
HETATM   11  C18 UNL     1      22.473   3.390  51.953  1.00  0.00     0.133 A 
BRANCH  10  12
HETATM   12  C9  UNL     1      20.485   1.936  52.325  1.00  0.00     0.036 C 
HETATM   13  C10 UNL     1      20.087   0.691  52.309  1.00  0.00     0.003 C 
BRANCH  13  14
HETATM   14  C11 UNL     1      19.005  -0.270  52.417  1.00  0.00     0.033 C 
BRANCH  14  15
HETATM   15  C12 UNL     1      17.893  -0.953  52.348  1.00  0.00     0.086 C 
HETATM   16 CL1  UNL     1      16.490  -0.655  51.302  1.00  0.00    -0.074 Cl
HETATM   17  C13 UNL     1      17.691  -2.117  53.203  1.00  0.00    -0.065 C 
HETATM   18  C14 UNL     1      17.542  -3.089  53.920  1.00  0.00     0.019 C 
ENDBRANCH  14  15
ENDBRANCH  13  14
ENDBRANCH  10  12
BRANCH  10  19
HETATM   19  O1  UNL     1      22.652   1.312  53.124  1.00  0.00    -0.291 OA
BRANCH  19  20
HETATM   20  C15 UNL     1      24.009   1.698  53.366  1.00  0.00     0.213 A 
HETATM   21  N2  UNL     1      25.021   1.972  53.542  1.00  0.00    -0.193 NA
HETATM   22  C16 UNL     1      26.269   1.856  53.630  1.00  0.00     0.171 A 
HETATM   23  C17 UNL     1      26.467   0.534  53.273  1.00  0.00     0.111 A 
HETATM   24  S2  UNL     1      24.718  -0.040  52.939  1.00  0.00    -0.052 SA
BRANCH  22  25
HETATM   25  O2  UNL     1      27.267   2.753  53.986  1.00  0.00    -0.344 OA
HETATM   26  H10 UNL     1      27.388   3.047  54.931  1.00  0.00     0.219 HD
ENDBRANCH  22  25
ENDBRANCH  19  20
ENDBRANCH  10  19
ENDBRANCH   7   8
ENDBRANCH   6   7
ENDBRANCH   5   6
ENDBRANCH   4   5
TORSDOF 10
ENDMDL
