MODEL 1
REMARK VINA RESULT:      -8.4      0.000      0.000
REMARK  4 active torsions:
REMARK  status: ('A' for Active; 'I' for Inactive)
REMARK    1  A    between atoms: C5_5  and  C6_6 
REMARK    2  A    between atoms: C8_9  and  C9_10 
REMARK    3  A    between atoms: N1_17  and  C15_18 
REMARK    4  A    between atoms: C16_20  and  O2_21 
ROOT
HETATM    1  C6  UNL     1      21.662   0.582  54.178  1.00  0.00     0.260 C 
HETATM    2  O1  UNL     1      21.699  -0.612  54.848  1.00  0.00    -0.360 OA
HETATM    3  C7  UNL     1      22.998  -1.090  54.815  1.00  0.00     0.201 C 
HETATM    4  C8  UNL     1      23.582  -0.580  53.543  1.00  0.00     0.146 C 
HETATM    5  N1  UNL     1      22.912   0.694  53.411  1.00  0.00    -0.318 N 
ENDROOT
BRANCH   1   6
HETATM    6  C5  UNL     1      20.497   0.556  53.254  1.00  0.00    -0.010 A 
HETATM    7  C4  UNL     1      19.712  -0.576  53.065  1.00  0.00     0.012 A 
HETATM    8  C3  UNL     1      18.628  -0.622  52.213  1.00  0.00     0.007 A 
HETATM    9  C2  UNL     1      18.289   0.509  51.498  1.00  0.00    -0.062 A 
HETATM   10  C1  UNL     1      17.103   0.384  50.596  1.00  0.00     0.048 C 
HETATM   11  C19 UNL     1      19.031   1.657  51.647  1.00  0.00     0.007 A 
HETATM   12  C18 UNL     1      20.110   1.673  52.507  1.00  0.00     0.012 A 
ENDBRANCH   1   6
BRANCH   5  13
HETATM   13  C15 UNL     1      23.233   1.903  52.732  1.00  0.00     0.174 A 
HETATM   14  N2  UNL     1      23.446   3.139  53.182  1.00  0.00    -0.200 NA
HETATM   15  C16 UNL     1      23.727   4.024  52.223  1.00  0.00     0.171 A 
HETATM   16  C17 UNL     1      23.799   3.626  50.703  1.00  0.00     0.111 A 
HETATM   17  S1  UNL     1      23.389   1.796  50.975  1.00  0.00    -0.060 SA
BRANCH  15  18
HETATM   18  O2  UNL     1      23.919   5.261  52.881  1.00  0.00    -0.344 OA
HETATM   19  H14 UNL     1      23.396   6.074  52.637  1.00  0.00     0.219 HD
ENDBRANCH  15  18
ENDBRANCH   5  13
BRANCH   4  20
HETATM   20  C9  UNL     1      25.050  -0.462  53.553  1.00  0.00    -0.033 A 
HETATM   21  C10 UNL     1      25.857  -0.748  52.470  1.00  0.00     0.011 A 
HETATM   22  C11 UNL     1      27.233  -0.625  52.516  1.00  0.00     0.024 A 
HETATM   23  C12 UNL     1      27.784  -0.197  53.715  1.00  0.00     0.034 A 
HETATM   24 CL1  UNL     1      29.540  -0.049  53.751  1.00  0.00    -0.084 Cl
HETATM   25  C13 UNL     1      26.995   0.091  54.806  1.00  0.00     0.024 A 
HETATM   26  C14 UNL     1      25.608  -0.034  54.756  1.00  0.00     0.011 A 
ENDBRANCH   4  20
TORSDOF 4
ENDMDL
MODEL 2
REMARK VINA RESULT:      -7.5      1.555      2.003
REMARK  4 active torsions:
REMARK  status: ('A' for Active; 'I' for Inactive)
REMARK    1  A    between atoms: C5_5  and  C6_6 
REMARK    2  A    between atoms: C8_9  and  C9_10 
REMARK    3  A    between atoms: N1_17  and  C15_18 
REMARK    4  A    between atoms: C16_20  and  O2_21 
ROOT
HETATM    1  C6  UNL     1      21.211   1.854  52.993  1.00  0.00     0.260 C 
HETATM    2  O1  UNL     1      21.141   0.596  53.532  1.00  0.00    -0.360 OA
HETATM    3  C7  UNL     1      22.425   0.087  53.620  1.00  0.00     0.201 C 
HETATM    4  C8  UNL     1      23.181   0.707  52.496  1.00  0.00     0.146 C 
HETATM    5  N1  UNL     1      22.554   2.007  52.413  1.00  0.00    -0.318 N 
ENDROOT
BRANCH   1   6
HETATM    6  C5  UNL     1      20.180   1.956  51.926  1.00  0.00    -0.010 A 
HETATM    7  C4  UNL     1      19.447   3.115  51.696  1.00  0.00     0.012 A 
HETATM    8  C3  UNL     1      18.487   3.232  50.713  1.00  0.00     0.007 A 
HETATM    9  C2  UNL     1      18.223   2.147  49.902  1.00  0.00    -0.062 A 
HETATM   10  C1  UNL     1      17.171   2.348  48.859  1.00  0.00     0.048 C 
HETATM   11  C19 UNL     1      18.919   0.974  50.085  1.00  0.00     0.007 A 
HETATM   12  C18 UNL     1      19.874   0.888  51.077  1.00  0.00     0.012 A 
ENDBRANCH   1   6
BRANCH   5  13
HETATM   13  C15 UNL     1      22.981   3.270  51.913  1.00  0.00     0.174 A 
HETATM   14  N2  UNL     1      23.426   4.361  52.535  1.00  0.00    -0.200 NA
HETATM   15  C16 UNL     1      23.735   5.366  51.712  1.00  0.00     0.171 A 
HETATM   16  C17 UNL     1      23.583   5.254  50.150  1.00  0.00     0.111 A 
HETATM   17  S1  UNL     1      22.931   3.475  50.159  1.00  0.00    -0.060 SA
BRANCH  15  18
HETATM   18  O2  UNL     1      24.182   6.421  52.540  1.00  0.00    -0.344 OA
HETATM   19  H14 UNL     1      25.145   6.547  52.760  1.00  0.00     0.219 HD
ENDBRANCH  15  18
ENDBRANCH   5  13
BRANCH   4  20
HETATM   20  C9  UNL     1      24.636   0.781  52.712  1.00  0.00    -0.033 A 
HETATM   21  C10 UNL     1      25.537   1.232  51.767  1.00  0.00     0.011 A 
HETATM   22  C11 UNL     1      26.897   1.287  52.005  1.00  0.00     0.024 A 
HETATM   23  C12 UNL     1      27.333   0.864  53.252  1.00  0.00     0.034 A 
HETATM   24 CL1  UNL     1      29.071   0.942  53.532  1.00  0.00    -0.084 Cl
HETATM   25  C13 UNL     1      26.450   0.410  54.205  1.00  0.00     0.024 A 
HETATM   26  C14 UNL     1      25.079   0.355  53.963  1.00  0.00     0.011 A 
ENDBRANCH   4  20
TORSDOF 4
ENDMDL
MODEL 3
REMARK VINA RESULT:      -7.4      3.258      7.167
REMARK  4 active torsions:
REMARK  status: ('A' for Active; 'I' for Inactive)
REMARK    1  A    between atoms: C5_5  and  C6_6 
REMARK    2  A    between atoms: C8_9  and  C9_10 
REMARK    3  A    between atoms: N1_17  and  C15_18 
REMARK    4  A    between atoms: C16_20  and  O2_21 
ROOT
HETATM    1  C6  UNL     1      24.845   2.418  52.699  1.00  0.00     0.260 C 
HETATM    2  O1  UNL     1      25.243   3.268  51.701  1.00  0.00    -0.360 OA
HETATM    3  C7  UNL     1      24.217   3.365  50.777  1.00  0.00     0.201 C 
HETATM    4  C8  UNL     1      23.511   2.054  50.820  1.00  0.00     0.146 C 
HETATM    5  N1  UNL     1      23.660   1.695  52.213  1.00  0.00    -0.318 N 
ENDROOT
BRANCH   1   6
HETATM    6  C5  UNL     1      25.955   1.461  52.958  1.00  0.00    -0.010 A 
HETATM    7  C4  UNL     1      26.459   0.611  51.981  1.00  0.00     0.012 A 
HETATM    8  C3  UNL     1      27.486  -0.283  52.200  1.00  0.00     0.007 A 
HETATM    9  C2  UNL     1      28.058  -0.353  53.454  1.00  0.00    -0.062 A 
HETATM   10  C1  UNL     1      29.165  -1.344  53.617  1.00  0.00     0.048 C 
HETATM   11  C19 UNL     1      27.598   0.466  54.459  1.00  0.00     0.007 A 
HETATM   12  C18 UNL     1      26.569   1.351  54.209  1.00  0.00     0.012 A 
ENDBRANCH   1   6
BRANCH   5  13
HETATM   13  C15 UNL     1      22.925   0.849  53.089  1.00  0.00     0.174 A 
HETATM   14  N2  UNL     1      21.794   1.046  53.766  1.00  0.00    -0.200 NA
HETATM   15  C16 UNL     1      21.409  -0.003  54.496  1.00  0.00     0.171 A 
HETATM   16  C17 UNL     1      22.228  -1.346  54.541  1.00  0.00     0.111 A 
HETATM   17  S1  UNL     1      23.591  -0.766  53.358  1.00  0.00    -0.060 SA
BRANCH  15  18
HETATM   18  O2  UNL     1      20.209   0.388  55.134  1.00  0.00    -0.344 OA
HETATM   19  H14 UNL     1      20.189   1.109  55.822  1.00  0.00     0.219 HD
ENDBRANCH  15  18
ENDBRANCH   5  13
BRANCH   4  20
HETATM   20  C9  UNL     1      22.106   2.107  50.384  1.00  0.00    -0.033 A 
HETATM   21  C10 UNL     1      21.456   1.073  49.738  1.00  0.00     0.011 A 
HETATM   22  C11 UNL     1      20.134   1.159  49.343  1.00  0.00     0.024 A 
HETATM   23  C12 UNL     1      19.472   2.344  49.625  1.00  0.00     0.034 A 
HETATM   24 CL1  UNL     1      17.788   2.430  49.111  1.00  0.00    -0.084 Cl
HETATM   25  C13 UNL     1      20.103   3.385  50.267  1.00  0.00     0.024 A 
HETATM   26  C14 UNL     1      21.436   3.296  50.663  1.00  0.00     0.011 A 
ENDBRANCH   4  20
TORSDOF 4
ENDMDL
MODEL 4
REMARK VINA RESULT:      -7.3      3.547      6.710
REMARK  4 active torsions:
REMARK  status: ('A' for Active; 'I' for Inactive)
REMARK    1  A    between atoms: C5_5  and  C6_6 
REMARK    2  A    between atoms: C8_9  and  C9_10 
REMARK    3  A    between atoms: N1_17  and  C15_18 
REMARK    4  A    between atoms: C16_20  and  O2_21 
ROOT
HETATM    1  C6  UNL     1      25.833   3.297  49.747  1.00  0.00     0.260 C 
HETATM    2  O1  UNL     1      26.894   2.773  50.438  1.00  0.00    -0.360 OA
HETATM    3  C7  UNL     1      26.400   1.971  51.452  1.00  0.00     0.201 C 
HETATM    4  C8  UNL     1      25.090   2.567  51.834  1.00  0.00     0.146 C 
HETATM    5  N1  UNL     1      24.629   3.083  50.565  1.00  0.00    -0.318 N 
ENDROOT
BRANCH   1   6
HETATM    6  C5  UNL     1      26.074   4.754  49.567  1.00  0.00    -0.010 A 
HETATM    7  C4  UNL     1      25.370   5.725  50.269  1.00  0.00     0.012 A 
HETATM    8  C3  UNL     1      25.577   7.081  50.118  1.00  0.00     0.007 A 
HETATM    9  C2  UNL     1      26.534   7.516  49.223  1.00  0.00    -0.062 A 
HETATM   10  C1  UNL     1      26.703   8.997  49.113  1.00  0.00     0.048 C 
HETATM   11  C19 UNL     1      27.261   6.598  48.502  1.00  0.00     0.007 A 
HETATM   12  C18 UNL     1      27.031   5.249  48.676  1.00  0.00     0.012 A 
ENDBRANCH   1   6
BRANCH   5  13
HETATM   13  C15 UNL     1      23.341   3.384  50.040  1.00  0.00     0.174 A 
HETATM   14  N2  UNL     1      22.397   4.232  50.447  1.00  0.00    -0.200 NA
HETATM   15  C16 UNL     1      21.303   4.234  49.682  1.00  0.00     0.171 A 
HETATM   16  C17 UNL     1      21.159   3.312  48.415  1.00  0.00     0.111 A 
HETATM   17  S1  UNL     1      22.862   2.500  48.587  1.00  0.00    -0.060 SA
BRANCH  15  18
HETATM   18  O2  UNL     1      20.426   5.180  50.261  1.00  0.00    -0.344 OA
HETATM   19  H14 UNL     1      19.509   5.335  49.905  1.00  0.00     0.219 HD
ENDBRANCH  15  18
ENDBRANCH   5  13
BRANCH   4  20
HETATM   20  C9  UNL     1      24.147   1.616  52.447  1.00  0.00    -0.033 A 
HETATM   21  C10 UNL     1      22.816   1.894  52.692  1.00  0.00     0.011 A 
HETATM   22  C11 UNL     1      21.960   0.976  53.270  1.00  0.00     0.024 A 
HETATM   23  C12 UNL     1      22.497  -0.259  53.602  1.00  0.00     0.034 A 
HETATM   24 CL1  UNL     1      21.386  -1.413  54.337  1.00  0.00    -0.084 Cl
HETATM   25  C13 UNL     1      23.820  -0.553  53.366  1.00  0.00     0.024 A 
HETATM   26  C14 UNL     1      24.682   0.374  52.784  1.00  0.00     0.011 A 
ENDBRANCH   4  20
TORSDOF 4
ENDMDL
MODEL 5
REMARK VINA RESULT:      -7.3      3.421      6.804
REMARK  4 active torsions:
REMARK  status: ('A' for Active; 'I' for Inactive)
REMARK    1  A    between atoms: C5_5  and  C6_6 
REMARK    2  A    between atoms: C8_9  and  C9_10 
REMARK    3  A    between atoms: N1_17  and  C15_18 
REMARK    4  A    between atoms: C16_20  and  O2_21 
ROOT
HETATM    1  C6  UNL     1      23.528   0.124  52.236  1.00  0.00     0.260 C 
HETATM    2  O1  UNL     1      23.005  -0.463  53.358  1.00  0.00    -0.360 OA
HETATM    3  C7  UNL     1      21.682  -0.075  53.477  1.00  0.00     0.201 C 
HETATM    4  C8  UNL     1      21.605   1.283  52.870  1.00  0.00     0.146 C 
HETATM    5  N1  UNL     1      22.596   1.185  51.822  1.00  0.00    -0.318 N 
ENDROOT
BRANCH   1   6
HETATM    6  C5  UNL     1      24.845   0.715  52.596  1.00  0.00    -0.010 A 
HETATM    7  C4  UNL     1      24.969   1.838  53.407  1.00  0.00     0.012 A 
HETATM    8  C3  UNL     1      26.179   2.402  53.753  1.00  0.00     0.007 A 
HETATM    9  C2  UNL     1      27.344   1.834  53.277  1.00  0.00    -0.062 A 
HETATM   10  C1  UNL     1      28.616   2.499  53.693  1.00  0.00     0.048 C 
HETATM   11  C19 UNL     1      27.279   0.721  52.471  1.00  0.00     0.007 A 
HETATM   12  C18 UNL     1      26.053   0.180  52.142  1.00  0.00     0.012 A 
ENDBRANCH   1   6
BRANCH   5  13
HETATM   13  C15 UNL     1      22.792   1.874  50.592  1.00  0.00     0.174 A 
HETATM   14  N2  UNL     1      23.567   2.909  50.273  1.00  0.00    -0.200 NA
HETATM   15  C16 UNL     1      23.477   3.280  48.994  1.00  0.00     0.171 A 
HETATM   16  C17 UNL     1      22.538   2.547  47.967  1.00  0.00     0.111 A 
HETATM   17  S1  UNL     1      21.862   1.285  49.210  1.00  0.00    -0.060 SA
BRANCH  15  18
HETATM   18  O2  UNL     1      24.358   4.377  48.846  1.00  0.00    -0.344 OA
HETATM   19  H14 UNL     1      25.344   4.255  48.779  1.00  0.00     0.219 HD
ENDBRANCH  15  18
ENDBRANCH   5  13
BRANCH   4  20
HETATM   20  C9  UNL     1      20.269   1.649  52.370  1.00  0.00    -0.033 A 
HETATM   21  C10 UNL     1      19.855   2.948  52.147  1.00  0.00     0.011 A 
HETATM   22  C11 UNL     1      18.592   3.254  51.675  1.00  0.00     0.024 A 
HETATM   23  C12 UNL     1      17.740   2.188  51.430  1.00  0.00     0.034 A 
HETATM   24 CL1  UNL     1      16.135   2.603  50.830  1.00  0.00    -0.084 Cl
HETATM   25  C13 UNL     1      18.135   0.888  51.647  1.00  0.00     0.024 A 
HETATM   26  C14 UNL     1      19.409   0.582  52.122  1.00  0.00     0.011 A 
ENDBRANCH   4  20
TORSDOF 4
ENDMDL
MODEL 6
REMARK VINA RESULT:      -7.2      3.905      7.083
REMARK  4 active torsions:
REMARK  status: ('A' for Active; 'I' for Inactive)
REMARK    1  A    between atoms: C5_5  and  C6_6 
REMARK    2  A    between atoms: C8_9  and  C9_10 
REMARK    3  A    between atoms: N1_17  and  C15_18 
REMARK    4  A    between atoms: C16_20  and  O2_21 
ROOT
HETATM    1  C6  UNL     1      23.430   2.861  52.678  1.00  0.00     0.260 C 
HETATM    2  O1  UNL     1      23.936   3.816  53.520  1.00  0.00    -0.360 OA
HETATM    3  C7  UNL     1      23.835   5.046  52.895  1.00  0.00     0.201 C 
HETATM    4  C8  UNL     1      23.948   4.767  51.436  1.00  0.00     0.146 C 
HETATM    5  N1  UNL     1      23.316   3.470  51.344  1.00  0.00    -0.318 N 
ENDROOT
BRANCH   1   6
HETATM    6  C5  UNL     1      24.389   1.725  52.639  1.00  0.00    -0.010 A 
HETATM    7  C4  UNL     1      24.127   0.498  53.237  1.00  0.00     0.012 A 
HETATM    8  C3  UNL     1      25.002  -0.568  53.213  1.00  0.00     0.007 A 
HETATM    9  C2  UNL     1      26.212  -0.427  52.565  1.00  0.00    -0.062 A 
HETATM   10  C1  UNL     1      27.108  -1.624  52.580  1.00  0.00     0.048 C 
HETATM   11  C19 UNL     1      26.524   0.766  51.956  1.00  0.00     0.007 A 
HETATM   12  C18 UNL     1      25.628   1.815  51.997  1.00  0.00     0.012 A 
ENDBRANCH   1   6
BRANCH   5  13
HETATM   13  C15 UNL     1      22.672   2.768  50.286  1.00  0.00     0.174 A 
HETATM   14  N2  UNL     1      23.044   2.530  49.029  1.00  0.00    -0.200 NA
HETATM   15  C16 UNL     1      22.157   1.822  48.326  1.00  0.00     0.171 A 
HETATM   16  C17 UNL     1      20.800   1.320  48.942  1.00  0.00     0.111 A 
HETATM   17  S1  UNL     1      21.094   2.066  50.659  1.00  0.00    -0.060 SA
BRANCH  15  18
HETATM   18  O2  UNL     1      22.717   1.672  47.036  1.00  0.00    -0.344 OA
HETATM   19  H14 UNL     1      23.250   0.869  46.784  1.00  0.00     0.219 HD
ENDBRANCH  15  18
ENDBRANCH   5  13
BRANCH   4  20
HETATM   20  C9  UNL     1      23.317   5.780  50.574  1.00  0.00    -0.033 A 
HETATM   21  C10 UNL     1      23.813   6.167  49.344  1.00  0.00     0.011 A 
HETATM   22  C11 UNL     1      23.193   7.123  48.561  1.00  0.00     0.024 A 
HETATM   23  C12 UNL     1      22.032   7.690  49.066  1.00  0.00     0.034 A 
HETATM   24 CL1  UNL     1      21.260   8.905  48.050  1.00  0.00    -0.084 Cl
HETATM   25  C13 UNL     1      21.524   7.316  50.289  1.00  0.00     0.024 A 
HETATM   26  C14 UNL     1      22.151   6.353  51.076  1.00  0.00     0.011 A 
ENDBRANCH   4  20
TORSDOF 4
ENDMDL
MODEL 7
REMARK VINA RESULT:      -7.0      4.130      7.451
REMARK  4 active torsions:
REMARK  status: ('A' for Active; 'I' for Inactive)
REMARK    1  A    between atoms: C5_5  and  C6_6 
REMARK    2  A    between atoms: C8_9  and  C9_10 
REMARK    3  A    between atoms: N1_17  and  C15_18 
REMARK    4  A    between atoms: C16_20  and  O2_21 
ROOT
HETATM    1  C6  UNL     1      25.839   3.270  49.679  1.00  0.00     0.260 C 
HETATM    2  O1  UNL     1      26.486   2.813  50.796  1.00  0.00    -0.360 OA
HETATM    3  C7  UNL     1      25.539   2.310  51.672  1.00  0.00     0.201 C 
HETATM    4  C8  UNL     1      24.301   3.100  51.425  1.00  0.00     0.146 C 
HETATM    5  N1  UNL     1      24.408   3.362  50.007  1.00  0.00    -0.318 N 
ENDROOT
BRANCH   1   6
HETATM    6  C5  UNL     1      26.375   4.619  49.355  1.00  0.00    -0.010 A 
HETATM    7  C4  UNL     1      27.537   4.809  48.616  1.00  0.00     0.012 A 
HETATM    8  C3  UNL     1      28.052   6.051  48.305  1.00  0.00     0.007 A 
HETATM    9  C2  UNL     1      27.390   7.180  48.743  1.00  0.00    -0.062 A 
HETATM   10  C1  UNL     1      28.005   8.489  48.368  1.00  0.00     0.048 C 
HETATM   11  C19 UNL     1      26.234   7.049  49.479  1.00  0.00     0.007 A 
HETATM   12  C18 UNL     1      25.744   5.794  49.774  1.00  0.00     0.012 A 
ENDBRANCH   1   6
BRANCH   5  13
HETATM   13  C15 UNL     1      23.456   3.661  48.992  1.00  0.00     0.174 A 
HETATM   14  N2  UNL     1      22.961   4.819  48.558  1.00  0.00    -0.200 NA
HETATM   15  C16 UNL     1      22.070   4.694  47.573  1.00  0.00     0.171 A 
HETATM   16  C17 UNL     1      21.654   3.295  46.986  1.00  0.00     0.111 A 
HETATM   17  S1  UNL     1      22.779   2.279  48.123  1.00  0.00    -0.060 SA
BRANCH  15  18
HETATM   18  O2  UNL     1      21.662   6.009  47.249  1.00  0.00    -0.344 OA
HETATM   19  H14 UNL     1      20.819   6.401  47.605  1.00  0.00     0.219 HD
ENDBRANCH  15  18
ENDBRANCH   5  13
BRANCH   4  20
HETATM   20  C9  UNL     1      23.056   2.406  51.792  1.00  0.00    -0.033 A 
HETATM   21  C10 UNL     1      21.878   3.050  52.117  1.00  0.00     0.011 A 
HETATM   22  C11 UNL     1      20.726   2.365  52.457  1.00  0.00     0.024 A 
HETATM   23  C12 UNL     1      20.799   0.980  52.460  1.00  0.00     0.034 A 
HETATM   24 CL1  UNL     1      19.319   0.128  52.897  1.00  0.00    -0.084 Cl
HETATM   25  C13 UNL     1      21.964   0.321  52.140  1.00  0.00     0.024 A 
HETATM   26  C14 UNL     1      23.124   1.014  51.798  1.00  0.00     0.011 A 
ENDBRANCH   4  20
TORSDOF 4
ENDMDL
MODEL 8
REMARK VINA RESULT:      -7.0      3.492      5.673
REMARK  4 active torsions:
REMARK  status: ('A' for Active; 'I' for Inactive)
REMARK    1  A    between atoms: C5_5  and  C6_6 
REMARK    2  A    between atoms: C8_9  and  C9_10 
REMARK    3  A    between atoms: N1_17  and  C15_18 
REMARK    4  A    between atoms: C16_20  and  O2_21 
ROOT
HETATM    1  C6  UNL     1      22.666   2.199  49.319  1.00  0.00     0.260 C 
HETATM    2  O1  UNL     1      22.031   2.866  48.305  1.00  0.00    -0.360 OA
HETATM    3  C7  UNL     1      22.551   4.147  48.233  1.00  0.00     0.201 C 
HETATM    4  C8  UNL     1      22.961   4.494  49.622  1.00  0.00     0.146 C 
HETATM    5  N1  UNL     1      23.372   3.204  50.129  1.00  0.00    -0.318 N 
ENDROOT
BRANCH   1   6
HETATM    6  C5  UNL     1      21.630   1.518  50.142  1.00  0.00    -0.010 A 
HETATM    7  C4  UNL     1      21.941   0.554  51.094  1.00  0.00     0.012 A 
HETATM    8  C3  UNL     1      20.997  -0.090  51.867  1.00  0.00     0.007 A 
HETATM    9  C2  UNL     1      19.664   0.227  51.700  1.00  0.00    -0.062 A 
HETATM   10  C1  UNL     1      18.700  -0.510  52.572  1.00  0.00     0.048 C 
HETATM   11  C19 UNL     1      19.300   1.174  50.771  1.00  0.00     0.007 A 
HETATM   12  C18 UNL     1      20.267   1.801  50.012  1.00  0.00     0.012 A 
ENDBRANCH   1   6
BRANCH   5  13
HETATM   13  C15 UNL     1      24.253   2.797  51.170  1.00  0.00     0.174 A 
HETATM   14  N2  UNL     1      25.386   2.096  51.146  1.00  0.00    -0.200 NA
HETATM   15  C16 UNL     1      25.937   1.913  52.348  1.00  0.00     0.171 A 
HETATM   16  C17 UNL     1      25.294   2.483  53.666  1.00  0.00     0.111 A 
HETATM   17  S1  UNL     1      23.807   3.287  52.808  1.00  0.00    -0.060 SA
BRANCH  15  18
HETATM   18  O2  UNL     1      27.112   1.159  52.125  1.00  0.00    -0.344 OA
HETATM   19  H14 UNL     1      27.091   0.272  51.672  1.00  0.00     0.219 HD
ENDBRANCH  15  18
ENDBRANCH   5  13
BRANCH   4  20
HETATM   20  C9  UNL     1      24.021   5.512  49.706  1.00  0.00    -0.033 A 
HETATM   21  C10 UNL     1      25.181   5.485  48.958  1.00  0.00     0.011 A 
HETATM   22  C11 UNL     1      26.156   6.460  49.063  1.00  0.00     0.024 A 
HETATM   23  C12 UNL     1      25.920   7.486  49.966  1.00  0.00     0.034 A 
HETATM   24 CL1  UNL     1      27.177   8.717  50.083  1.00  0.00    -0.084 Cl
HETATM   25  C13 UNL     1      24.770   7.529  50.720  1.00  0.00     0.024 A 
HETATM   26  C14 UNL     1      23.789   6.545  50.612  1.00  0.00     0.011 A 
ENDBRANCH   4  20
TORSDOF 4
ENDMDL
MODEL 9
REMARK VINA RESULT:      -6.9      3.974      5.464
REMARK  4 active torsions:
REMARK  status: ('A' for Active; 'I' for Inactive)
REMARK    1  A    between atoms: C5_5  and  C6_6 
REMARK    2  A    between atoms: C8_9  and  C9_10 
REMARK    3  A    between atoms: N1_17  and  C15_18 
REMARK    4  A    between atoms: C16_20  and  O2_21 
ROOT
HETATM    1  C6  UNL     1      21.765   4.487  51.474  1.00  0.00     0.260 C 
HETATM    2  O1  UNL     1      22.469   4.638  52.639  1.00  0.00    -0.360 OA
HETATM    3  C7  UNL     1      23.795   4.877  52.320  1.00  0.00     0.201 C 
HETATM    4  C8  UNL     1      24.034   4.163  51.035  1.00  0.00     0.146 C 
HETATM    5  N1  UNL     1      22.744   4.290  50.394  1.00  0.00    -0.318 N 
ENDROOT
BRANCH   1   6
HETATM    6  C5  UNL     1      20.906   3.281  51.608  1.00  0.00    -0.010 A 
HETATM    7  C4  UNL     1      19.528   3.314  51.420  1.00  0.00     0.012 A 
HETATM    8  C3  UNL     1      18.713   2.208  51.540  1.00  0.00     0.007 A 
HETATM    9  C2  UNL     1      19.277   0.991  51.865  1.00  0.00    -0.062 A 
HETATM   10  C1  UNL     1      18.333  -0.162  51.976  1.00  0.00     0.048 C 
HETATM   11  C19 UNL     1      20.636   0.901  52.062  1.00  0.00     0.007 A 
HETATM   12  C18 UNL     1      21.426   2.025  51.935  1.00  0.00     0.012 A 
ENDBRANCH   1   6
BRANCH   5  13
HETATM   13  C15 UNL     1      22.319   4.259  49.035  1.00  0.00     0.174 A 
HETATM   14  N2  UNL     1      21.771   5.193  48.259  1.00  0.00    -0.200 NA
HETATM   15  C16 UNL     1      21.505   4.779  47.018  1.00  0.00     0.171 A 
HETATM   16  C17 UNL     1      21.819   3.316  46.532  1.00  0.00     0.111 A 
HETATM   17  S1  UNL     1      22.538   2.726  48.183  1.00  0.00    -0.060 SA
BRANCH  15  18
HETATM   18  O2  UNL     1      20.936   5.889  46.353  1.00  0.00    -0.344 OA
HETATM   19  H14 UNL     1      20.690   5.855  45.388  1.00  0.00     0.219 HD
ENDBRANCH  15  18
ENDBRANCH   5  13
BRANCH   4  20
HETATM   20  C9  UNL     1      25.136   4.716  50.230  1.00  0.00    -0.033 A 
HETATM   21  C10 UNL     1      26.118   3.950  49.633  1.00  0.00     0.011 A 
HETATM   22  C11 UNL     1      27.139   4.505  48.884  1.00  0.00     0.024 A 
HETATM   23  C12 UNL     1      27.140   5.886  48.751  1.00  0.00     0.034 A 
HETATM   24 CL1  UNL     1      28.451   6.570  47.792  1.00  0.00    -0.084 Cl
HETATM   25  C13 UNL     1      26.170   6.664  49.339  1.00  0.00     0.024 A 
HETATM   26  C14 UNL     1      25.142   6.103  50.094  1.00  0.00     0.011 A 
ENDBRANCH   4  20
TORSDOF 4
ENDMDL
