MODEL 1
REMARK VINA RESULT:      -7.0      0.000      0.000
REMARK  5 active torsions:
REMARK  status: ('A' for Active; 'I' for Inactive)
REMARK    1  A    between atoms: C3_3  and  C4_4 
REMARK    2  A    between atoms: C5_5  and  C6_6 
REMARK    3  A    between atoms: C7_7  and  N1_8 
REMARK    4  A    between atoms: N1_8  and  C8_9 
REMARK    5  A    between atoms: C10_11  and  O1_12 
ROOT
HETATM    1  C8  UNL     1      24.701   2.295  52.861  1.00  0.00     0.212 C 
HETATM    2  C9  UNL     1      25.786   1.960  53.785  1.00  0.00     0.080 C 
HETATM    3  C10 UNL     1      25.918   0.686  54.205  1.00  0.00     0.183 C 
HETATM    4  O2  UNL     1      25.098  -0.312  53.821  1.00  0.00    -0.300 OA
HETATM    5  C12 UNL     1      24.082  -0.960  54.472  1.00  0.00     0.146 C 
HETATM    6  C13 UNL     1      22.831  -1.144  54.812  1.00  0.00     0.044 C 
HETATM    7  C14 UNL     1      21.551  -0.512  54.541  1.00  0.00     0.120 C 
HETATM    8  N2  UNL     1      21.506   0.538  53.789  1.00  0.00    -0.254 NA
HETATM    9  C15 UNL     1      22.769   1.007  53.275  1.00  0.00     0.228 C 
HETATM   10  N3  UNL     1      23.868   1.103  52.628  1.00  0.00    -0.258 NA
ENDROOT
BRANCH   1  11
HETATM   11  N1  UNL     1      25.081   2.974  51.682  1.00  0.00    -0.276 NA
HETATM   12  H10 UNL     1      25.547   3.685  52.348  1.00  0.00     0.129 HD
BRANCH  11  13
HETATM   13  C7  UNL     1      25.616   3.911  50.738  1.00  0.00     0.059 C 
HETATM   14  C6  UNL     1      26.417   3.757  49.715  1.00  0.00     0.011 C 
BRANCH  14  15
HETATM   15  C5  UNL     1      26.747   4.964  48.975  1.00  0.00     0.001 C 
HETATM   16  C4  UNL     1      28.025   5.111  48.583  1.00  0.00    -0.000 C 
BRANCH  16  17
HETATM   17  C3  UNL     1      28.259   6.367  47.837  1.00  0.00    -0.004 C 
HETATM   18  C2  UNL     1      29.564   6.614  47.684  1.00  0.00    -0.031 C 
HETATM   19  C1  UNL     1      30.777   5.887  48.111  1.00  0.00     0.036 C 
ENDBRANCH  16  17
ENDBRANCH  14  15
ENDBRANCH  11  13
ENDBRANCH   1  11
BRANCH   3  20
HETATM   20  O1  UNL     1      26.795  -0.012  55.057  1.00  0.00    -0.336 OA
HETATM   21  C11 UNL     1      28.179  -0.139  54.769  1.00  0.00     0.212 C 
ENDBRANCH   3  20
TORSDOF 5
ENDMDL
MODEL 2
REMARK VINA RESULT:      -6.6      2.908      7.734
REMARK  5 active torsions:
REMARK  status: ('A' for Active; 'I' for Inactive)
REMARK    1  A    between atoms: C3_3  and  C4_4 
REMARK    2  A    between atoms: C5_5  and  C6_6 
REMARK    3  A    between atoms: C7_7  and  N1_8 
REMARK    4  A    between atoms: N1_8  and  C8_9 
REMARK    5  A    between atoms: C10_11  and  O1_12 
ROOT
HETATM    1  C8  UNL     1      24.436   1.071  53.088  1.00  0.00     0.212 C 
HETATM    2  C9  UNL     1      24.882   2.173  52.234  1.00  0.00     0.080 C 
HETATM    3  C10 UNL     1      26.097   2.102  51.656  1.00  0.00     0.183 C 
HETATM    4  O2  UNL     1      26.939   1.063  51.819  1.00  0.00    -0.300 OA
HETATM    5  C12 UNL     1      28.081   0.922  52.565  1.00  0.00     0.146 C 
HETATM    6  C13 UNL     1      28.749   0.596  53.642  1.00  0.00     0.044 C 
HETATM    7  C14 UNL     1      28.448   0.058  54.958  1.00  0.00     0.120 C 
HETATM    8  N2  UNL     1      27.222  -0.191  55.280  1.00  0.00    -0.254 NA
HETATM    9  C15 UNL     1      26.229   0.103  54.276  1.00  0.00     0.228 C 
HETATM   10  N3  UNL     1      25.517   0.078  53.214  1.00  0.00    -0.258 NA
ENDROOT
BRANCH   1  11
HETATM   11  N1  UNL     1      23.176   0.516  52.772  1.00  0.00    -0.276 NA
HETATM   12  H10 UNL     1      23.054   1.382  52.139  1.00  0.00     0.129 HD
BRANCH  11  13
HETATM   13  C7  UNL     1      21.867   0.273  52.241  1.00  0.00     0.059 C 
HETATM   14  C6  UNL     1      21.103   0.979  51.447  1.00  0.00     0.011 C 
BRANCH  14  15
HETATM   15  C5  UNL     1      19.812   0.398  51.119  1.00  0.00     0.001 C 
HETATM   16  C4  UNL     1      18.941   0.231  52.130  1.00  0.00    -0.000 C 
BRANCH  16  17
HETATM   17  C3  UNL     1      17.659  -0.365  51.695  1.00  0.00    -0.004 C 
HETATM   18  C2  UNL     1      17.308  -1.399  52.467  1.00  0.00    -0.031 C 
HETATM   19  C1  UNL     1      17.947  -2.037  53.636  1.00  0.00     0.036 C 
ENDBRANCH  16  17
ENDBRANCH  14  15
ENDBRANCH  11  13
ENDBRANCH   1  11
BRANCH   3  20
HETATM   20  O1  UNL     1      26.859   2.921  50.800  1.00  0.00    -0.336 OA
HETATM   21  C11 UNL     1      26.255   3.864  49.928  1.00  0.00     0.212 C 
ENDBRANCH   3  20
TORSDOF 5
ENDMDL
MODEL 3
REMARK VINA RESULT:      -6.5      2.265      3.717
REMARK  5 active torsions:
REMARK  status: ('A' for Active; 'I' for Inactive)
REMARK    1  A    between atoms: C3_3  and  C4_4 
REMARK    2  A    between atoms: C5_5  and  C6_6 
REMARK    3  A    between atoms: C7_7  and  N1_8 
REMARK    4  A    between atoms: N1_8  and  C8_9 
REMARK    5  A    between atoms: C10_11  and  O1_12 
ROOT
HETATM    1  C8  UNL     1      26.657   2.301  51.303  1.00  0.00     0.212 C 
HETATM    2  C9  UNL     1      25.313   1.756  51.499  1.00  0.00     0.080 C 
HETATM    3  C10 UNL     1      24.899   1.471  52.750  1.00  0.00     0.183 C 
HETATM    4  O2  UNL     1      25.659   1.659  53.846  1.00  0.00    -0.300 OA
HETATM    5  C12 UNL     1      26.343   0.780  54.645  1.00  0.00     0.146 C 
HETATM    6  C13 UNL     1      27.401   0.101  55.010  1.00  0.00     0.044 C 
HETATM    7  C14 UNL     1      28.774  -0.052  54.560  1.00  0.00     0.120 C 
HETATM    8  N2  UNL     1      29.176   0.589  53.513  1.00  0.00    -0.254 NA
HETATM    9  C15 UNL     1      28.195   1.420  52.860  1.00  0.00     0.228 C 
HETATM   10  N3  UNL     1      27.360   2.353  52.596  1.00  0.00    -0.258 NA
ENDROOT
BRANCH   1  11
HETATM   11  N1  UNL     1      26.736   3.496  50.555  1.00  0.00    -0.276 NA
HETATM   12  H10 UNL     1      27.528   2.999  50.014  1.00  0.00     0.129 HD
BRANCH  11  13
HETATM   13  C7  UNL     1      27.104   4.521  49.622  1.00  0.00     0.059 C 
HETATM   14  C6  UNL     1      26.430   5.521  49.114  1.00  0.00     0.011 C 
BRANCH  14  15
HETATM   15  C5  UNL     1      27.152   6.369  48.181  1.00  0.00     0.001 C 
HETATM   16  C4  UNL     1      28.489   6.230  48.134  1.00  0.00    -0.000 C 
BRANCH  16  17
HETATM   17  C3  UNL     1      29.129   7.134  47.155  1.00  0.00    -0.004 C 
HETATM   18  C2  UNL     1      30.232   7.701  47.655  1.00  0.00    -0.031 C 
HETATM   19  C1  UNL     1      30.906   7.595  48.965  1.00  0.00     0.036 C 
ENDBRANCH  16  17
ENDBRANCH  14  15
ENDBRANCH  11  13
ENDBRANCH   1  11
BRANCH   3  20
HETATM   20  O1  UNL     1      23.725   0.956  53.334  1.00  0.00    -0.336 OA
HETATM   21  C11 UNL     1      22.732   0.293  52.566  1.00  0.00     0.212 C 
ENDBRANCH   3  20
TORSDOF 5
ENDMDL
MODEL 4
REMARK VINA RESULT:      -6.5      4.052      8.121
REMARK  5 active torsions:
REMARK  status: ('A' for Active; 'I' for Inactive)
REMARK    1  A    between atoms: C3_3  and  C4_4 
REMARK    2  A    between atoms: C5_5  and  C6_6 
REMARK    3  A    between atoms: C7_7  and  N1_8 
REMARK    4  A    between atoms: N1_8  and  C8_9 
REMARK    5  A    between atoms: C10_11  and  O1_12 
ROOT
HETATM    1  C8  UNL     1      26.447   4.518  49.318  1.00  0.00     0.212 C 
HETATM    2  C9  UNL     1      27.728   4.695  48.633  1.00  0.00     0.080 C 
HETATM    3  C10 UNL     1      28.146   5.942  48.339  1.00  0.00     0.183 C 
HETATM    4  O2  UNL     1      27.445   7.052  48.644  1.00  0.00    -0.300 OA
HETATM    5  C12 UNL     1      26.692   7.897  47.870  1.00  0.00     0.146 C 
HETATM    6  C13 UNL     1      25.577   8.313  47.326  1.00  0.00     0.044 C 
HETATM    7  C14 UNL     1      24.182   7.906  47.314  1.00  0.00     0.120 C 
HETATM    8  N2  UNL     1      23.822   6.850  47.966  1.00  0.00    -0.254 NA
HETATM    9  C15 UNL     1      24.869   6.143  48.662  1.00  0.00     0.228 C 
HETATM   10  N3  UNL     1      25.794   5.827  49.487  1.00  0.00    -0.258 NA
ENDROOT
BRANCH   1  11
HETATM   11  N1  UNL     1      26.478   3.733  50.492  1.00  0.00    -0.276 NA
HETATM   12  H10 UNL     1      26.731   2.917  49.832  1.00  0.00     0.129 HD
BRANCH  11  13
HETATM   13  C7  UNL     1      26.588   2.656  51.432  1.00  0.00     0.059 C 
HETATM   14  C6  UNL     1      25.780   1.668  51.724  1.00  0.00     0.011 C 
BRANCH  14  15
HETATM   15  C5  UNL     1      26.239   0.751  52.754  1.00  0.00     0.001 C 
HETATM   16  C4  UNL     1      26.967   1.272  53.758  1.00  0.00    -0.000 C 
BRANCH  16  17
HETATM   17  C3  UNL     1      27.384   0.261  54.753  1.00  0.00    -0.004 C 
HETATM   18  C2  UNL     1      28.653  -0.119  54.568  1.00  0.00    -0.031 C 
HETATM   19  C1  UNL     1      29.680   0.271  53.581  1.00  0.00     0.036 C 
ENDBRANCH  16  17
ENDBRANCH  14  15
ENDBRANCH  11  13
ENDBRANCH   1  11
BRANCH   3  20
HETATM   20  O1  UNL     1      29.272   6.510  47.714  1.00  0.00    -0.336 OA
HETATM   21  C11 UNL     1      30.498   6.701  48.403  1.00  0.00     0.212 C 
ENDBRANCH   3  20
TORSDOF 5
ENDMDL
MODEL 5
REMARK VINA RESULT:      -6.4      2.633      4.305
REMARK  5 active torsions:
REMARK  status: ('A' for Active; 'I' for Inactive)
REMARK    1  A    between atoms: C3_3  and  C4_4 
REMARK    2  A    between atoms: C5_5  and  C6_6 
REMARK    3  A    between atoms: C7_7  and  N1_8 
REMARK    4  A    between atoms: N1_8  and  C8_9 
REMARK    5  A    between atoms: C10_11  and  O1_12 
ROOT
HETATM    1  C8  UNL     1      26.412   3.260  49.858  1.00  0.00     0.212 C 
HETATM    2  C9  UNL     1      25.008   3.663  49.765  1.00  0.00     0.080 C 
HETATM    3  C10 UNL     1      24.240   3.617  50.872  1.00  0.00     0.183 C 
HETATM    4  O2  UNL     1      24.693   3.217  52.076  1.00  0.00    -0.300 OA
HETATM    5  C12 UNL     1      24.514   2.053  52.777  1.00  0.00     0.146 C 
HETATM    6  C13 UNL     1      24.841   0.841  53.146  1.00  0.00     0.044 C 
HETATM    7  C14 UNL     1      25.907  -0.107  52.864  1.00  0.00     0.120 C 
HETATM    8  N2  UNL     1      26.833   0.210  52.021  1.00  0.00    -0.254 NA
HETATM    9  C15 UNL     1      26.721   1.512  51.412  1.00  0.00     0.228 C 
HETATM   10  N3  UNL     1      26.696   2.777  51.220  1.00  0.00    -0.258 NA
ENDROOT
BRANCH   1  11
HETATM   11  N1  UNL     1      27.355   4.190  49.368  1.00  0.00    -0.276 NA
HETATM   12  H10 UNL     1      26.656   4.336  48.558  1.00  0.00     0.129 HD
BRANCH  11  13
HETATM   13  C7  UNL     1      28.057   5.164  48.584  1.00  0.00     0.059 C 
HETATM   14  C6  UNL     1      27.749   6.386  48.233  1.00  0.00     0.011 C 
BRANCH  14  15
HETATM   15  C5  UNL     1      28.730   7.082  47.417  1.00  0.00     0.001 C 
HETATM   16  C4  UNL     1      30.000   6.644  47.479  1.00  0.00    -0.000 C 
BRANCH  16  17
HETATM   17  C3  UNL     1      30.920   7.414  46.614  1.00  0.00    -0.004 C 
HETATM   18  C2  UNL     1      31.828   8.084  47.332  1.00  0.00    -0.031 C 
HETATM   19  C1  UNL     1      32.072   8.194  48.785  1.00  0.00     0.036 C 
ENDBRANCH  16  17
ENDBRANCH  14  15
ENDBRANCH  11  13
ENDBRANCH   1  11
BRANCH   3  20
HETATM   20  O1  UNL     1      22.898   3.911  51.184  1.00  0.00    -0.336 OA
HETATM   21  C11 UNL     1      22.527   5.105  51.857  1.00  0.00     0.212 C 
ENDBRANCH   3  20
TORSDOF 5
ENDMDL
MODEL 6
REMARK VINA RESULT:      -6.1      5.423      9.781
REMARK  5 active torsions:
REMARK  status: ('A' for Active; 'I' for Inactive)
REMARK    1  A    between atoms: C3_3  and  C4_4 
REMARK    2  A    between atoms: C5_5  and  C6_6 
REMARK    3  A    between atoms: C7_7  and  N1_8 
REMARK    4  A    between atoms: N1_8  and  C8_9 
REMARK    5  A    between atoms: C10_11  and  O1_12 
ROOT
HETATM    1  C8  UNL     1      28.526   7.216  47.877  1.00  0.00     0.212 C 
HETATM    2  C9  UNL     1      29.889   7.041  47.373  1.00  0.00     0.080 C 
HETATM    3  C10 UNL     1      30.887   7.760  47.924  1.00  0.00     0.183 C 
HETATM    4  O2  UNL     1      30.704   8.641  48.926  1.00  0.00    -0.300 OA
HETATM    5  C12 UNL     1      30.677  10.012  48.942  1.00  0.00     0.146 C 
HETATM    6  C13 UNL     1      30.085  11.177  48.883  1.00  0.00     0.044 C 
HETATM    7  C14 UNL     1      28.728  11.674  48.718  1.00  0.00     0.120 C 
HETATM    8  N2  UNL     1      27.758  10.836  48.558  1.00  0.00    -0.254 NA
HETATM    9  C15 UNL     1      28.119   9.440  48.550  1.00  0.00     0.228 C 
HETATM   10  N3  UNL     1      28.512   8.274  48.901  1.00  0.00    -0.258 NA
ENDROOT
BRANCH   1  11
HETATM   11  N1  UNL     1      27.853   6.034  48.260  1.00  0.00    -0.276 NA
HETATM   12  H10 UNL     1      28.731   5.835  48.858  1.00  0.00     0.129 HD
BRANCH  11  13
HETATM   13  C7  UNL     1      27.496   4.775  48.845  1.00  0.00     0.059 C 
HETATM   14  C6  UNL     1      26.343   4.285  49.223  1.00  0.00     0.011 C 
BRANCH  14  15
HETATM   15  C5  UNL     1      26.372   2.945  49.785  1.00  0.00     0.001 C 
HETATM   16  C4  UNL     1      26.571   2.842  51.112  1.00  0.00    -0.000 C 
BRANCH  16  17
HETATM   17  C3  UNL     1      26.582   1.441  51.586  1.00  0.00    -0.004 C 
HETATM   18  C2  UNL     1      27.380   1.286  52.647  1.00  0.00    -0.031 C 
HETATM   19  C1  UNL     1      28.228   2.226  53.408  1.00  0.00     0.036 C 
ENDBRANCH  16  17
ENDBRANCH  14  15
ENDBRANCH  11  13
ENDBRANCH   1  11
BRANCH   3  20
HETATM   20  O1  UNL     1      32.278   7.874  47.730  1.00  0.00    -0.336 OA
HETATM   21  C11 UNL     1      33.212   7.280  48.618  1.00  0.00     0.212 C 
ENDBRANCH   3  20
TORSDOF 5
ENDMDL
MODEL 7
REMARK VINA RESULT:      -6.1      3.964      8.718
REMARK  5 active torsions:
REMARK  status: ('A' for Active; 'I' for Inactive)
REMARK    1  A    between atoms: C3_3  and  C4_4 
REMARK    2  A    between atoms: C5_5  and  C6_6 
REMARK    3  A    between atoms: C7_7  and  N1_8 
REMARK    4  A    between atoms: N1_8  and  C8_9 
REMARK    5  A    between atoms: C10_11  and  O1_12 
ROOT
HETATM    1  C8  UNL     1      26.713   4.954  49.013  1.00  0.00     0.212 C 
HETATM    2  C9  UNL     1      28.069   4.884  48.467  1.00  0.00     0.080 C 
HETATM    3  C10 UNL     1      28.770   6.024  48.310  1.00  0.00     0.183 C 
HETATM    4  O2  UNL     1      28.292   7.242  48.629  1.00  0.00    -0.300 OA
HETATM    5  C12 UNL     1      27.823   8.271  47.854  1.00  0.00     0.146 C 
HETATM    6  C13 UNL     1      26.887   8.948  47.239  1.00  0.00     0.044 C 
HETATM    7  C14 UNL     1      25.447   8.856  47.065  1.00  0.00     0.120 C 
HETATM    8  N2  UNL     1      24.803   7.871  47.598  1.00  0.00    -0.254 NA
HETATM    9  C15 UNL     1      25.595   6.918  48.335  1.00  0.00     0.228 C 
HETATM   10  N3  UNL     1      26.337   6.363  49.218  1.00  0.00    -0.258 NA
ENDROOT
BRANCH   1  11
HETATM   11  N1  UNL     1      26.450   4.121  50.123  1.00  0.00    -0.276 NA
HETATM   12  H10 UNL     1      26.153   3.387  49.387  1.00  0.00     0.129 HD
BRANCH  11  13
HETATM   13  C7  UNL     1      26.070   3.030  50.973  1.00  0.00     0.059 C 
HETATM   14  C6  UNL     1      26.688   1.925  51.302  1.00  0.00     0.011 C 
BRANCH  14  15
HETATM   15  C5  UNL     1      25.975   1.040  52.208  1.00  0.00     0.001 C 
HETATM   16  C4  UNL     1      24.671   1.297  52.415  1.00  0.00    -0.000 C 
BRANCH  16  17
HETATM   17  C3  UNL     1      24.036   0.342  53.349  1.00  0.00    -0.004 C 
HETATM   18  C2  UNL     1      22.791   0.033  52.968  1.00  0.00    -0.031 C 
HETATM   19  C1  UNL     1      21.960   0.459  51.824  1.00  0.00     0.036 C 
ENDBRANCH  16  17
ENDBRANCH  14  15
ENDBRANCH  11  13
ENDBRANCH   1  11
BRANCH   3  20
HETATM   20  O1  UNL     1      30.053   6.365  47.838  1.00  0.00    -0.336 OA
HETATM   21  C11 UNL     1      31.130   5.440  47.853  1.00  0.00     0.212 C 
ENDBRANCH   3  20
TORSDOF 5
ENDMDL
MODEL 8
REMARK VINA RESULT:      -6.1      3.596      8.629
REMARK  5 active torsions:
REMARK  status: ('A' for Active; 'I' for Inactive)
REMARK    1  A    between atoms: C3_3  and  C4_4 
REMARK    2  A    between atoms: C5_5  and  C6_6 
REMARK    3  A    between atoms: C7_7  and  N1_8 
REMARK    4  A    between atoms: N1_8  and  C8_9 
REMARK    5  A    between atoms: C10_11  and  O1_12 
ROOT
HETATM    1  C8  UNL     1      23.051   0.309  53.684  1.00  0.00     0.212 C 
HETATM    2  C9  UNL     1      23.032   1.515  52.855  1.00  0.00     0.080 C 
HETATM    3  C10 UNL     1      24.035   1.723  51.979  1.00  0.00     0.183 C 
HETATM    4  O2  UNL     1      25.070   0.875  51.818  1.00  0.00    -0.300 OA
HETATM    5  C12 UNL     1      26.376   0.941  52.228  1.00  0.00     0.146 C 
HETATM    6  C13 UNL     1      27.361   0.715  53.060  1.00  0.00     0.044 C 
HETATM    7  C14 UNL     1      27.537   0.069  54.350  1.00  0.00     0.120 C 
HETATM    8  N2  UNL     1      26.513  -0.442  54.951  1.00  0.00    -0.254 NA
HETATM    9  C15 UNL     1      25.248  -0.317  54.270  1.00  0.00     0.228 C 
HETATM   10  N3  UNL     1      24.292  -0.443  53.430  1.00  0.00    -0.258 NA
ENDROOT
BRANCH   1  11
HETATM   11  N1  UNL     1      21.881  -0.481  53.651  1.00  0.00    -0.276 NA
HETATM   12  H10 UNL     1      21.375   0.439  53.397  1.00  0.00     0.129 HD
BRANCH  11  13
HETATM   13  C7  UNL     1      20.528  -0.943  53.540  1.00  0.00     0.059 C 
HETATM   14  C6  UNL     1      19.462  -0.402  53.008  1.00  0.00     0.011 C 
BRANCH  14  15
HETATM   15  C5  UNL     1      18.240  -1.185  53.087  1.00  0.00     0.001 C 
HETATM   16  C4  UNL     1      17.224  -0.816  52.287  1.00  0.00    -0.000 C 
BRANCH  16  17
HETATM   17  C3  UNL     1      16.029  -1.674  52.440  1.00  0.00    -0.004 C 
HETATM   18  C2  UNL     1      15.290  -1.693  51.325  1.00  0.00    -0.031 C 
HETATM   19  C1  UNL     1      15.441  -1.034  50.012  1.00  0.00     0.036 C 
ENDBRANCH  16  17
ENDBRANCH  14  15
ENDBRANCH  11  13
ENDBRANCH   1  11
BRANCH   3  20
HETATM   20  O1  UNL     1      24.368   2.718  51.040  1.00  0.00    -0.336 OA
HETATM   21  C11 UNL     1      23.666   3.950  50.969  1.00  0.00     0.212 C 
ENDBRANCH   3  20
TORSDOF 5
ENDMDL
MODEL 9
REMARK VINA RESULT:      -6.0      5.850     10.055
REMARK  5 active torsions:
REMARK  status: ('A' for Active; 'I' for Inactive)
REMARK    1  A    between atoms: C3_3  and  C4_4 
REMARK    2  A    between atoms: C5_5  and  C6_6 
REMARK    3  A    between atoms: C7_7  and  N1_8 
REMARK    4  A    between atoms: N1_8  and  C8_9 
REMARK    5  A    between atoms: C10_11  and  O1_12 
ROOT
HETATM    1  C8  UNL     1      27.946   8.095  48.751  1.00  0.00     0.212 C 
HETATM    2  C9  UNL     1      29.194   7.601  48.168  1.00  0.00     0.080 C 
HETATM    3  C10 UNL     1      30.359   8.170  48.538  1.00  0.00     0.183 C 
HETATM    4  O2  UNL     1      30.445   9.181  49.424  1.00  0.00    -0.300 OA
HETATM    5  C12 UNL     1      30.672  10.523  49.259  1.00  0.00     0.146 C 
HETATM    6  C13 UNL     1      30.300  11.766  49.091  1.00  0.00     0.044 C 
HETATM    7  C14 UNL     1      29.048  12.496  48.969  1.00  0.00     0.120 C 
HETATM    8  N2  UNL     1      27.930  11.850  48.999  1.00  0.00    -0.254 NA
HETATM    9  C15 UNL     1      28.025  10.419  49.150  1.00  0.00     0.228 C 
HETATM   10  N3  UNL     1      28.232   9.248  49.622  1.00  0.00    -0.258 NA
ENDROOT
BRANCH   1  11
HETATM   11  N1  UNL     1      27.111   7.121  49.340  1.00  0.00    -0.276 NA
HETATM   12  H10 UNL     1      26.446   7.320  48.513  1.00  0.00     0.129 HD
BRANCH  11  13
HETATM   13  C7  UNL     1      26.034   6.225  49.643  1.00  0.00     0.059 C 
HETATM   14  C6  UNL     1      25.726   5.041  49.177  1.00  0.00     0.011 C 
BRANCH  14  15
HETATM   15  C5  UNL     1      24.535   4.424  49.735  1.00  0.00     0.001 C 
HETATM   16  C4  UNL     1      24.416   3.091  49.601  1.00  0.00    -0.000 C 
BRANCH  16  17
HETATM   17  C3  UNL     1      23.173   2.560  50.202  1.00  0.00    -0.004 C 
HETATM   18  C2  UNL     1      22.334   2.095  49.271  1.00  0.00    -0.031 C 
HETATM   19  C1  UNL     1      22.416   2.020  47.798  1.00  0.00     0.036 C 
ENDBRANCH  16  17
ENDBRANCH  14  15
ENDBRANCH  11  13
ENDBRANCH   1  11
BRANCH   3  20
HETATM   20  O1  UNL     1      31.719   7.987  48.221  1.00  0.00    -0.336 OA
HETATM   21  C11 UNL     1      32.548   7.095  48.950  1.00  0.00     0.212 C 
ENDBRANCH   3  20
TORSDOF 5
ENDMDL
