MODEL 1
REMARK VINA RESULT:      -8.1      0.000      0.000
REMARK  6 active torsions:
REMARK  status: ('A' for Active; 'I' for Inactive)
REMARK    1  A    between atoms: C4_4  and  N1_5 
REMARK    2  A    between atoms: C9_11  and  N3_12 
REMARK    3  A    between atoms: N4_19  and  C14_20 
REMARK    4  A    between atoms: C14_20  and  C15_21 
REMARK    5  A    between atoms: C15_21  and  C16_22 
REMARK    6  A    between atoms: C16_22  and  N5_23 
ROOT
HETATM    1  N1  UNL     1      25.782   2.757  51.442  1.00  0.00    -0.303 N 
HETATM    2  N2  UNL     1      26.924   2.841  52.305  1.00  0.00    -0.236 NA
HETATM    3  C5  UNL     1      26.578   2.176  53.540  1.00  0.00     0.122 C 
HETATM    4  C6  UNL     1      26.534   0.663  53.502  1.00  0.00     0.065 C 
HETATM    5  C7  UNL     1      26.534   0.378  51.948  1.00  0.00     0.073 C 
HETATM    6  C8  UNL     1      25.413   1.402  51.705  1.00  0.00     0.048 C 
HETATM    7  C9  UNL     1      24.130   1.013  51.855  1.00  0.00     0.059 C 
HETATM    8  C10 UNL     1      24.012   0.254  53.117  1.00  0.00     0.090 C 
HETATM    9  C11 UNL     1      25.155   0.114  53.827  1.00  0.00     0.081 C 
HETATM   10  O1  UNL     1      25.024  -0.628  54.995  1.00  0.00    -0.343 OA
HETATM   11  C12 UNL     1      23.953  -1.520  55.252  1.00  0.00     0.278 C 
HETATM   12  C13 UNL     1      22.667  -0.969  54.687  1.00  0.00     0.248 C 
HETATM   13  O2  UNL     1      21.571  -1.145  55.273  1.00  0.00    -0.271 OA
HETATM   14  N4  UNL     1      22.747  -0.229  53.440  1.00  0.00    -0.312 N 
HETATM   15  H6  UNL     1      27.794   2.583  51.862  1.00  0.00     0.146 HD
ENDROOT
BRANCH  14  16
HETATM   16  C14 UNL     1      21.598  -0.039  52.680  1.00  0.00     0.134 C 
BRANCH  16  17
HETATM   17  C15 UNL     1      20.629   1.066  53.149  1.00  0.00     0.040 C 
BRANCH  17  18
HETATM   18  C16 UNL     1      19.516   1.246  52.161  1.00  0.00     0.118 C 
BRANCH  18  19
HETATM   19  N5  UNL     1      19.221   2.568  51.801  1.00  0.00    -0.408 N 
HETATM   20  C17 UNL     1      18.509   2.772  50.570  1.00  0.00     0.143 C 
HETATM   21  C18 UNL     1      19.470   2.702  49.401  1.00  0.00     0.187 C 
HETATM   22  O3  UNL     1      20.782   2.904  49.823  1.00  0.00    -0.388 OA
HETATM   23  C19 UNL     1      20.799   3.974  50.682  1.00  0.00     0.187 C 
HETATM   24  C20 UNL     1      20.258   3.535  52.026  1.00  0.00     0.143 C 
ENDBRANCH  18  19
ENDBRANCH  17  18
ENDBRANCH  16  17
ENDBRANCH  14  16
BRANCH   7  25
HETATM   25  N3  UNL     1      23.195   1.350  50.958  1.00  0.00    -0.299 NA
HETATM   26  H12 UNL     1      22.895   1.740  50.084  1.00  0.00     0.124 HD
HETATM   27  H13 UNL     1      22.879   1.753  50.054  1.00  0.00     0.124 HD
ENDBRANCH   7  25
BRANCH   1  28
HETATM   28  C4  UNL     1      24.821   3.292  50.482  1.00  0.00     0.150 A 
HETATM   29  C3  UNL     1      24.357   4.496  51.295  1.00  0.00     0.012 A 
HETATM   30  C2  UNL     1      24.663   5.596  50.672  1.00  0.00    -0.042 A 
HETATM   31  C1  UNL     1      24.343   6.962  51.207  1.00  0.00     0.049 C 
HETATM   32  C22 UNL     1      25.338   5.344  49.419  1.00  0.00     0.038 A 
HETATM   33  C21 UNL     1      25.389   4.024  49.385  1.00  0.00     0.028 A 
HETATM   34 CL1  UNL     1      25.950   6.462  48.223  1.00  0.00    -0.084 Cl
ENDBRANCH   1  28
TORSDOF 6
ENDMDL
MODEL 2
REMARK VINA RESULT:      -7.9      2.242      5.836
REMARK  6 active torsions:
REMARK  status: ('A' for Active; 'I' for Inactive)
REMARK    1  A    between atoms: C4_4  and  N1_5 
REMARK    2  A    between atoms: C9_11  and  N3_12 
REMARK    3  A    between atoms: N4_19  and  C14_20 
REMARK    4  A    between atoms: C14_20  and  C15_21 
REMARK    5  A    between atoms: C15_21  and  C16_22 
REMARK    6  A    between atoms: C16_22  and  N5_23 
ROOT
HETATM    1  N1  UNL     1      23.888   5.205  49.445  1.00  0.00    -0.303 N 
HETATM    2  N2  UNL     1      23.201   5.038  48.198  1.00  0.00    -0.236 NA
HETATM    3  C5  UNL     1      22.635   3.709  48.194  1.00  0.00     0.122 C 
HETATM    4  C6  UNL     1      21.415   3.494  49.063  1.00  0.00     0.065 C 
HETATM    5  C7  UNL     1      21.434   4.784  49.974  1.00  0.00     0.073 C 
HETATM    6  C8  UNL     1      22.923   4.595  50.304  1.00  0.00     0.048 C 
HETATM    7  C9  UNL     1      23.268   3.777  51.322  1.00  0.00     0.059 C 
HETATM    8  C10 UNL     1      22.496   2.523  51.199  1.00  0.00     0.090 C 
HETATM    9  C11 UNL     1      21.650   2.455  50.147  1.00  0.00     0.081 C 
HETATM   10  O1  UNL     1      20.915   1.277  50.070  1.00  0.00    -0.343 OA
HETATM   11  C12 UNL     1      20.712   0.397  51.163  1.00  0.00     0.278 C 
HETATM   12  C13 UNL     1      21.952   0.332  52.020  1.00  0.00     0.248 C 
HETATM   13  O2  UNL     1      22.299  -0.735  52.580  1.00  0.00    -0.271 OA
HETATM   14  N4  UNL     1      22.725   1.552  52.170  1.00  0.00    -0.312 N 
HETATM   15  H6  UNL     1      22.592   5.807  47.957  1.00  0.00     0.146 HD
ENDROOT
BRANCH  14  16
HETATM   16  C14 UNL     1      23.625   1.668  53.224  1.00  0.00     0.134 C 
BRANCH  16  17
HETATM   17  C15 UNL     1      24.972   0.931  53.073  1.00  0.00     0.040 C 
BRANCH  17  18
HETATM   18  C16 UNL     1      26.100   1.784  53.571  1.00  0.00     0.118 C 
BRANCH  18  19
HETATM   19  N5  UNL     1      27.370   1.480  53.064  1.00  0.00    -0.408 N 
HETATM   20  C17 UNL     1      27.775   0.101  53.086  1.00  0.00     0.143 C 
HETATM   21  C18 UNL     1      28.275  -0.267  54.469  1.00  0.00     0.187 C 
HETATM   22  O3  UNL     1      28.622   0.871  55.192  1.00  0.00    -0.388 OA
HETATM   23  C19 UNL     1      29.359   1.693  54.376  1.00  0.00     0.187 C 
HETATM   24  C20 UNL     1      28.426   2.389  53.406  1.00  0.00     0.143 C 
ENDBRANCH  18  19
ENDBRANCH  17  18
ENDBRANCH  16  17
ENDBRANCH  14  16
BRANCH   7  25
HETATM   25  N3  UNL     1      24.196   4.138  52.215  1.00  0.00    -0.299 NA
HETATM   26  H12 UNL     1      24.991   3.959  52.800  1.00  0.00     0.124 HD
HETATM   27  H13 UNL     1      25.020   3.958  52.823  1.00  0.00     0.124 HD
ENDBRANCH   7  25
BRANCH   1  28
HETATM   28  C4  UNL     1      25.005   5.636  50.281  1.00  0.00     0.150 A 
HETATM   29  C3  UNL     1      26.130   5.363  49.288  1.00  0.00     0.012 A 
HETATM   30  C2  UNL     1      26.730   6.475  48.980  1.00  0.00    -0.042 A 
HETATM   31  C1  UNL     1      27.885   6.552  48.024  1.00  0.00     0.049 C 
HETATM   32  C22 UNL     1      26.155   7.613  49.664  1.00  0.00     0.038 A 
HETATM   33  C21 UNL     1      25.190   7.057  50.375  1.00  0.00     0.028 A 
HETATM   34 CL1  UNL     1      26.588   9.304  49.598  1.00  0.00    -0.084 Cl
ENDBRANCH   1  28
TORSDOF 6
ENDMDL
MODEL 3
REMARK VINA RESULT:      -7.7      1.557      2.045
REMARK  6 active torsions:
REMARK  status: ('A' for Active; 'I' for Inactive)
REMARK    1  A    between atoms: C4_4  and  N1_5 
REMARK    2  A    between atoms: C9_11  and  N3_12 
REMARK    3  A    between atoms: N4_19  and  C14_20 
REMARK    4  A    between atoms: C14_20  and  C15_21 
REMARK    5  A    between atoms: C15_21  and  C16_22 
REMARK    6  A    between atoms: C16_22  and  N5_23 
ROOT
HETATM    1  N1  UNL     1      25.606   2.748  51.505  1.00  0.00    -0.303 N 
HETATM    2  N2  UNL     1      26.737   2.835  52.383  1.00  0.00    -0.236 NA
HETATM    3  C5  UNL     1      26.388   2.143  53.602  1.00  0.00     0.122 C 
HETATM    4  C6  UNL     1      26.369   0.631  53.536  1.00  0.00     0.065 C 
HETATM    5  C7  UNL     1      26.392   0.374  51.977  1.00  0.00     0.073 C 
HETATM    6  C8  UNL     1      25.257   1.383  51.740  1.00  0.00     0.048 C 
HETATM    7  C9  UNL     1      23.978   0.970  51.868  1.00  0.00     0.059 C 
HETATM    8  C10 UNL     1      23.860   0.186  53.115  1.00  0.00     0.090 C 
HETATM    9  C11 UNL     1      24.996   0.053  53.836  1.00  0.00     0.081 C 
HETATM   10  O1  UNL     1      24.865  -0.712  54.989  1.00  0.00    -0.343 OA
HETATM   11  C12 UNL     1      23.806  -1.626  55.217  1.00  0.00     0.278 C 
HETATM   12  C13 UNL     1      22.518  -1.087  54.647  1.00  0.00     0.248 C 
HETATM   13  O2  UNL     1      21.419  -1.292  55.218  1.00  0.00    -0.271 OA
HETATM   14  N4  UNL     1      22.600  -0.324  53.415  1.00  0.00    -0.312 N 
HETATM   15  H6  UNL     1      27.616   2.600  51.946  1.00  0.00     0.146 HD
ENDROOT
BRANCH  14  16
HETATM   16  C14 UNL     1      21.456  -0.139  52.646  1.00  0.00     0.134 C 
BRANCH  16  17
HETATM   17  C15 UNL     1      20.394   0.833  53.200  1.00  0.00     0.040 C 
BRANCH  17  18
HETATM   18  C16 UNL     1      19.320   1.078  52.183  1.00  0.00     0.118 C 
BRANCH  18  19
HETATM   19  N5  UNL     1      18.634  -0.057  51.729  1.00  0.00    -0.408 N 
HETATM   20  C17 UNL     1      17.899   0.067  50.500  1.00  0.00     0.143 C 
HETATM   21  C18 UNL     1      16.562   0.729  50.763  1.00  0.00     0.187 C 
HETATM   22  O3  UNL     1      16.218   0.636  52.110  1.00  0.00    -0.388 OA
HETATM   23  C19 UNL     1      16.459  -0.647  52.530  1.00  0.00     0.187 C 
HETATM   24  C20 UNL     1      17.950  -0.829  52.726  1.00  0.00     0.143 C 
ENDBRANCH  18  19
ENDBRANCH  17  18
ENDBRANCH  16  17
ENDBRANCH  14  16
BRANCH   7  25
HETATM   25  N3  UNL     1      23.049   1.307  50.967  1.00  0.00    -0.299 NA
HETATM   26  H12 UNL     1      22.724   1.813  50.164  1.00  0.00     0.124 HD
HETATM   27  H13 UNL     1      22.708   1.829  50.135  1.00  0.00     0.124 HD
ENDBRANCH   7  25
BRANCH   1  28
HETATM   28  C4  UNL     1      24.646   3.284  50.544  1.00  0.00     0.150 A 
HETATM   29  C3  UNL     1      24.205   4.506  51.344  1.00  0.00     0.012 A 
HETATM   30  C2  UNL     1      24.523   5.593  50.705  1.00  0.00    -0.042 A 
HETATM   31  C1  UNL     1      24.227   6.970  51.223  1.00  0.00     0.049 C 
HETATM   32  C22 UNL     1      25.187   5.314  49.450  1.00  0.00     0.038 A 
HETATM   33  C21 UNL     1      25.218   3.994  49.434  1.00  0.00     0.028 A 
HETATM   34 CL1  UNL     1      25.807   6.407  48.236  1.00  0.00    -0.084 Cl
ENDBRANCH   1  28
TORSDOF 6
ENDMDL
MODEL 4
REMARK VINA RESULT:      -7.5      2.483      6.032
REMARK  6 active torsions:
REMARK  status: ('A' for Active; 'I' for Inactive)
REMARK    1  A    between atoms: C4_4  and  N1_5 
REMARK    2  A    between atoms: C9_11  and  N3_12 
REMARK    3  A    between atoms: N4_19  and  C14_20 
REMARK    4  A    between atoms: C14_20  and  C15_21 
REMARK    5  A    between atoms: C15_21  and  C16_22 
REMARK    6  A    between atoms: C16_22  and  N5_23 
ROOT
HETATM    1  N1  UNL     1      23.742   6.539  49.618  1.00  0.00    -0.303 N 
HETATM    2  N2  UNL     1      22.667   6.952  48.764  1.00  0.00    -0.236 NA
HETATM    3  C5  UNL     1      21.643   5.936  48.842  1.00  0.00     0.122 C 
HETATM    4  C6  UNL     1      20.819   5.906  50.112  1.00  0.00     0.065 C 
HETATM    5  C7  UNL     1      21.674   6.821  51.075  1.00  0.00     0.073 C 
HETATM    6  C8  UNL     1      22.970   6.071  50.724  1.00  0.00     0.048 C 
HETATM    7  C9  UNL     1      23.273   4.942  51.399  1.00  0.00     0.059 C 
HETATM    8  C10 UNL     1      22.065   4.094  51.466  1.00  0.00     0.090 C 
HETATM    9  C11 UNL     1      20.962   4.595  50.866  1.00  0.00     0.081 C 
HETATM   10  O1  UNL     1      19.832   3.792  50.968  1.00  0.00    -0.343 OA
HETATM   11  C12 UNL     1      19.673   2.766  51.933  1.00  0.00     0.278 C 
HETATM   12  C13 UNL     1      20.987   2.068  52.176  1.00  0.00     0.248 C 
HETATM   13  O2  UNL     1      21.036   0.836  52.409  1.00  0.00    -0.271 OA
HETATM   14  N4  UNL     1      22.193   2.877  52.130  1.00  0.00    -0.312 N 
HETATM   15  H6  UNL     1      22.384   7.912  48.893  1.00  0.00     0.146 HD
ENDROOT
BRANCH  14  16
HETATM   16  C14 UNL     1      23.361   2.400  52.713  1.00  0.00     0.134 C 
BRANCH  16  17
HETATM   17  C15 UNL     1      24.172   1.366  51.904  1.00  0.00     0.040 C 
BRANCH  17  18
HETATM   18  C16 UNL     1      25.044   0.551  52.811  1.00  0.00     0.118 C 
BRANCH  18  19
HETATM   19  N5  UNL     1      26.410   0.535  52.498  1.00  0.00    -0.408 N 
HETATM   20  C17 UNL     1      27.244  -0.372  53.237  1.00  0.00     0.143 C 
HETATM   21  C18 UNL     1      27.593   0.230  54.583  1.00  0.00     0.187 C 
HETATM   22  O3  UNL     1      27.409   1.610  54.574  1.00  0.00    -0.388 OA
HETATM   23  C19 UNL     1      27.955   2.111  53.419  1.00  0.00     0.187 C 
HETATM   24  C20 UNL     1      27.025   1.811  52.263  1.00  0.00     0.143 C 
ENDBRANCH  18  19
ENDBRANCH  17  18
ENDBRANCH  16  17
ENDBRANCH  14  16
BRANCH   7  25
HETATM   25  N3  UNL     1      24.512   4.721  51.856  1.00  0.00    -0.299 NA
HETATM   26  H12 UNL     1      25.450   5.005  52.067  1.00  0.00     0.124 HD
HETATM   27  H13 UNL     1      25.485   5.010  52.077  1.00  0.00     0.124 HD
ENDBRANCH   7  25
BRANCH   1  28
HETATM   28  C4  UNL     1      25.149   6.335  49.951  1.00  0.00     0.150 A 
HETATM   29  C3  UNL     1      25.712   6.387  48.535  1.00  0.00     0.012 A 
HETATM   30  C2  UNL     1      26.521   7.398  48.415  1.00  0.00    -0.042 A 
HETATM   31  C1  UNL     1      27.244   7.730  47.142  1.00  0.00     0.049 C 
HETATM   32  C22 UNL     1      26.637   8.152  49.644  1.00  0.00     0.038 A 
HETATM   33  C21 UNL     1      25.835   7.491  50.458  1.00  0.00     0.028 A 
HETATM   34 CL1  UNL     1      27.581   9.578  50.007  1.00  0.00    -0.084 Cl
ENDBRANCH   1  28
TORSDOF 6
ENDMDL
MODEL 5
REMARK VINA RESULT:      -7.5      4.513      8.563
REMARK  6 active torsions:
REMARK  status: ('A' for Active; 'I' for Inactive)
REMARK    1  A    between atoms: C4_4  and  N1_5 
REMARK    2  A    between atoms: C9_11  and  N3_12 
REMARK    3  A    between atoms: N4_19  and  C14_20 
REMARK    4  A    between atoms: C14_20  and  C15_21 
REMARK    5  A    between atoms: C15_21  and  C16_22 
REMARK    6  A    between atoms: C16_22  and  N5_23 
ROOT
HETATM    1  N1  UNL     1      25.186   2.701  52.064  1.00  0.00    -0.303 N 
HETATM    2  N2  UNL     1      24.062   2.904  52.930  1.00  0.00    -0.236 NA
HETATM    3  C5  UNL     1      23.762   4.317  52.919  1.00  0.00     0.122 C 
HETATM    4  C6  UNL     1      23.088   4.854  51.675  1.00  0.00     0.065 C 
HETATM    5  C7  UNL     1      23.301   3.667  50.654  1.00  0.00     0.073 C 
HETATM    6  C8  UNL     1      24.796   3.568  50.998  1.00  0.00     0.048 C 
HETATM    7  C9  UNL     1      25.668   4.377  50.360  1.00  0.00     0.059 C 
HETATM    8  C10 UNL     1      25.122   5.750  50.360  1.00  0.00     0.090 C 
HETATM    9  C11 UNL     1      23.925   5.907  50.969  1.00  0.00     0.081 C 
HETATM   10  O1  UNL     1      23.420   7.201  50.930  1.00  0.00    -0.343 OA
HETATM   11  C12 UNL     1      23.848   8.192  50.011  1.00  0.00     0.278 C 
HETATM   12  C13 UNL     1      25.330   8.066  49.760  1.00  0.00     0.248 C 
HETATM   13  O2  UNL     1      26.046   9.081  49.574  1.00  0.00    -0.271 OA
HETATM   14  N4  UNL     1      25.895   6.729  49.741  1.00  0.00    -0.312 N 
HETATM   15  H6  UNL     1      23.299   2.262  52.770  1.00  0.00     0.146 HD
ENDROOT
BRANCH  14  16
HETATM   16  C14 UNL     1      27.133   6.515  49.145  1.00  0.00     0.134 C 
BRANCH  16  17
HETATM   17  C15 UNL     1      27.304   7.016  47.695  1.00  0.00     0.040 C 
BRANCH  17  18
HETATM   18  C16 UNL     1      28.703   7.502  47.466  1.00  0.00     0.118 C 
BRANCH  18  19
HETATM   19  N5  UNL     1      29.466   7.745  48.616  1.00  0.00    -0.408 N 
HETATM   20  C17 UNL     1      29.528   9.100  49.091  1.00  0.00     0.143 C 
HETATM   21  C18 UNL     1      30.550   9.881  48.289  1.00  0.00     0.187 C 
HETATM   22  O3  UNL     1      31.438   9.022  47.646  1.00  0.00    -0.388 OA
HETATM   23  C19 UNL     1      31.835   8.061  48.541  1.00  0.00     0.187 C 
HETATM   24  C20 UNL     1      30.719   7.052  48.708  1.00  0.00     0.143 C 
ENDBRANCH  18  19
ENDBRANCH  17  18
ENDBRANCH  16  17
ENDBRANCH  14  16
BRANCH   7  25
HETATM   25  N3  UNL     1      26.824   3.905  49.879  1.00  0.00    -0.299 NA
HETATM   26  H12 UNL     1      27.797   3.988  49.650  1.00  0.00     0.124 HD
HETATM   27  H13 UNL     1      27.832   3.986  49.640  1.00  0.00     0.124 HD
ENDBRANCH   7  25
BRANCH   1  28
HETATM   28  C4  UNL     1      26.474   2.117  51.701  1.00  0.00     0.150 A 
HETATM   29  C3  UNL     1      27.089   2.074  53.096  1.00  0.00     0.012 A 
HETATM   30  C2  UNL     1      27.321   0.842  53.442  1.00  0.00    -0.042 A 
HETATM   31  C1  UNL     1      27.924   0.455  54.760  1.00  0.00     0.049 C 
HETATM   32  C22 UNL     1      26.930  -0.096  52.412  1.00  0.00     0.038 A 
HETATM   33  C21 UNL     1      26.463   0.700  51.467  1.00  0.00     0.028 A 
HETATM   34 CL1  UNL     1      27.029  -1.841  52.381  1.00  0.00    -0.084 Cl
ENDBRANCH   1  28
TORSDOF 6
ENDMDL
MODEL 6
REMARK VINA RESULT:      -7.5      2.402      5.631
REMARK  6 active torsions:
REMARK  status: ('A' for Active; 'I' for Inactive)
REMARK    1  A    between atoms: C4_4  and  N1_5 
REMARK    2  A    between atoms: C9_11  and  N3_12 
REMARK    3  A    between atoms: N4_19  and  C14_20 
REMARK    4  A    between atoms: C14_20  and  C15_21 
REMARK    5  A    between atoms: C15_21  and  C16_22 
REMARK    6  A    between atoms: C16_22  and  N5_23 
ROOT
HETATM    1  N1  UNL     1      25.866   3.014  51.570  1.00  0.00    -0.303 N 
HETATM    2  N2  UNL     1      26.793   3.381  50.539  1.00  0.00    -0.236 NA
HETATM    3  C5  UNL     1      26.028   3.596  49.333  1.00  0.00     0.122 C 
HETATM    4  C6  UNL     1      25.219   4.874  49.266  1.00  0.00     0.065 C 
HETATM    5  C7  UNL     1      25.236   5.347  50.773  1.00  0.00     0.073 C 
HETATM    6  C8  UNL     1      24.830   3.951  51.272  1.00  0.00     0.048 C 
HETATM    7  C9  UNL     1      23.521   3.625  51.308  1.00  0.00     0.059 C 
HETATM    8  C10 UNL     1      22.900   4.031  50.030  1.00  0.00     0.090 C 
HETATM    9  C11 UNL     1      23.729   4.612  49.133  1.00  0.00     0.081 C 
HETATM   10  O1  UNL     1      23.115   5.010  47.951  1.00  0.00    -0.343 OA
HETATM   11  C12 UNL     1      21.718   5.204  47.809  1.00  0.00     0.278 C 
HETATM   12  C13 UNL     1      20.963   4.179  48.617  1.00  0.00     0.248 C 
HETATM   13  O2  UNL     1      19.878   3.699  48.208  1.00  0.00    -0.271 OA
HETATM   14  N4  UNL     1      21.541   3.769  49.885  1.00  0.00    -0.312 N 
HETATM   15  H6  UNL     1      27.448   4.098  50.812  1.00  0.00     0.146 HD
ENDROOT
BRANCH  14  16
HETATM   16  C14 UNL     1      20.738   3.148  50.836  1.00  0.00     0.134 C 
BRANCH  16  17
HETATM   17  C15 UNL     1      20.381   1.668  50.586  1.00  0.00     0.040 C 
BRANCH  17  18
HETATM   18  C16 UNL     1      19.674   1.087  51.773  1.00  0.00     0.118 C 
BRANCH  18  19
HETATM   19  N5  UNL     1      20.159  -0.143  52.237  1.00  0.00    -0.408 N 
HETATM   20  C17 UNL     1      19.844  -0.506  53.591  1.00  0.00     0.143 C 
HETATM   21  C18 UNL     1      20.792   0.192  54.546  1.00  0.00     0.187 C 
HETATM   22  O3  UNL     1      21.942   0.616  53.883  1.00  0.00    -0.388 OA
HETATM   23  C19 UNL     1      22.381  -0.407  53.082  1.00  0.00     0.187 C 
HETATM   24  C20 UNL     1      21.499  -0.484  51.853  1.00  0.00     0.143 C 
ENDBRANCH  18  19
ENDBRANCH  17  18
ENDBRANCH  16  17
ENDBRANCH  14  16
BRANCH   7  25
HETATM   25  N3  UNL     1      22.991   3.005  52.369  1.00  0.00    -0.299 NA
HETATM   26  H12 UNL     1      22.313   2.414  52.812  1.00  0.00     0.124 HD
HETATM   27  H13 UNL     1      22.291   2.393  52.832  1.00  0.00     0.124 HD
ENDBRANCH   7  25
BRANCH   1  28
HETATM   28  C4  UNL     1      25.421   2.220  52.712  1.00  0.00     0.150 A 
HETATM   29  C3  UNL     1      25.545   0.841  52.074  1.00  0.00     0.012 A 
HETATM   30  C2  UNL     1      26.433   0.135  52.711  1.00  0.00    -0.042 A 
HETATM   31  C1  UNL     1      26.793  -1.272  52.333  1.00  0.00     0.049 C 
HETATM   32  C22 UNL     1      27.020   0.864  53.813  1.00  0.00     0.038 A 
HETATM   33  C21 UNL     1      26.399   2.027  53.746  1.00  0.00     0.028 A 
HETATM   34 CL1  UNL     1      28.241   0.375  54.964  1.00  0.00    -0.084 Cl
ENDBRANCH   1  28
TORSDOF 6
ENDMDL
MODEL 7
REMARK VINA RESULT:      -7.3      3.629      7.293
REMARK  6 active torsions:
REMARK  status: ('A' for Active; 'I' for Inactive)
REMARK    1  A    between atoms: C4_4  and  N1_5 
REMARK    2  A    between atoms: C9_11  and  N3_12 
REMARK    3  A    between atoms: N4_19  and  C14_20 
REMARK    4  A    between atoms: C14_20  and  C15_21 
REMARK    5  A    between atoms: C15_21  and  C16_22 
REMARK    6  A    between atoms: C16_22  and  N5_23 
ROOT
HETATM    1  N1  UNL     1      22.300   1.419  50.916  1.00  0.00    -0.303 N 
HETATM    2  N2  UNL     1      21.489   0.591  50.073  1.00  0.00    -0.236 NA
HETATM    3  C5  UNL     1      20.521   1.451  49.432  1.00  0.00     0.122 C 
HETATM    4  C6  UNL     1      21.038   2.334  48.316  1.00  0.00     0.065 C 
HETATM    5  C7  UNL     1      22.601   2.237  48.525  1.00  0.00     0.073 C 
HETATM    6  C8  UNL     1      22.472   2.526  50.030  1.00  0.00     0.048 C 
HETATM    7  C9  UNL     1      22.418   3.808  50.446  1.00  0.00     0.059 C 
HETATM    8  C10 UNL     1      21.461   4.541  49.591  1.00  0.00     0.090 C 
HETATM    9  C11 UNL     1      20.866   3.813  48.619  1.00  0.00     0.081 C 
HETATM   10  O1  UNL     1      19.992   4.531  47.811  1.00  0.00    -0.343 OA
HETATM   11  C12 UNL     1      20.003   5.943  47.691  1.00  0.00     0.278 C 
HETATM   12  C13 UNL     1      20.326   6.579  49.020  1.00  0.00     0.248 C 
HETATM   13  O2  UNL     1      19.796   7.662  49.369  1.00  0.00    -0.271 OA
HETATM   14  N4  UNL     1      21.273   5.890  49.878  1.00  0.00    -0.312 N 
HETATM   15  H6  UNL     1      22.015  -0.040  49.487  1.00  0.00     0.146 HD
ENDROOT
BRANCH  14  16
HETATM   16  C14 UNL     1      21.900   6.586  50.906  1.00  0.00     0.134 C 
BRANCH  16  17
HETATM   17  C15 UNL     1      22.956   7.633  50.496  1.00  0.00     0.040 C 
BRANCH  17  18
HETATM   18  C16 UNL     1      23.927   7.047  49.516  1.00  0.00     0.118 C 
BRANCH  18  19
HETATM   19  N5  UNL     1      25.198   6.738  50.019  1.00  0.00    -0.408 N 
HETATM   20  C17 UNL     1      26.137   7.819  50.142  1.00  0.00     0.143 C 
HETATM   21  C18 UNL     1      26.776   8.103  48.797  1.00  0.00     0.187 C 
HETATM   22  O3  UNL     1      26.637   7.012  47.942  1.00  0.00    -0.388 OA
HETATM   23  C19 UNL     1      26.949   5.873  48.640  1.00  0.00     0.187 C 
HETATM   24  C20 UNL     1      25.791   5.519  49.549  1.00  0.00     0.143 C 
ENDBRANCH  18  19
ENDBRANCH  17  18
ENDBRANCH  16  17
ENDBRANCH  14  16
BRANCH   7  25
HETATM   25  N3  UNL     1      23.134   4.225  51.498  1.00  0.00    -0.299 NA
HETATM   26  H12 UNL     1      23.867   4.128  52.174  1.00  0.00     0.124 HD
HETATM   27  H13 UNL     1      23.892   4.129  52.201  1.00  0.00     0.124 HD
ENDBRANCH   7  25
BRANCH   1  28
HETATM   28  C4  UNL     1      23.011   1.736  52.152  1.00  0.00     0.150 A 
HETATM   29  C3  UNL     1      22.189   0.869  53.099  1.00  0.00     0.012 A 
HETATM   30  C2  UNL     1      22.941  -0.053  53.624  1.00  0.00    -0.042 A 
HETATM   31  C1  UNL     1      22.435  -1.073  54.602  1.00  0.00     0.049 C 
HETATM   32  C22 UNL     1      24.307   0.027  53.156  1.00  0.00     0.038 A 
HETATM   33  C21 UNL     1      24.265   1.057  52.331  1.00  0.00     0.028 A 
HETATM   34 CL1  UNL     1      25.693  -0.963  53.550  1.00  0.00    -0.084 Cl
ENDBRANCH   1  28
TORSDOF 6
ENDMDL
MODEL 8
REMARK VINA RESULT:      -6.9      6.312      9.433
REMARK  6 active torsions:
REMARK  status: ('A' for Active; 'I' for Inactive)
REMARK    1  A    between atoms: C4_4  and  N1_5 
REMARK    2  A    between atoms: C9_11  and  N3_12 
REMARK    3  A    between atoms: N4_19  and  C14_20 
REMARK    4  A    between atoms: C14_20  and  C15_21 
REMARK    5  A    between atoms: C15_21  and  C16_22 
REMARK    6  A    between atoms: C16_22  and  N5_23 
ROOT
HETATM    1  N1  UNL     1      31.929   7.083  47.833  1.00  0.00    -0.303 N 
HETATM    2  N2  UNL     1      32.580   8.336  47.584  1.00  0.00    -0.236 NA
HETATM    3  C5  UNL     1      31.546   9.325  47.386  1.00  0.00     0.122 C 
HETATM    4  C6  UNL     1      30.808   9.786  48.625  1.00  0.00     0.065 C 
HETATM    5  C7  UNL     1      31.229   8.688  49.680  1.00  0.00     0.073 C 
HETATM    6  C8  UNL     1      30.897   7.547  48.704  1.00  0.00     0.048 C 
HETATM    7  C9  UNL     1      29.626   7.100  48.630  1.00  0.00     0.059 C 
HETATM    8  C10 UNL     1      28.721   8.266  48.550  1.00  0.00     0.090 C 
HETATM    9  C11 UNL     1      29.322   9.477  48.564  1.00  0.00     0.081 C 
HETATM   10  O1  UNL     1      28.448  10.558  48.517  1.00  0.00    -0.343 OA
HETATM   11  C12 UNL     1      27.072  10.479  48.846  1.00  0.00     0.278 C 
HETATM   12  C13 UNL     1      26.499   9.162  48.387  1.00  0.00     0.248 C 
HETATM   13  O2  UNL     1      25.323   9.080  47.954  1.00  0.00    -0.271 OA
HETATM   14  N4  UNL     1      27.359   7.994  48.465  1.00  0.00    -0.312 N 
HETATM   15  H6  UNL     1      33.317   8.554  48.239  1.00  0.00     0.146 HD
ENDROOT
BRANCH  14  16
HETATM   16  C14 UNL     1      26.794   6.724  48.434  1.00  0.00     0.134 C 
BRANCH  16  17
HETATM   17  C15 UNL     1      26.026   6.272  49.694  1.00  0.00     0.040 C 
BRANCH  17  18
HETATM   18  C16 UNL     1      24.859   5.409  49.320  1.00  0.00     0.118 C 
BRANCH  18  19
HETATM   19  N5  UNL     1      25.091   4.027  49.322  1.00  0.00    -0.408 N 
HETATM   20  C17 UNL     1      23.943   3.167  49.398  1.00  0.00     0.143 C 
HETATM   21  C18 UNL     1      23.474   3.057  50.835  1.00  0.00     0.187 C 
HETATM   22  O3  UNL     1      24.487   3.425  51.717  1.00  0.00    -0.388 OA
HETATM   23  C19 UNL     1      25.652   2.824  51.312  1.00  0.00     0.187 C 
HETATM   24  C20 UNL     1      26.199   3.569  50.112  1.00  0.00     0.143 C 
ENDBRANCH  18  19
ENDBRANCH  17  18
ENDBRANCH  16  17
ENDBRANCH  14  16
BRANCH   7  25
HETATM   25  N3  UNL     1      29.353   5.790  48.605  1.00  0.00    -0.299 NA
HETATM   26  H12 UNL     1      28.984   4.946  49.003  1.00  0.00     0.124 HD
HETATM   27  H13 UNL     1      28.973   4.913  49.013  1.00  0.00     0.124 HD
ENDBRANCH   7  25
BRANCH   1  28
HETATM   28  C4  UNL     1      31.751   5.643  47.673  1.00  0.00     0.150 A 
HETATM   29  C3  UNL     1      32.202   5.533  46.220  1.00  0.00     0.012 A 
HETATM   30  C2  UNL     1      33.267   4.790  46.141  1.00  0.00    -0.042 A 
HETATM   31  C1  UNL     1      33.963   4.483  44.848  1.00  0.00     0.049 C 
HETATM   32  C22 UNL     1      33.690   4.304  47.436  1.00  0.00     0.038 A 
HETATM   33  C21 UNL     1      32.786   4.828  48.244  1.00  0.00     0.028 A 
HETATM   34 CL1  UNL     1      35.041   3.284  47.871  1.00  0.00    -0.084 Cl
ENDBRANCH   1  28
TORSDOF 6
ENDMDL
MODEL 9
REMARK VINA RESULT:      -6.9      6.722     11.165
REMARK  6 active torsions:
REMARK  status: ('A' for Active; 'I' for Inactive)
REMARK    1  A    between atoms: C4_4  and  N1_5 
REMARK    2  A    between atoms: C9_11  and  N3_12 
REMARK    3  A    between atoms: N4_19  and  C14_20 
REMARK    4  A    between atoms: C14_20  and  C15_21 
REMARK    5  A    between atoms: C15_21  and  C16_22 
REMARK    6  A    between atoms: C16_22  and  N5_23 
ROOT
HETATM    1  N1  UNL     1      25.681   7.657  48.458  1.00  0.00    -0.303 N 
HETATM    2  N2  UNL     1      24.671   8.487  47.868  1.00  0.00    -0.236 NA
HETATM    3  C5  UNL     1      25.210   9.824  47.783  1.00  0.00     0.122 C 
HETATM    4  C6  UNL     1      26.247  10.067  46.708  1.00  0.00     0.065 C 
HETATM    5  C7  UNL     1      26.631   8.593  46.290  1.00  0.00     0.073 C 
HETATM    6  C8  UNL     1      26.815   8.168  47.757  1.00  0.00     0.048 C 
HETATM    7  C9  UNL     1      28.003   8.391  48.357  1.00  0.00     0.059 C 
HETATM    8  C10 UNL     1      28.432   9.772  48.053  1.00  0.00     0.090 C 
HETATM    9  C11 UNL     1      27.589  10.492  47.280  1.00  0.00     0.081 C 
HETATM   10  O1  UNL     1      28.028  11.778  46.985  1.00  0.00    -0.343 OA
HETATM   11  C12 UNL     1      29.377  12.198  47.091  1.00  0.00     0.278 C 
HETATM   12  C13 UNL     1      30.037  11.545  48.280  1.00  0.00     0.248 C 
HETATM   13  O2  UNL     1      30.890  12.157  48.968  1.00  0.00    -0.271 OA
HETATM   14  N4  UNL     1      29.646  10.182  48.596  1.00  0.00    -0.312 N 
HETATM   15  H6  UNL     1      24.253   8.097  47.035  1.00  0.00     0.146 HD
ENDROOT
BRANCH  14  16
HETATM   16  C14 UNL     1      30.467   9.404  49.405  1.00  0.00     0.134 C 
BRANCH  16  17
HETATM   17  C15 UNL     1      31.821   8.967  48.808  1.00  0.00     0.040 C 
BRANCH  17  18
HETATM   18  C16 UNL     1      31.614   8.178  47.550  1.00  0.00     0.118 C 
BRANCH  18  19
HETATM   19  N5  UNL     1      32.521   7.134  47.324  1.00  0.00    -0.408 N 
HETATM   20  C17 UNL     1      32.030   5.976  46.628  1.00  0.00     0.143 C 
HETATM   21  C18 UNL     1      31.284   5.075  47.590  1.00  0.00     0.187 C 
HETATM   22  O3  UNL     1      31.636   5.354  48.908  1.00  0.00    -0.388 OA
HETATM   23  C19 UNL     1      33.001   5.472  48.975  1.00  0.00     0.187 C 
HETATM   24  C20 UNL     1      33.408   6.816  48.405  1.00  0.00     0.143 C 
ENDBRANCH  18  19
ENDBRANCH  17  18
ENDBRANCH  16  17
ENDBRANCH  14  16
BRANCH   7  25
HETATM   25  N3  UNL     1      28.586   7.450  49.109  1.00  0.00    -0.299 NA
HETATM   26  H12 UNL     1      28.812   7.021  49.987  1.00  0.00     0.124 HD
HETATM   27  H13 UNL     1      28.823   7.002  50.016  1.00  0.00     0.124 HD
ENDBRANCH   7  25
BRANCH   1  28
HETATM   28  C4  UNL     1      26.160   6.618  49.365  1.00  0.00     0.150 A 
HETATM   29  C3  UNL     1      25.135   6.816  50.476  1.00  0.00     0.012 A 
HETATM   30  C2  UNL     1      24.413   5.742  50.611  1.00  0.00    -0.042 A 
HETATM   31  C1  UNL     1      23.311   5.610  51.621  1.00  0.00     0.049 C 
HETATM   32  C22 UNL     1      24.800   4.705  49.679  1.00  0.00     0.038 A 
HETATM   33  C21 UNL     1      25.788   5.276  49.014  1.00  0.00     0.028 A 
HETATM   34 CL1  UNL     1      24.156   3.096  49.453  1.00  0.00    -0.084 Cl
ENDBRANCH   1  28
TORSDOF 6
ENDMDL
