MODEL 1
REMARK VINA RESULT:      -8.3      0.000      0.000
REMARK  6 active torsions:
REMARK  status: ('A' for Active; 'I' for Inactive)
REMARK    1  A    between atoms: C7_9  and  C8_10 
REMARK    2  A    between atoms: C8_10  and  C9_11 
REMARK    3  A    between atoms: C9_11  and  O2_13 
REMARK    4  A    between atoms: C17_22  and  C18_23 
REMARK    5  A    between atoms: C18_23  and  C19_24 
REMARK    6  A    between atoms: C19_24  and  O4_26 
ROOT
HETATM    1  C1  UNL     1      19.930   2.974  51.283  1.00  0.00     0.150 C 
HETATM    2  N1  UNL     1      20.878   3.805  50.575  1.00  0.00    -0.379 N 
HETATM    3  C2  UNL     1      20.490   3.913  49.175  1.00  0.00     0.137 C 
HETATM    4  S1  UNL     1      20.071   2.463  48.456  1.00  0.00    -0.084 SA
HETATM    5  C3  UNL     1      20.979   1.216  49.073  1.00  0.00     0.019 C 
HETATM    6  C4  UNL     1      22.280   1.552  49.063  1.00  0.00    -0.005 C 
HETATM    7  C5  UNL     1      22.966   2.756  48.521  1.00  0.00     0.005 C 
HETATM    8  C6  UNL     1      23.869   3.186  49.424  1.00  0.00     0.060 C 
HETATM    9  C7  UNL     1      24.831   4.262  49.517  1.00  0.00    -0.048 C 
HETATM   10  C10 UNL     1      25.205   3.854  50.715  1.00  0.00     0.108 C 
HETATM   11  N2  UNL     1      24.740   2.765  51.481  1.00  0.00    -0.299 N 
HETATM   12  C11 UNL     1      25.080   1.485  51.958  1.00  0.00     0.056 A 
HETATM   13  C12 UNL     1      26.307   0.948  51.635  1.00  0.00     0.031 A 
HETATM   14  C13 UNL     1      26.678  -0.308  52.085  1.00  0.00     0.002 A 
HETATM   15  C14 UNL     1      25.770  -1.004  52.872  1.00  0.00     0.001 A 
HETATM   16  C15 UNL     1      24.562  -0.411  53.156  1.00  0.00     0.015 A 
HETATM   17  C16 UNL     1      24.173   0.835  52.720  1.00  0.00     0.006 A 
HETATM   18  C17 UNL     1      22.935   1.552  52.960  1.00  0.00     0.012 A 
HETATM   19  S2  UNL     1      23.073   3.081  52.127  1.00  0.00    -0.070 SA
HETATM   20  C20 UNL     1      21.928   4.263  51.502  1.00  0.00     0.212 C 
ENDROOT
BRANCH   9  21
HETATM   21  C8  UNL     1      25.507   5.461  48.973  1.00  0.00     0.146 C 
BRANCH  21  22
HETATM   22  C9  UNL     1      26.958   5.303  48.866  1.00  0.00     0.143 C 
HETATM   23  O1  UNL     1      27.980   4.586  48.602  1.00  0.00    -0.650 OA
BRANCH  22  24
HETATM   24  O2  UNL     1      27.512   6.539  49.226  1.00  0.00    -0.776 OA
HETATM   25  H10 UNL     1      27.231   7.421  48.886  1.00  0.00     0.167 HD
ENDBRANCH  22  24
ENDBRANCH  21  22
ENDBRANCH   9  21
BRANCH  18  26
HETATM   26  C18 UNL     1      21.729   1.153  53.765  1.00  0.00     0.157 C 
BRANCH  26  27
HETATM   27  C19 UNL     1      21.033  -0.028  53.184  1.00  0.00     0.144 C 
HETATM   28  O3  UNL     1      20.297  -0.240  52.200  1.00  0.00    -0.650 OA
BRANCH  27  29
HETATM   29  O4  UNL     1      21.125  -1.285  53.764  1.00  0.00    -0.776 OA
HETATM   30  H18 UNL     1      21.476  -2.119  53.306  1.00  0.00     0.167 HD
ENDBRANCH  27  29
ENDBRANCH  26  27
ENDBRANCH  18  26
TORSDOF 6
ENDMDL
MODEL 2
REMARK VINA RESULT:      -8.3      1.626      1.790
REMARK  6 active torsions:
REMARK  status: ('A' for Active; 'I' for Inactive)
REMARK    1  A    between atoms: C7_9  and  C8_10 
REMARK    2  A    between atoms: C8_10  and  C9_11 
REMARK    3  A    between atoms: C9_11  and  O2_13 
REMARK    4  A    between atoms: C17_22  and  C18_23 
REMARK    5  A    between atoms: C18_23  and  C19_24 
REMARK    6  A    between atoms: C19_24  and  O4_26 
ROOT
HETATM    1  C1  UNL     1      19.702   1.601  50.884  1.00  0.00     0.150 C 
HETATM    2  N1  UNL     1      20.295   2.917  50.808  1.00  0.00    -0.379 N 
HETATM    3  C2  UNL     1      20.076   3.480  49.483  1.00  0.00     0.137 C 
HETATM    4  S1  UNL     1      20.396   2.433  48.220  1.00  0.00    -0.084 SA
HETATM    5  C3  UNL     1      21.658   1.422  48.599  1.00  0.00     0.019 C 
HETATM    6  C4  UNL     1      22.689   2.141  49.077  1.00  0.00    -0.005 C 
HETATM    7  C5  UNL     1      22.869   3.612  49.203  1.00  0.00     0.005 C 
HETATM    8  C6  UNL     1      23.388   3.884  50.417  1.00  0.00     0.060 C 
HETATM    9  C7  UNL     1      23.790   5.067  51.145  1.00  0.00    -0.048 C 
HETATM   10  C10 UNL     1      24.148   4.334  52.183  1.00  0.00     0.108 C 
HETATM   11  N2  UNL     1      24.091   2.936  52.359  1.00  0.00    -0.299 N 
HETATM   12  C11 UNL     1      24.874   1.769  52.441  1.00  0.00     0.056 A 
HETATM   13  C12 UNL     1      26.243   1.864  52.316  1.00  0.00     0.031 A 
HETATM   14  C13 UNL     1      27.047   0.738  52.390  1.00  0.00     0.002 A 
HETATM   15  C14 UNL     1      26.424  -0.486  52.596  1.00  0.00     0.001 A 
HETATM   16  C15 UNL     1      25.054  -0.510  52.710  1.00  0.00     0.015 A 
HETATM   17  C16 UNL     1      24.236   0.595  52.640  1.00  0.00     0.006 A 
HETATM   18  C17 UNL     1      22.792   0.682  52.749  1.00  0.00     0.012 A 
HETATM   19  S2  UNL     1      22.380   2.370  52.571  1.00  0.00    -0.070 SA
HETATM   20  C20 UNL     1      20.932   3.252  52.094  1.00  0.00     0.212 C 
ENDROOT
BRANCH   9  21
HETATM   21  C8  UNL     1      23.964   6.532  51.265  1.00  0.00     0.146 C 
BRANCH  21  22
HETATM   22  C9  UNL     1      24.867   7.088  50.257  1.00  0.00     0.143 C 
HETATM   23  O1  UNL     1      25.103   7.447  49.056  1.00  0.00    -0.650 OA
BRANCH  22  24
HETATM   24  O2  UNL     1      26.067   7.371  50.923  1.00  0.00    -0.776 OA
HETATM   25  H10 UNL     1      26.921   7.618  50.497  1.00  0.00     0.167 HD
ENDBRANCH  22  24
ENDBRANCH  21  22
ENDBRANCH   9  21
BRANCH  18  26
HETATM   26  C18 UNL     1      21.774  -0.398  52.988  1.00  0.00     0.157 C 
BRANCH  26  27
HETATM   27  C19 UNL     1      21.558  -0.652  54.439  1.00  0.00     0.144 C 
HETATM   28  O3  UNL     1      21.938  -1.504  55.267  1.00  0.00    -0.650 OA
BRANCH  27  29
HETATM   29  O4  UNL     1      20.757   0.176  55.211  1.00  0.00    -0.776 OA
HETATM   30  H18 UNL     1      20.812   0.274  56.220  1.00  0.00     0.167 HD
ENDBRANCH  27  29
ENDBRANCH  26  27
ENDBRANCH  18  26
TORSDOF 6
ENDMDL
MODEL 3
REMARK VINA RESULT:      -7.6      2.068      7.064
REMARK  6 active torsions:
REMARK  status: ('A' for Active; 'I' for Inactive)
REMARK    1  A    between atoms: C7_9  and  C8_10 
REMARK    2  A    between atoms: C8_10  and  C9_11 
REMARK    3  A    between atoms: C9_11  and  O2_13 
REMARK    4  A    between atoms: C17_22  and  C18_23 
REMARK    5  A    between atoms: C18_23  and  C19_24 
REMARK    6  A    between atoms: C19_24  and  O4_26 
ROOT
HETATM    1  C1  UNL     1      27.209   2.579  53.228  1.00  0.00     0.150 C 
HETATM    2  N1  UNL     1      26.145   1.926  53.958  1.00  0.00    -0.379 N 
HETATM    3  C2  UNL     1      26.635   0.682  54.535  1.00  0.00     0.137 C 
HETATM    4  S1  UNL     1      27.527  -0.267  53.486  1.00  0.00    -0.084 SA
HETATM    5  C3  UNL     1      26.952  -0.129  51.934  1.00  0.00     0.019 C 
HETATM    6  C4  UNL     1      25.618  -0.293  51.927  1.00  0.00    -0.005 C 
HETATM    7  C5  UNL     1      24.679  -0.654  53.023  1.00  0.00     0.005 C 
HETATM    8  C6  UNL     1      23.598   0.149  52.953  1.00  0.00     0.060 C 
HETATM    9  C7  UNL     1      22.366   0.316  53.690  1.00  0.00    -0.048 C 
HETATM   10  C10 UNL     1      21.996   1.300  52.892  1.00  0.00     0.108 C 
HETATM   11  N2  UNL     1      22.667   1.863  51.786  1.00  0.00    -0.299 N 
HETATM   12  C11 UNL     1      22.658   1.961  50.383  1.00  0.00     0.056 A 
HETATM   13  C12 UNL     1      21.677   1.308  49.667  1.00  0.00     0.031 A 
HETATM   14  C13 UNL     1      21.634   1.381  48.284  1.00  0.00     0.002 A 
HETATM   15  C14 UNL     1      22.613   2.135  47.648  1.00  0.00     0.001 A 
HETATM   16  C15 UNL     1      23.563   2.759  48.422  1.00  0.00     0.015 A 
HETATM   17  C16 UNL     1      23.624   2.701  49.796  1.00  0.00     0.006 A 
HETATM   18  C17 UNL     1      24.573   3.317  50.704  1.00  0.00     0.012 A 
HETATM   19  S2  UNL     1      24.094   2.851  52.318  1.00  0.00    -0.070 SA
HETATM   20  C20 UNL     1      24.914   2.731  53.871  1.00  0.00     0.212 C 
ENDROOT
BRANCH   9  21
HETATM   21  C8  UNL     1      21.438  -0.047  54.785  1.00  0.00     0.146 C 
BRANCH  21  22
HETATM   22  C9  UNL     1      20.750  -1.318  54.558  1.00  0.00     0.143 C 
HETATM   23  O1  UNL     1      19.732  -1.972  54.151  1.00  0.00    -0.650 OA
BRANCH  22  24
HETATM   24  O2  UNL     1      21.627  -2.319  54.995  1.00  0.00    -0.776 OA
HETATM   25  H10 UNL     1      22.478  -2.572  54.565  1.00  0.00     0.167 HD
ENDBRANCH  22  24
ENDBRANCH  21  22
ENDBRANCH   9  21
BRANCH  18  26
HETATM   26  C18 UNL     1      25.747   4.209  50.414  1.00  0.00     0.157 C 
BRANCH  26  27
HETATM   27  C19 UNL     1      25.323   5.572  49.988  1.00  0.00     0.144 C 
HETATM   28  O3  UNL     1      24.605   6.047  49.087  1.00  0.00    -0.650 OA
BRANCH  27  29
HETATM   29  O4  UNL     1      25.749   6.709  50.660  1.00  0.00    -0.776 OA
HETATM   30  H18 UNL     1      25.173   7.517  50.871  1.00  0.00     0.167 HD
ENDBRANCH  27  29
ENDBRANCH  26  27
ENDBRANCH  18  26
TORSDOF 6
ENDMDL
MODEL 4
REMARK VINA RESULT:      -7.5      3.142      5.341
REMARK  6 active torsions:
REMARK  status: ('A' for Active; 'I' for Inactive)
REMARK    1  A    between atoms: C7_9  and  C8_10 
REMARK    2  A    between atoms: C8_10  and  C9_11 
REMARK    3  A    between atoms: C9_11  and  O2_13 
REMARK    4  A    between atoms: C17_22  and  C18_23 
REMARK    5  A    between atoms: C18_23  and  C19_24 
REMARK    6  A    between atoms: C19_24  and  O4_26 
ROOT
HETATM    1  C1  UNL     1      22.659   1.407  50.763  1.00  0.00     0.150 C 
HETATM    2  N1  UNL     1      21.929   2.653  50.829  1.00  0.00    -0.379 N 
HETATM    3  C2  UNL     1      20.712   2.553  50.034  1.00  0.00     0.137 C 
HETATM    4  S1  UNL     1      20.925   1.881  48.518  1.00  0.00    -0.084 SA
HETATM    5  C3  UNL     1      22.408   2.292  47.894  1.00  0.00     0.019 C 
HETATM    6  C4  UNL     1      22.598   3.618  48.010  1.00  0.00    -0.005 C 
HETATM    7  C5  UNL     1      21.685   4.690  48.490  1.00  0.00     0.005 C 
HETATM    8  C6  UNL     1      22.370   5.509  49.313  1.00  0.00     0.060 C 
HETATM    9  C7  UNL     1      22.087   6.699  50.084  1.00  0.00    -0.048 C 
HETATM   10  C10 UNL     1      23.331   6.737  50.523  1.00  0.00     0.108 C 
HETATM   11  N2  UNL     1      24.408   5.868  50.253  1.00  0.00    -0.299 N 
HETATM   12  C11 UNL     1      25.634   5.757  49.570  1.00  0.00     0.056 A 
HETATM   13  C12 UNL     1      26.095   6.826  48.833  1.00  0.00     0.031 A 
HETATM   14  C13 UNL     1      27.297   6.755  48.147  1.00  0.00     0.002 A 
HETATM   15  C14 UNL     1      28.017   5.570  48.230  1.00  0.00     0.001 A 
HETATM   16  C15 UNL     1      27.499   4.542  48.982  1.00  0.00     0.015 A 
HETATM   17  C16 UNL     1      26.308   4.591  49.671  1.00  0.00     0.006 A 
HETATM   18  C17 UNL     1      25.674   3.575  50.490  1.00  0.00     0.012 A 
HETATM   19  S2  UNL     1      24.183   4.267  51.079  1.00  0.00    -0.070 SA
HETATM   20  C20 UNL     1      22.660   3.615  51.672  1.00  0.00     0.212 C 
ENDROOT
BRANCH   9  21
HETATM   21  C8  UNL     1      21.173   7.761  50.561  1.00  0.00     0.146 C 
BRANCH  21  22
HETATM   22  C9  UNL     1      20.190   8.167  49.555  1.00  0.00     0.143 C 
HETATM   23  O1  UNL     1      19.800   8.973  48.646  1.00  0.00    -0.650 OA
BRANCH  22  24
HETATM   24  O2  UNL     1      19.170   7.207  49.599  1.00  0.00    -0.776 OA
HETATM   25  H10 UNL     1      19.260   6.254  49.362  1.00  0.00     0.167 HD
ENDBRANCH  22  24
ENDBRANCH  21  22
ENDBRANCH   9  21
BRANCH  18  26
HETATM   26  C18 UNL     1      26.138   2.187  50.838  1.00  0.00     0.157 C 
BRANCH  26  27
HETATM   27  C19 UNL     1      26.872   2.151  52.133  1.00  0.00     0.144 C 
HETATM   28  O3  UNL     1      26.709   1.603  53.241  1.00  0.00    -0.650 OA
BRANCH  27  29
HETATM   29  O4  UNL     1      28.055   2.851  52.318  1.00  0.00    -0.776 OA
HETATM   30  H18 UNL     1      28.303   3.718  51.853  1.00  0.00     0.167 HD
ENDBRANCH  27  29
ENDBRANCH  26  27
ENDBRANCH  18  26
TORSDOF 6
ENDMDL
MODEL 5
REMARK VINA RESULT:      -7.3      2.718      5.881
REMARK  6 active torsions:
REMARK  status: ('A' for Active; 'I' for Inactive)
REMARK    1  A    between atoms: C7_9  and  C8_10 
REMARK    2  A    between atoms: C8_10  and  C9_11 
REMARK    3  A    between atoms: C9_11  and  O2_13 
REMARK    4  A    between atoms: C17_22  and  C18_23 
REMARK    5  A    between atoms: C18_23  and  C19_24 
REMARK    6  A    between atoms: C19_24  and  O4_26 
ROOT
HETATM    1  C1  UNL     1      24.142   4.285  50.239  1.00  0.00     0.150 C 
HETATM    2  N1  UNL     1      22.805   4.027  49.752  1.00  0.00    -0.379 N 
HETATM    3  C2  UNL     1      22.015   5.249  49.814  1.00  0.00     0.137 C 
HETATM    4  S1  UNL     1      22.147   6.091  51.253  1.00  0.00    -0.084 SA
HETATM    5  C3  UNL     1      22.340   5.047  52.530  1.00  0.00     0.019 C 
HETATM    6  C4  UNL     1      21.411   4.077  52.469  1.00  0.00    -0.005 C 
HETATM    7  C5  UNL     1      20.264   3.891  51.542  1.00  0.00     0.005 C 
HETATM    8  C6  UNL     1      20.224   2.601  51.151  1.00  0.00     0.060 C 
HETATM    9  C7  UNL     1      19.392   1.789  50.292  1.00  0.00    -0.048 C 
HETATM   10  C10 UNL     1      20.125   0.723  50.551  1.00  0.00     0.108 C 
HETATM   11  N2  UNL     1      21.263   0.592  51.375  1.00  0.00    -0.299 N 
HETATM   12  C11 UNL     1      21.727   0.064  52.593  1.00  0.00     0.056 A 
HETATM   13  C12 UNL     1      20.850  -0.612  53.415  1.00  0.00     0.031 A 
HETATM   14  C13 UNL     1      21.270  -1.146  54.622  1.00  0.00     0.002 A 
HETATM   15  C14 UNL     1      22.603  -0.976  54.973  1.00  0.00     0.001 A 
HETATM   16  C15 UNL     1      23.424  -0.291  54.108  1.00  0.00     0.015 A 
HETATM   17  C16 UNL     1      23.029   0.247  52.904  1.00  0.00     0.006 A 
HETATM   18  C17 UNL     1      23.805   0.981  51.923  1.00  0.00     0.012 A 
HETATM   19  S2  UNL     1      22.712   1.384  50.622  1.00  0.00    -0.070 SA
HETATM   20  C20 UNL     1      22.681   2.612  49.361  1.00  0.00     0.212 C 
ENDROOT
BRANCH   9  21
HETATM   21  C8  UNL     1      18.250   1.611  49.367  1.00  0.00     0.146 C 
BRANCH  21  22
HETATM   22  C9  UNL     1      17.167   0.809  49.939  1.00  0.00     0.143 C 
HETATM   23  O1  UNL     1      16.323   0.587  50.869  1.00  0.00    -0.650 OA
BRANCH  22  24
HETATM   24  O2  UNL     1      16.929  -0.228  49.028  1.00  0.00    -0.776 OA
HETATM   25  H10 UNL     1      16.992  -1.194  49.220  1.00  0.00     0.167 HD
ENDBRANCH  22  24
ENDBRANCH  21  22
ENDBRANCH   9  21
BRANCH  18  26
HETATM   26  C18 UNL     1      25.263   1.349  51.924  1.00  0.00     0.157 C 
BRANCH  26  27
HETATM   27  C19 UNL     1      25.643   2.129  53.135  1.00  0.00     0.144 C 
HETATM   28  O3  UNL     1      26.521   2.045  54.016  1.00  0.00    -0.650 OA
BRANCH  27  29
HETATM   29  O4  UNL     1      24.942   3.263  53.519  1.00  0.00    -0.776 OA
HETATM   30  H18 UNL     1      23.987   3.482  53.253  1.00  0.00     0.167 HD
ENDBRANCH  27  29
ENDBRANCH  26  27
ENDBRANCH  18  26
TORSDOF 6
ENDMDL
MODEL 6
REMARK VINA RESULT:      -7.2      8.187     11.520
REMARK  6 active torsions:
REMARK  status: ('A' for Active; 'I' for Inactive)
REMARK    1  A    between atoms: C7_9  and  C8_10 
REMARK    2  A    between atoms: C8_10  and  C9_11 
REMARK    3  A    between atoms: C9_11  and  O2_13 
REMARK    4  A    between atoms: C17_22  and  C18_23 
REMARK    5  A    between atoms: C18_23  and  C19_24 
REMARK    6  A    between atoms: C19_24  and  O4_26 
ROOT
HETATM    1  C1  UNL     1      32.481  10.753  45.586  1.00  0.00     0.150 C 
HETATM    2  N1  UNL     1      33.325   9.666  46.028  1.00  0.00    -0.379 N 
HETATM    3  C2  UNL     1      34.106   9.161  44.907  1.00  0.00     0.137 C 
HETATM    4  S1  UNL     1      33.230   8.915  43.504  1.00  0.00    -0.084 SA
HETATM    5  C3  UNL     1      31.684   8.419  43.855  1.00  0.00     0.019 C 
HETATM    6  C4  UNL     1      31.720   7.409  44.741  1.00  0.00    -0.005 C 
HETATM    7  C5  UNL     1      32.873   6.670  45.322  1.00  0.00     0.005 C 
HETATM    8  C6  UNL     1      32.675   6.528  46.648  1.00  0.00     0.060 C 
HETATM    9  C7  UNL     1      33.384   5.930  47.757  1.00  0.00    -0.048 C 
HETATM   10  C10 UNL     1      32.431   6.295  48.593  1.00  0.00     0.108 C 
HETATM   11  N2  UNL     1      31.236   7.002  48.342  1.00  0.00    -0.299 N 
HETATM   12  C11 UNL     1      29.838   6.874  48.261  1.00  0.00     0.056 A 
HETATM   13  C12 UNL     1      29.257   5.644  48.485  1.00  0.00     0.031 A 
HETATM   14  C13 UNL     1      27.884   5.478  48.414  1.00  0.00     0.002 A 
HETATM   15  C14 UNL     1      27.115   6.595  48.111  1.00  0.00     0.001 A 
HETATM   16  C15 UNL     1      27.758   7.792  47.898  1.00  0.00     0.015 A 
HETATM   17  C16 UNL     1      29.120   7.980  47.964  1.00  0.00     0.006 A 
HETATM   18  C17 UNL     1      29.895   9.189  47.761  1.00  0.00     0.012 A 
HETATM   19  S2  UNL     1      31.571   8.750  47.987  1.00  0.00    -0.070 SA
HETATM   20  C20 UNL     1      33.112   9.423  47.466  1.00  0.00     0.212 C 
ENDROOT
BRANCH   9  21
HETATM   21  C8  UNL     1      34.536   5.197  48.329  1.00  0.00     0.146 C 
BRANCH  21  22
HETATM   22  C9  UNL     1      34.727   3.873  47.735  1.00  0.00     0.143 C 
HETATM   23  O1  UNL     1      35.390   3.076  46.992  1.00  0.00    -0.650 OA
BRANCH  22  24
HETATM   24  O2  UNL     1      33.672   3.080  48.204  1.00  0.00    -0.776 OA
HETATM   25  H10 UNL     1      33.374   3.007  49.141  1.00  0.00     0.167 HD
ENDBRANCH  22  24
ENDBRANCH  21  22
ENDBRANCH   9  21
BRANCH  18  26
HETATM   26  C18 UNL     1      29.441  10.585  47.441  1.00  0.00     0.157 C 
BRANCH  26  27
HETATM   27  C19 UNL     1      29.339  11.435  48.660  1.00  0.00     0.144 C 
HETATM   28  O3  UNL     1      29.934  12.435  49.107  1.00  0.00    -0.650 OA
BRANCH  27  29
HETATM   29  O4  UNL     1      28.398  11.181  49.647  1.00  0.00    -0.776 OA
HETATM   30  H18 UNL     1      28.222  11.768  50.456  1.00  0.00     0.167 HD
ENDBRANCH  27  29
ENDBRANCH  26  27
ENDBRANCH  18  26
TORSDOF 6
ENDMDL
MODEL 7
REMARK VINA RESULT:      -7.0      2.097      2.744
REMARK  6 active torsions:
REMARK  status: ('A' for Active; 'I' for Inactive)
REMARK    1  A    between atoms: C7_9  and  C8_10 
REMARK    2  A    between atoms: C8_10  and  C9_11 
REMARK    3  A    between atoms: C9_11  and  O2_13 
REMARK    4  A    between atoms: C17_22  and  C18_23 
REMARK    5  A    between atoms: C18_23  and  C19_24 
REMARK    6  A    between atoms: C19_24  and  O4_26 
ROOT
HETATM    1  C1  UNL     1      19.159   4.488  48.770  1.00  0.00     0.150 C 
HETATM    2  N1  UNL     1      20.291   5.371  48.938  1.00  0.00    -0.379 N 
HETATM    3  C2  UNL     1      20.869   5.685  47.638  1.00  0.00     0.137 C 
HETATM    4  S1  UNL     1      21.082   4.365  46.634  1.00  0.00    -0.084 SA
HETATM    5  C3  UNL     1      21.467   3.011  47.516  1.00  0.00     0.019 C 
HETATM    6  C4  UNL     1      22.460   3.296  48.376  1.00  0.00    -0.005 C 
HETATM    7  C5  UNL     1      23.263   4.535  48.553  1.00  0.00     0.005 C 
HETATM    8  C6  UNL     1      23.367   4.802  49.871  1.00  0.00     0.060 C 
HETATM    9  C7  UNL     1      23.991   5.817  50.690  1.00  0.00    -0.048 C 
HETATM   10  C10 UNL     1      23.547   5.234  51.788  1.00  0.00     0.108 C 
HETATM   11  N2  UNL     1      22.767   4.069  51.936  1.00  0.00    -0.299 N 
HETATM   12  C11 UNL     1      22.803   2.724  52.348  1.00  0.00     0.056 A 
HETATM   13  C12 UNL     1      23.987   2.189  52.808  1.00  0.00     0.031 A 
HETATM   14  C13 UNL     1      24.063   0.869  53.222  1.00  0.00     0.002 A 
HETATM   15  C14 UNL     1      22.903   0.107  53.157  1.00  0.00     0.001 A 
HETATM   16  C15 UNL     1      21.755   0.702  52.688  1.00  0.00     0.015 A 
HETATM   17  C16 UNL     1      21.658   2.010  52.272  1.00  0.00     0.006 A 
HETATM   18  C17 UNL     1      20.507   2.734  51.765  1.00  0.00     0.012 A 
HETATM   19  S2  UNL     1      21.052   4.356  51.417  1.00  0.00    -0.070 SA
HETATM   20  C20 UNL     1      20.493   5.656  50.369  1.00  0.00     0.212 C 
ENDROOT
BRANCH   9  21
HETATM   21  C8  UNL     1      24.788   7.053  50.860  1.00  0.00     0.146 C 
BRANCH  21  22
HETATM   22  C9  UNL     1      25.939   7.121  49.959  1.00  0.00     0.143 C 
HETATM   23  O1  UNL     1      26.552   6.733  48.909  1.00  0.00    -0.650 OA
BRANCH  22  24
HETATM   24  O2  UNL     1      26.803   8.080  50.504  1.00  0.00    -0.776 OA
HETATM   25  H10 UNL     1      27.081   8.922  50.071  1.00  0.00     0.167 HD
ENDBRANCH  22  24
ENDBRANCH  21  22
ENDBRANCH   9  21
BRANCH  18  26
HETATM   26  C18 UNL     1      19.089   2.275  51.565  1.00  0.00     0.157 C 
BRANCH  26  27
HETATM   27  C19 UNL     1      19.012   1.043  50.731  1.00  0.00     0.144 C 
HETATM   28  O3  UNL     1      18.571  -0.113  50.880  1.00  0.00    -0.650 OA
BRANCH  27  29
HETATM   29  O4  UNL     1      19.512   1.008  49.438  1.00  0.00    -0.776 OA
HETATM   30  H18 UNL     1      18.968   1.146  48.593  1.00  0.00     0.167 HD
ENDBRANCH  27  29
ENDBRANCH  26  27
ENDBRANCH  18  26
TORSDOF 6
ENDMDL
MODEL 8
REMARK VINA RESULT:      -7.0      6.134     11.006
REMARK  6 active torsions:
REMARK  status: ('A' for Active; 'I' for Inactive)
REMARK    1  A    between atoms: C7_9  and  C8_10 
REMARK    2  A    between atoms: C8_10  and  C9_11 
REMARK    3  A    between atoms: C9_11  and  O2_13 
REMARK    4  A    between atoms: C17_22  and  C18_23 
REMARK    5  A    between atoms: C18_23  and  C19_24 
REMARK    6  A    between atoms: C19_24  and  O4_26 
ROOT
HETATM    1  C1  UNL     1      30.856  10.572  49.141  1.00  0.00     0.150 C 
HETATM    2  N1  UNL     1      30.324   9.250  49.381  1.00  0.00    -0.379 N 
HETATM    3  C2  UNL     1      31.403   8.271  49.352  1.00  0.00     0.137 C 
HETATM    4  S1  UNL     1      32.459   8.439  48.066  1.00  0.00    -0.084 SA
HETATM    5  C3  UNL     1      31.658   8.977  46.714  1.00  0.00     0.019 C 
HETATM    6  C4  UNL     1      30.557   8.233  46.511  1.00  0.00    -0.005 C 
HETATM    7  C5  UNL     1      30.059   7.026  47.222  1.00  0.00     0.005 C 
HETATM    8  C6  UNL     1      28.735   7.163  47.439  1.00  0.00     0.060 C 
HETATM    9  C7  UNL     1      27.685   6.382  48.053  1.00  0.00    -0.048 C 
HETATM   10  C10 UNL     1      26.797   7.318  47.779  1.00  0.00     0.108 C 
HETATM   11  N2  UNL     1      26.968   8.558  47.129  1.00  0.00    -0.299 N 
HETATM   12  C11 UNL     1      26.705   9.262  45.940  1.00  0.00     0.056 A 
HETATM   13  C12 UNL     1      26.030   8.632  44.917  1.00  0.00     0.031 A 
HETATM   14  C13 UNL     1      25.752   9.292  43.731  1.00  0.00     0.002 A 
HETATM   15  C14 UNL     1      26.178  10.609  43.612  1.00  0.00     0.001 A 
HETATM   16  C15 UNL     1      26.847  11.177  44.670  1.00  0.00     0.015 A 
HETATM   17  C16 UNL     1      27.134  10.541  45.856  1.00  0.00     0.006 A 
HETATM   18  C17 UNL     1      27.826  11.042  47.028  1.00  0.00     0.012 A 
HETATM   19  S2  UNL     1      27.857   9.736  48.187  1.00  0.00    -0.070 SA
HETATM   20  C20 UNL     1      28.865   9.326  49.571  1.00  0.00     0.212 C 
ENDROOT
BRANCH   9  21
HETATM   21  C8  UNL     1      27.196   5.178  48.764  1.00  0.00     0.146 C 
BRANCH  21  22
HETATM   22  C9  UNL     1      25.778   5.256  49.115  1.00  0.00     0.143 C 
HETATM   23  O1  UNL     1      24.547   5.182  48.786  1.00  0.00    -0.650 OA
BRANCH  22  24
HETATM   24  O2  UNL     1      25.731   5.560  50.482  1.00  0.00    -0.776 OA
HETATM   25  H10 UNL     1      25.295   6.347  50.886  1.00  0.00     0.167 HD
ENDBRANCH  22  24
ENDBRANCH  21  22
ENDBRANCH   9  21
BRANCH  18  26
HETATM   26  C18 UNL     1      28.414  12.400  47.296  1.00  0.00     0.157 C 
BRANCH  26  27
HETATM   27  C19 UNL     1      27.824  13.037  48.506  1.00  0.00     0.144 C 
HETATM   28  O3  UNL     1      26.794  13.690  48.764  1.00  0.00    -0.650 OA
BRANCH  27  29
HETATM   29  O4  UNL     1      28.458  12.980  49.739  1.00  0.00    -0.776 OA
HETATM   30  H18 UNL     1      28.000  12.801  50.627  1.00  0.00     0.167 HD
ENDBRANCH  27  29
ENDBRANCH  26  27
ENDBRANCH  18  26
TORSDOF 6
ENDMDL
MODEL 9
REMARK VINA RESULT:      -7.0      3.241      5.398
REMARK  6 active torsions:
REMARK  status: ('A' for Active; 'I' for Inactive)
REMARK    1  A    between atoms: C7_9  and  C8_10 
REMARK    2  A    between atoms: C8_10  and  C9_11 
REMARK    3  A    between atoms: C9_11  and  O2_13 
REMARK    4  A    between atoms: C17_22  and  C18_23 
REMARK    5  A    between atoms: C18_23  and  C19_24 
REMARK    6  A    between atoms: C19_24  and  O4_26 
ROOT
HETATM    1  C1  UNL     1      20.090   5.434  48.983  1.00  0.00     0.150 C 
HETATM    2  N1  UNL     1      21.280   4.856  49.565  1.00  0.00    -0.379 N 
HETATM    3  C2  UNL     1      22.271   4.615  48.525  1.00  0.00     0.137 C 
HETATM    4  S1  UNL     1      21.670   3.881  47.149  1.00  0.00    -0.084 SA
HETATM    5  C3  UNL     1      20.452   2.819  47.532  1.00  0.00     0.019 C 
HETATM    6  C4  UNL     1      20.849   2.014  48.533  1.00  0.00    -0.005 C 
HETATM    7  C5  UNL     1      22.165   1.893  49.217  1.00  0.00     0.005 C 
HETATM    8  C6  UNL     1      21.959   1.818  50.547  1.00  0.00     0.060 C 
HETATM    9  C7  UNL     1      22.780   1.691  51.730  1.00  0.00    -0.048 C 
HETATM   10  C10 UNL     1      21.710   1.703  52.502  1.00  0.00     0.108 C 
HETATM   11  N2  UNL     1      20.348   1.811  52.150  1.00  0.00    -0.299 N 
HETATM   12  C11 UNL     1      19.138   1.098  52.063  1.00  0.00     0.056 A 
HETATM   13  C12 UNL     1      19.110  -0.232  52.423  1.00  0.00     0.031 A 
HETATM   14  C13 UNL     1      17.939  -0.967  52.352  1.00  0.00     0.002 A 
HETATM   15  C14 UNL     1      16.796  -0.316  51.905  1.00  0.00     0.001 A 
HETATM   16  C15 UNL     1      16.893   1.012  51.561  1.00  0.00     0.015 A 
HETATM   17  C16 UNL     1      18.046   1.761  51.624  1.00  0.00     0.006 A 
HETATM   18  C17 UNL     1      18.258   3.157  51.290  1.00  0.00     0.012 A 
HETATM   19  S2  UNL     1      19.945   3.491  51.593  1.00  0.00    -0.070 SA
HETATM   20  C20 UNL     1      21.096   4.694  51.018  1.00  0.00     0.212 C 
ENDROOT
BRANCH   9  21
HETATM   21  C8  UNL     1      24.093   1.574  52.404  1.00  0.00     0.146 C 
BRANCH  21  22
HETATM   22  C9  UNL     1      24.474   2.785  53.132  1.00  0.00     0.143 C 
HETATM   23  O1  UNL     1      24.212   3.967  53.533  1.00  0.00    -0.650 OA
BRANCH  22  24
HETATM   24  O2  UNL     1      25.754   2.542  53.648  1.00  0.00    -0.776 OA
HETATM   25  H10 UNL     1      26.551   3.107  53.511  1.00  0.00     0.167 HD
ENDBRANCH  22  24
ENDBRANCH  21  22
ENDBRANCH   9  21
BRANCH  18  26
HETATM   26  C18 UNL     1      17.284   4.191  50.798  1.00  0.00     0.157 C 
BRANCH  26  27
HETATM   27  C19 UNL     1      16.081   4.287  51.670  1.00  0.00     0.144 C 
HETATM   28  O3  UNL     1      14.852   4.140  51.521  1.00  0.00    -0.650 OA
BRANCH  27  29
HETATM   29  O4  UNL     1      16.181   4.612  53.014  1.00  0.00    -0.776 OA
HETATM   30  H18 UNL     1      16.261   3.946  53.776  1.00  0.00     0.167 HD
ENDBRANCH  27  29
ENDBRANCH  26  27
ENDBRANCH  18  26
TORSDOF 6
ENDMDL
