MODEL 1
REMARK VINA RESULT:      -8.8      0.000      0.000
REMARK  5 active torsions:
REMARK  status: ('A' for Active; 'I' for Inactive)
REMARK    1  A    between atoms: C5_7  and  N3_8 
REMARK    2  A    between atoms: N3_8  and  C6_9 
REMARK    3  A    between atoms: C6_9  and  C7_10 
REMARK    4  A    between atoms: C12_19  and  N8_20 
REMARK    5  A    between atoms: C15_23  and  N9_24 
ROOT
HETATM    1  C7  UNL     1      22.513   2.258  51.586  1.00  0.00     0.038 C 
HETATM    2  C8  UNL     1      23.216   3.223  51.003  1.00  0.00     0.011 C 
HETATM    3  C9  UNL     1      24.718   3.379  51.021  1.00  0.00     0.032 C 
HETATM    4  C10 UNL     1      24.919   3.395  49.614  1.00  0.00     0.115 C 
HETATM    5  N4  UNL     1      23.538   3.291  49.040  1.00  0.00    -0.259 N 
HETATM    6  N5  UNL     1      22.961   2.370  48.105  1.00  0.00    -0.215 N 
HETATM    7  N6  UNL     1      21.622   1.805  48.333  1.00  0.00    -0.154 NA
HETATM    8  C11 UNL     1      21.190   1.223  49.480  1.00  0.00     0.231 C 
HETATM    9  N7  UNL     1      21.418   1.473  50.950  1.00  0.00    -0.351 N 
HETATM   10  C12 UNL     1      22.868   4.328  49.958  1.00  0.00     0.240 C 
HETATM   11  H11 UNL     1      23.787   2.366  47.485  1.00  0.00     0.211 HD
HETATM   12  H13 UNL     1      20.892   1.143  51.748  1.00  0.00     0.166 HD
ENDROOT
BRANCH   1  13
HETATM   13  C6  UNL     1      23.085   2.081  52.915  1.00  0.00     0.177 C 
BRANCH  13  14
HETATM   14  N3  UNL     1      23.845   0.821  52.880  1.00  0.00    -0.384 N 
HETATM   15  H6  UNL     1      23.214   0.017  52.675  1.00  0.00     0.160 HD
BRANCH  14  16
HETATM   16  C5  UNL     1      25.197   0.427  53.047  1.00  0.00     0.029 A 
HETATM   17  C4  UNL     1      26.156   1.317  53.542  1.00  0.00     0.046 A 
HETATM   18  C3  UNL     1      27.429   0.824  53.671  1.00  0.00     0.038 A 
HETATM   19  C2  UNL     1      28.766   1.208  54.090  1.00  0.00     0.135 A 
HETATM   20  C20 UNL     1      27.834  -0.454  53.359  1.00  0.00     0.049 A 
HETATM   21  N1  UNL     1      29.168  -0.106  53.766  1.00  0.00    -0.335 N 
HETATM   22  N2  UNL     1      29.382   2.221  54.547  1.00  0.00    -0.283 NA
HETATM   23  C1  UNL     1      30.435  -0.826  53.822  1.00  0.00     0.158 C 
HETATM   24  H4  UNL     1      28.949   3.148  54.742  1.00  0.00     0.188 HD
HETATM   25  C19 UNL     1      26.885  -1.325  52.872  1.00  0.00     0.033 A 
HETATM   26  C18 UNL     1      25.596  -0.852  52.734  1.00  0.00     0.031 A 
ENDBRANCH  14  16
ENDBRANCH  13  14
ENDBRANCH   1  13
BRANCH  10  27
HETATM   27  N8  UNL     1      23.573   5.469  49.973  1.00  0.00    -0.387 N 
HETATM   28  C13 UNL     1      23.861   6.136  48.724  1.00  0.00     0.121 C 
HETATM   29  C14 UNL     1      25.265   6.723  48.832  1.00  0.00     0.055 C 
HETATM   30  C15 UNL     1      25.168   7.864  49.842  1.00  0.00     0.221 C 
HETATM   31  C16 UNL     1      23.895   7.708  50.647  1.00  0.00     0.055 C 
HETATM   32  C17 UNL     1      23.829   6.248  51.122  1.00  0.00     0.121 C 
BRANCH  30  33
HETATM   33  N9  UNL     1      26.330   7.788  50.683  1.00  0.00     0.083 N 
HETATM   34  H20 UNL     1      26.124   7.665  51.684  1.00  0.00     0.313 HD
HETATM   35  H21 UNL     1      27.071   7.155  50.308  1.00  0.00     0.313 HD
ENDBRANCH  30  33
ENDBRANCH  10  27
TORSDOF 5
ENDMDL
MODEL 2
REMARK VINA RESULT:      -8.4      2.605      6.703
REMARK  5 active torsions:
REMARK  status: ('A' for Active; 'I' for Inactive)
REMARK    1  A    between atoms: C5_7  and  N3_8 
REMARK    2  A    between atoms: N3_8  and  C6_9 
REMARK    3  A    between atoms: C6_9  and  C7_10 
REMARK    4  A    between atoms: C12_19  and  N8_20 
REMARK    5  A    between atoms: C15_23  and  N9_24 
ROOT
HETATM    1  C7  UNL     1      23.778   3.195  50.394  1.00  0.00     0.038 C 
HETATM    2  C8  UNL     1      24.313   2.510  51.398  1.00  0.00     0.011 C 
HETATM    3  C9  UNL     1      24.531   3.002  52.809  1.00  0.00     0.032 C 
HETATM    4  C10 UNL     1      23.798   1.983  53.477  1.00  0.00     0.115 C 
HETATM    5  N4  UNL     1      23.331   1.079  52.374  1.00  0.00    -0.259 N 
HETATM    6  N5  UNL     1      22.024   0.618  52.010  1.00  0.00    -0.215 N 
HETATM    7  N6  UNL     1      21.602   0.587  50.602  1.00  0.00    -0.154 NA
HETATM    8  C11 UNL     1      21.707   1.612  49.718  1.00  0.00     0.231 C 
HETATM    9  N7  UNL     1      22.719   2.701  49.470  1.00  0.00    -0.351 N 
HETATM   10  C12 UNL     1      24.664   1.004  51.609  1.00  0.00     0.240 C 
HETATM   11  H11 UNL     1      21.730   0.450  52.986  1.00  0.00     0.211 HD
HETATM   12  H13 UNL     1      22.843   3.291  48.658  1.00  0.00     0.166 HD
ENDROOT
BRANCH   1  13
HETATM   13  C6  UNL     1      24.373   4.525  50.443  1.00  0.00     0.177 C 
BRANCH  13  14
HETATM   14  N3  UNL     1      25.207   4.657  49.238  1.00  0.00    -0.384 N 
HETATM   15  H6  UNL     1      24.854   4.036  48.479  1.00  0.00     0.160 HD
BRANCH  14  16
HETATM   16  C5  UNL     1      26.348   5.404  48.850  1.00  0.00     0.029 A 
HETATM   17  C4  UNL     1      27.592   4.789  48.674  1.00  0.00     0.046 A 
HETATM   18  C3  UNL     1      28.622   5.607  48.288  1.00  0.00     0.038 A 
HETATM   19  C2  UNL     1      30.039   5.586  47.964  1.00  0.00     0.135 A 
HETATM   20  C20 UNL     1      28.535   6.962  48.063  1.00  0.00     0.049 A 
HETATM   21  N1  UNL     1      29.935   6.976  47.737  1.00  0.00    -0.335 N 
HETATM   22  N2  UNL     1      31.001   4.759  47.892  1.00  0.00    -0.283 NA
HETATM   23  C1  UNL     1      30.874   8.014  47.333  1.00  0.00     0.158 C 
HETATM   24  H4  UNL     1      30.931   3.740  48.092  1.00  0.00     0.188 HD
HETATM   25  C19 UNL     1      27.307   7.561  48.239  1.00  0.00     0.033 A 
HETATM   26  C18 UNL     1      26.255   6.759  48.626  1.00  0.00     0.031 A 
ENDBRANCH  14  16
ENDBRANCH  13  14
ENDBRANCH   1  13
BRANCH  10  27
HETATM   27  N8  UNL     1      25.668   0.690  52.439  1.00  0.00    -0.387 N 
HETATM   28  C13 UNL     1      25.502  -0.410  53.361  1.00  0.00     0.121 C 
HETATM   29  C14 UNL     1      26.199  -0.025  54.663  1.00  0.00     0.055 C 
HETATM   30  C15 UNL     1      27.695  -0.028  54.356  1.00  0.00     0.221 C 
HETATM   31  C16 UNL     1      27.894   0.027  52.857  1.00  0.00     0.055 C 
HETATM   32  C17 UNL     1      26.996   1.150  52.315  1.00  0.00     0.121 C 
BRANCH  30  33
HETATM   33  N9  UNL     1      28.263   1.124  55.001  1.00  0.00     0.083 N 
HETATM   34  H20 UNL     1      29.243   1.008  55.293  1.00  0.00     0.313 HD
HETATM   35  H21 UNL     1      28.057   2.019  54.505  1.00  0.00     0.313 HD
ENDBRANCH  30  33
ENDBRANCH  10  27
TORSDOF 5
ENDMDL
MODEL 3
REMARK VINA RESULT:      -8.4      2.234      7.674
REMARK  5 active torsions:
REMARK  status: ('A' for Active; 'I' for Inactive)
REMARK    1  A    between atoms: C5_7  and  N3_8 
REMARK    2  A    between atoms: N3_8  and  C6_9 
REMARK    3  A    between atoms: C6_9  and  C7_10 
REMARK    4  A    between atoms: C12_19  and  N8_20 
REMARK    5  A    between atoms: C15_23  and  N9_24 
ROOT
HETATM    1  C7  UNL     1      27.203   2.335  52.315  1.00  0.00     0.038 C 
HETATM    2  C8  UNL     1      26.308   1.395  52.596  1.00  0.00     0.011 C 
HETATM    3  C9  UNL     1      25.876   0.263  51.694  1.00  0.00     0.032 C 
HETATM    4  C10 UNL     1      26.187  -0.807  52.576  1.00  0.00     0.115 C 
HETATM    5  N4  UNL     1      26.690  -0.131  53.817  1.00  0.00    -0.259 N 
HETATM    6  N5  UNL     1      27.911  -0.277  54.553  1.00  0.00    -0.215 N 
HETATM    7  N6  UNL     1      28.638   0.902  55.049  1.00  0.00    -0.154 NA
HETATM    8  C11 UNL     1      28.973   1.994  54.316  1.00  0.00     0.231 C 
HETATM    9  N7  UNL     1      28.315   2.772  53.205  1.00  0.00    -0.351 N 
HETATM   10  C12 UNL     1      25.594   0.945  53.909  1.00  0.00     0.240 C 
HETATM   11  H11 UNL     1      27.922  -1.307  54.477  1.00  0.00     0.211 HD
HETATM   12  H13 UNL     1      28.520   3.701  52.861  1.00  0.00     0.166 HD
ENDROOT
BRANCH   1  13
HETATM   13  C6  UNL     1      26.922   2.773  50.953  1.00  0.00     0.177 C 
BRANCH  13  14
HETATM   14  N3  UNL     1      25.892   3.819  51.053  1.00  0.00    -0.384 N 
HETATM   15  H6  UNL     1      26.331   4.763  51.100  1.00  0.00     0.160 HD
BRANCH  14  16
HETATM   16  C5  UNL     1      24.476   3.871  51.098  1.00  0.00     0.029 A 
HETATM   17  C4  UNL     1      23.696   3.304  50.083  1.00  0.00     0.046 A 
HETATM   18  C3  UNL     1      22.338   3.405  50.237  1.00  0.00     0.038 A 
HETATM   19  C2  UNL     1      21.085   3.052  49.590  1.00  0.00     0.135 A 
HETATM   20  C20 UNL     1      21.687   4.009  51.289  1.00  0.00     0.049 A 
HETATM   21  N1  UNL     1      20.431   3.674  50.675  1.00  0.00    -0.335 N 
HETATM   22  N2  UNL     1      20.672   2.463  48.543  1.00  0.00    -0.283 NA
HETATM   23  C1  UNL     1      19.035   3.892  51.033  1.00  0.00     0.158 C 
HETATM   24  H4  UNL     1      21.281   2.043  47.811  1.00  0.00     0.188 HD
HETATM   25  C19 UNL     1      22.461   4.565  52.284  1.00  0.00     0.033 A 
HETATM   26  C18 UNL     1      23.831   4.475  52.153  1.00  0.00     0.031 A 
ENDBRANCH  14  16
ENDBRANCH  13  14
ENDBRANCH   1  13
BRANCH  10  27
HETATM   27  N8  UNL     1      24.378   0.389  53.819  1.00  0.00    -0.387 N 
HETATM   28  C13 UNL     1      23.457   0.867  52.814  1.00  0.00     0.121 C 
HETATM   29  C14 UNL     1      22.059   0.842  53.423  1.00  0.00     0.055 C 
HETATM   30  C15 UNL     1      21.695  -0.633  53.581  1.00  0.00     0.221 C 
HETATM   31  C16 UNL     1      22.955  -1.467  53.498  1.00  0.00     0.055 C 
HETATM   32  C17 UNL     1      23.994  -0.824  54.431  1.00  0.00     0.121 C 
BRANCH  30  33
HETATM   33  N9  UNL     1      21.055  -0.780  54.859  1.00  0.00     0.083 N 
HETATM   34  H20 UNL     1      21.703  -0.805  55.659  1.00  0.00     0.313 HD
HETATM   35  H21 UNL     1      20.231  -0.152  54.983  1.00  0.00     0.313 HD
ENDBRANCH  30  33
ENDBRANCH  10  27
TORSDOF 5
ENDMDL
MODEL 4
REMARK VINA RESULT:      -8.3      1.875      3.066
REMARK  5 active torsions:
REMARK  status: ('A' for Active; 'I' for Inactive)
REMARK    1  A    between atoms: C5_7  and  N3_8 
REMARK    2  A    between atoms: N3_8  and  C6_9 
REMARK    3  A    between atoms: C6_9  and  C7_10 
REMARK    4  A    between atoms: C12_19  and  N8_20 
REMARK    5  A    between atoms: C15_23  and  N9_24 
ROOT
HETATM    1  C7  UNL     1      24.102   3.404  50.781  1.00  0.00     0.038 C 
HETATM    2  C8  UNL     1      23.688   4.644  50.552  1.00  0.00     0.011 C 
HETATM    3  C9  UNL     1      23.237   5.649  51.586  1.00  0.00     0.032 C 
HETATM    4  C10 UNL     1      24.155   6.681  51.255  1.00  0.00     0.115 C 
HETATM    5  N4  UNL     1      24.928   6.132  50.093  1.00  0.00    -0.259 N 
HETATM    6  N5  UNL     1      26.335   5.960  49.880  1.00  0.00    -0.215 N 
HETATM    7  N6  UNL     1      26.861   4.722  49.286  1.00  0.00    -0.154 NA
HETATM    8  C11 UNL     1      26.562   3.459  49.685  1.00  0.00     0.231 C 
HETATM    9  N7  UNL     1      25.323   2.774  50.204  1.00  0.00    -0.351 N 
HETATM   10  C12 UNL     1      23.727   5.581  49.305  1.00  0.00     0.240 C 
HETATM   11  H11 UNL     1      26.585   6.874  50.290  1.00  0.00     0.211 HD
HETATM   12  H13 UNL     1      25.114   1.787  50.271  1.00  0.00     0.166 HD
ENDROOT
BRANCH   1  13
HETATM   13  C6  UNL     1      23.179   2.836  51.755  1.00  0.00     0.177 C 
BRANCH  13  14
HETATM   14  N3  UNL     1      23.999   2.343  52.873  1.00  0.00    -0.384 N 
HETATM   15  H6  UNL     1      23.560   2.588  53.786  1.00  0.00     0.160 HD
BRANCH  14  16
HETATM   16  C5  UNL     1      25.213   1.626  53.024  1.00  0.00     0.029 A 
HETATM   17  C4  UNL     1      26.347   2.228  53.578  1.00  0.00     0.046 A 
HETATM   18  C3  UNL     1      27.461   1.436  53.684  1.00  0.00     0.038 A 
HETATM   19  C2  UNL     1      28.843   1.462  54.135  1.00  0.00     0.135 A 
HETATM   20  C20 UNL     1      27.555   0.119  53.297  1.00  0.00     0.049 A 
HETATM   21  N1  UNL     1      28.925   0.111  53.733  1.00  0.00    -0.335 N 
HETATM   22  N2  UNL     1      29.674   2.269  54.657  1.00  0.00    -0.283 NA
HETATM   23  C1  UNL     1      29.980  -0.894  53.753  1.00  0.00     0.158 C 
HETATM   24  H4  UNL     1      29.472   3.260  54.906  1.00  0.00     0.188 HD
HETATM   25  C19 UNL     1      26.434  -0.468  52.752  1.00  0.00     0.033 A 
HETATM   26  C18 UNL     1      25.300   0.308  52.635  1.00  0.00     0.031 A 
ENDBRANCH  14  16
ENDBRANCH  13  14
ENDBRANCH   1  13
BRANCH  10  27
HETATM   27  N8  UNL     1      22.777   6.519  49.176  1.00  0.00    -0.387 N 
HETATM   28  C13 UNL     1      23.116   7.788  48.575  1.00  0.00     0.121 C 
HETATM   29  C14 UNL     1      22.336   8.869  49.315  1.00  0.00     0.055 C 
HETATM   30  C15 UNL     1      20.870   8.665  48.937  1.00  0.00     0.221 C 
HETATM   31  C16 UNL     1      20.695   7.275  48.362  1.00  0.00     0.055 C 
HETATM   32  C17 UNL     1      21.391   6.292  49.317  1.00  0.00     0.121 C 
BRANCH  30  33
HETATM   33  N9  UNL     1      20.094   8.836  50.134  1.00  0.00     0.083 N 
HETATM   34  H20 UNL     1      19.328   9.518  50.051  1.00  0.00     0.313 HD
HETATM   35  H21 UNL     1      19.829   7.933  50.587  1.00  0.00     0.313 HD
ENDBRANCH  30  33
ENDBRANCH  10  27
TORSDOF 5
ENDMDL
MODEL 5
REMARK VINA RESULT:      -8.3      1.594      7.356
REMARK  5 active torsions:
REMARK  status: ('A' for Active; 'I' for Inactive)
REMARK    1  A    between atoms: C5_7  and  N3_8 
REMARK    2  A    between atoms: N3_8  and  C6_9 
REMARK    3  A    between atoms: C6_9  and  C7_10 
REMARK    4  A    between atoms: C12_19  and  N8_20 
REMARK    5  A    between atoms: C15_23  and  N9_24 
ROOT
HETATM    1  C7  UNL     1      23.958   2.493  50.129  1.00  0.00     0.038 C 
HETATM    2  C8  UNL     1      24.566   2.124  51.250  1.00  0.00     0.011 C 
HETATM    3  C9  UNL     1      25.326   3.020  52.200  1.00  0.00     0.032 C 
HETATM    4  C10 UNL     1      24.583   2.719  53.374  1.00  0.00     0.115 C 
HETATM    5  N4  UNL     1      23.578   1.700  52.926  1.00  0.00    -0.259 N 
HETATM    6  N5  UNL     1      22.149   1.666  53.022  1.00  0.00    -0.215 N 
HETATM    7  N6  UNL     1      21.327   1.232  51.882  1.00  0.00    -0.154 NA
HETATM    8  C11 UNL     1      21.432   1.689  50.608  1.00  0.00     0.231 C 
HETATM    9  N7  UNL     1      22.576   2.111  49.722  1.00  0.00    -0.351 N 
HETATM   10  C12 UNL     1      24.543   0.822  52.111  1.00  0.00     0.240 C 
HETATM   11  H11 UNL     1      22.130   2.031  53.988  1.00  0.00     0.211 HD
HETATM   12  H13 UNL     1      22.603   2.228  48.718  1.00  0.00     0.166 HD
ENDROOT
BRANCH   1  13
HETATM   13  C6  UNL     1      24.876   3.394  49.443  1.00  0.00     0.177 C 
BRANCH  13  14
HETATM   14  N3  UNL     1      24.277   4.736  49.514  1.00  0.00    -0.384 N 
HETATM   15  H6  UNL     1      23.295   4.682  49.860  1.00  0.00     0.160 HD
BRANCH  14  16
HETATM   16  C5  UNL     1      24.688   6.065  49.240  1.00  0.00     0.029 A 
HETATM   17  C4  UNL     1      25.590   6.732  50.076  1.00  0.00     0.046 A 
HETATM   18  C3  UNL     1      25.924   8.010  49.707  1.00  0.00     0.038 A 
HETATM   19  C2  UNL     1      26.740   9.141  50.116  1.00  0.00     0.135 A 
HETATM   20  C20 UNL     1      25.453   8.680  48.601  1.00  0.00     0.049 A 
HETATM   21  N1  UNL     1      26.249   9.816  48.979  1.00  0.00    -0.335 N 
HETATM   22  N2  UNL     1      27.547   9.465  51.043  1.00  0.00    -0.283 NA
HETATM   23  C1  UNL     1      26.463  11.141  48.410  1.00  0.00     0.158 C 
HETATM   24  H4  UNL     1      27.824   8.852  51.838  1.00  0.00     0.188 HD
HETATM   25  C19 UNL     1      24.565   8.017  47.783  1.00  0.00     0.033 A 
HETATM   26  C18 UNL     1      24.214   6.730  48.132  1.00  0.00     0.031 A 
ENDBRANCH  14  16
ENDBRANCH  13  14
ENDBRANCH   1  13
BRANCH  10  27
HETATM   27  N8  UNL     1      25.628   0.514  52.836  1.00  0.00    -0.387 N 
HETATM   28  C13 UNL     1      25.470  -0.261  54.045  1.00  0.00     0.121 C 
HETATM   29  C14 UNL     1      26.471   0.274  55.065  1.00  0.00     0.055 C 
HETATM   30  C15 UNL     1      27.852  -0.128  54.551  1.00  0.00     0.221 C 
HETATM   31  C16 UNL     1      27.749  -0.491  53.085  1.00  0.00     0.055 C 
HETATM   32  C17 UNL     1      26.961   0.631  52.389  1.00  0.00     0.121 C 
BRANCH  30  33
HETATM   33  N9  UNL     1      28.724   0.996  54.750  1.00  0.00     0.083 N 
HETATM   34  H20 UNL     1      29.288   0.951  55.610  1.00  0.00     0.313 HD
HETATM   35  H21 UNL     1      29.254   1.265  53.893  1.00  0.00     0.313 HD
ENDBRANCH  30  33
ENDBRANCH  10  27
TORSDOF 5
ENDMDL
MODEL 6
REMARK VINA RESULT:      -8.2      2.106      6.913
REMARK  5 active torsions:
REMARK  status: ('A' for Active; 'I' for Inactive)
REMARK    1  A    between atoms: C5_7  and  N3_8 
REMARK    2  A    between atoms: N3_8  and  C6_9 
REMARK    3  A    between atoms: C6_9  and  C7_10 
REMARK    4  A    between atoms: C12_19  and  N8_20 
REMARK    5  A    between atoms: C15_23  and  N9_24 
ROOT
HETATM    1  C7  UNL     1      23.771   4.143  50.756  1.00  0.00     0.038 C 
HETATM    2  C8  UNL     1      24.262   3.179  51.526  1.00  0.00     0.011 C 
HETATM    3  C9  UNL     1      24.159   3.087  53.030  1.00  0.00     0.032 C 
HETATM    4  C10 UNL     1      23.537   1.810  53.096  1.00  0.00     0.115 C 
HETATM    5  N4  UNL     1      23.429   1.376  51.665  1.00  0.00    -0.259 N 
HETATM    6  N5  UNL     1      22.306   0.954  50.880  1.00  0.00    -0.215 N 
HETATM    7  N6  UNL     1      22.123   1.441  49.504  1.00  0.00    -0.154 NA
HETATM    8  C11 UNL     1      22.169   2.738  49.108  1.00  0.00     0.231 C 
HETATM    9  N7  UNL     1      22.983   3.943  49.508  1.00  0.00    -0.351 N 
HETATM   10  C12 UNL     1      24.854   1.764  51.236  1.00  0.00     0.240 C 
HETATM   11  H11 UNL     1      21.900   0.377  51.634  1.00  0.00     0.211 HD
HETATM   12  H13 UNL     1      23.118   4.819  49.020  1.00  0.00     0.166 HD
ENDROOT
BRANCH   1  13
HETATM   13  C6  UNL     1      24.087   5.400  51.423  1.00  0.00     0.177 C 
BRANCH  13  14
HETATM   14  N3  UNL     1      24.463   6.352  50.366  1.00  0.00    -0.384 N 
HETATM   15  H6  UNL     1      23.614   6.784  49.942  1.00  0.00     0.160 HD
BRANCH  14  16
HETATM   16  C5  UNL     1      25.666   6.829  49.787  1.00  0.00     0.029 A 
HETATM   17  C4  UNL     1      26.136   8.121  50.049  1.00  0.00     0.046 A 
HETATM   18  C3  UNL     1      27.315   8.470  49.443  1.00  0.00     0.038 A 
HETATM   19  C2  UNL     1      28.254   9.573  49.320  1.00  0.00     0.135 A 
HETATM   20  C20 UNL     1      28.063   7.668  48.611  1.00  0.00     0.049 A 
HETATM   21  N1  UNL     1      29.011   8.740  48.468  1.00  0.00    -0.335 N 
HETATM   22  N2  UNL     1      28.407  10.762  49.740  1.00  0.00    -0.283 NA
HETATM   23  C1  UNL     1      30.260   8.901  47.734  1.00  0.00     0.158 C 
HETATM   24  H4  UNL     1      27.754  11.261  50.379  1.00  0.00     0.188 HD
HETATM   25  C19 UNL     1      27.595   6.398  48.357  1.00  0.00     0.033 A 
HETATM   26  C18 UNL     1      26.410   6.023  48.956  1.00  0.00     0.031 A 
ENDBRANCH  14  16
ENDBRANCH  13  14
ENDBRANCH   1  13
BRANCH  10  27
HETATM   27  N8  UNL     1      25.757   1.260  52.089  1.00  0.00    -0.387 N 
HETATM   28  C13 UNL     1      25.734  -0.154  52.386  1.00  0.00     0.121 C 
HETATM   29  C14 UNL     1      26.087  -0.318  53.861  1.00  0.00     0.055 C 
HETATM   30  C15 UNL     1      27.562   0.057  53.985  1.00  0.00     0.221 C 
HETATM   31  C16 UNL     1      27.981   0.836  52.757  1.00  0.00     0.055 C 
HETATM   32  C17 UNL     1      26.923   1.927  52.522  1.00  0.00     0.121 C 
BRANCH  30  33
HETATM   33  N9  UNL     1      27.702   0.848  55.177  1.00  0.00     0.083 N 
HETATM   34  H20 UNL     1      26.951   1.537  55.321  1.00  0.00     0.313 HD
HETATM   35  H21 UNL     1      27.946   0.284  56.021  1.00  0.00     0.313 HD
ENDBRANCH  30  33
ENDBRANCH  10  27
TORSDOF 5
ENDMDL
MODEL 7
REMARK VINA RESULT:      -8.1      2.247      3.954
REMARK  5 active torsions:
REMARK  status: ('A' for Active; 'I' for Inactive)
REMARK    1  A    between atoms: C5_7  and  N3_8 
REMARK    2  A    between atoms: N3_8  and  C6_9 
REMARK    3  A    between atoms: C6_9  and  C7_10 
REMARK    4  A    between atoms: C12_19  and  N8_20 
REMARK    5  A    between atoms: C15_23  and  N9_24 
ROOT
HETATM    1  C7  UNL     1      23.997   4.216  51.434  1.00  0.00     0.038 C 
HETATM    2  C8  UNL     1      22.851   4.652  50.924  1.00  0.00     0.011 C 
HETATM    3  C9  UNL     1      21.828   5.519  51.618  1.00  0.00     0.032 C 
HETATM    4  C10 UNL     1      21.801   6.574  50.666  1.00  0.00     0.115 C 
HETATM    5  N4  UNL     1      22.752   6.130  49.594  1.00  0.00    -0.259 N 
HETATM    6  N5  UNL     1      23.902   6.763  49.019  1.00  0.00    -0.215 N 
HETATM    7  N6  UNL     1      25.136   6.002  48.770  1.00  0.00    -0.154 NA
HETATM    8  C11 UNL     1      25.772   5.205  49.666  1.00  0.00     0.231 C 
HETATM    9  N7  UNL     1      25.325   4.270  50.762  1.00  0.00    -0.351 N 
HETATM   10  C12 UNL     1      22.254   4.679  49.482  1.00  0.00     0.240 C 
HETATM   11  H11 UNL     1      23.459   7.695  48.973  1.00  0.00     0.211 HD
HETATM   12  H13 UNL     1      25.843   3.544  51.239  1.00  0.00     0.166 HD
ENDROOT
BRANCH   1  13
HETATM   13  C6  UNL     1      23.698   3.764  52.787  1.00  0.00     0.177 C 
BRANCH  13  14
HETATM   14  N3  UNL     1      24.109   2.353  52.859  1.00  0.00    -0.384 N 
HETATM   15  H6  UNL     1      23.281   1.725  52.775  1.00  0.00     0.160 HD
BRANCH  14  16
HETATM   16  C5  UNL     1      25.325   1.639  53.007  1.00  0.00     0.029 A 
HETATM   17  C4  UNL     1      26.447   2.232  53.597  1.00  0.00     0.046 A 
HETATM   18  C3  UNL     1      27.564   1.443  53.697  1.00  0.00     0.038 A 
HETATM   19  C2  UNL     1      28.938   1.464  54.170  1.00  0.00     0.135 A 
HETATM   20  C20 UNL     1      27.672   0.139  53.272  1.00  0.00     0.049 A 
HETATM   21  N1  UNL     1      29.035   0.126  53.729  1.00  0.00    -0.335 N 
HETATM   22  N2  UNL     1      29.756   2.260  54.729  1.00  0.00    -0.283 NA
HETATM   23  C1  UNL     1      30.096  -0.873  53.735  1.00  0.00     0.158 C 
HETATM   24  H4  UNL     1      29.544   3.241  55.004  1.00  0.00     0.188 HD
HETATM   25  C19 UNL     1      26.564  -0.438  52.692  1.00  0.00     0.033 A 
HETATM   26  C18 UNL     1      25.427   0.335  52.581  1.00  0.00     0.031 A 
ENDBRANCH  14  16
ENDBRANCH  13  14
ENDBRANCH   1  13
BRANCH  10  27
HETATM   27  N8  UNL     1      20.921   4.647  49.340  1.00  0.00    -0.387 N 
HETATM   28  C13 UNL     1      20.308   5.413  48.280  1.00  0.00     0.121 C 
HETATM   29  C14 UNL     1      18.992   5.966  48.817  1.00  0.00     0.055 C 
HETATM   30  C15 UNL     1      18.065   4.763  48.982  1.00  0.00     0.221 C 
HETATM   31  C16 UNL     1      18.893   3.496  48.979  1.00  0.00     0.055 C 
HETATM   32  C17 UNL     1      20.063   3.709  49.953  1.00  0.00     0.121 C 
BRANCH  30  33
HETATM   33  N9  UNL     1      17.369   4.930  50.228  1.00  0.00     0.083 N 
HETATM   34  H20 UNL     1      17.600   5.797  50.732  1.00  0.00     0.313 HD
HETATM   35  H21 UNL     1      16.349   4.719  50.163  1.00  0.00     0.313 HD
ENDBRANCH  30  33
ENDBRANCH  10  27
TORSDOF 5
ENDMDL
MODEL 8
REMARK VINA RESULT:      -8.1      1.851      2.310
REMARK  5 active torsions:
REMARK  status: ('A' for Active; 'I' for Inactive)
REMARK    1  A    between atoms: C5_7  and  N3_8 
REMARK    2  A    between atoms: N3_8  and  C6_9 
REMARK    3  A    between atoms: C6_9  and  C7_10 
REMARK    4  A    between atoms: C12_19  and  N8_20 
REMARK    5  A    between atoms: C15_23  and  N9_24 
ROOT
HETATM    1  C7  UNL     1      20.639   1.316  50.839  1.00  0.00     0.038 C 
HETATM    2  C8  UNL     1      21.404   2.298  50.379  1.00  0.00     0.011 C 
HETATM    3  C9  UNL     1      22.593   2.158  49.457  1.00  0.00     0.032 C 
HETATM    4  C10 UNL     1      22.135   3.027  48.429  1.00  0.00     0.115 C 
HETATM    5  N4  UNL     1      20.819   3.539  48.936  1.00  0.00    -0.259 N 
HETATM    6  N5  UNL     1      19.507   3.529  48.359  1.00  0.00    -0.215 N 
HETATM    7  N6  UNL     1      18.331   3.178  49.169  1.00  0.00    -0.154 NA
HETATM    8  C11 UNL     1      18.210   2.083  49.962  1.00  0.00     0.231 C 
HETATM    9  N7  UNL     1      19.149   1.305  50.849  1.00  0.00    -0.351 N 
HETATM   10  C12 UNL     1      21.274   3.853  50.371  1.00  0.00     0.240 C 
HETATM   11  H11 UNL     1      19.839   3.782  47.414  1.00  0.00     0.211 HD
HETATM   12  H13 UNL     1      18.939   0.637  51.579  1.00  0.00     0.166 HD
ENDROOT
BRANCH   1  13
HETATM   13  C6  UNL     1      21.543   0.246  51.242  1.00  0.00     0.177 C 
BRANCH  13  14
HETATM   14  N3  UNL     1      22.305   0.753  52.395  1.00  0.00    -0.384 N 
HETATM   15  H6  UNL     1      21.713   1.383  52.977  1.00  0.00     0.160 HD
BRANCH  14  16
HETATM   16  C5  UNL     1      23.616   0.602  52.911  1.00  0.00     0.029 A 
HETATM   17  C4  UNL     1      24.652   1.459  52.523  1.00  0.00     0.046 A 
HETATM   18  C3  UNL     1      25.876   1.226  53.094  1.00  0.00     0.038 A 
HETATM   19  C2  UNL     1      27.243   1.720  53.109  1.00  0.00     0.135 A 
HETATM   20  C20 UNL     1      26.166   0.234  54.004  1.00  0.00     0.049 A 
HETATM   21  N1  UNL     1      27.527   0.698  54.041  1.00  0.00    -0.335 N 
HETATM   22  N2  UNL     1      27.946   2.632  52.573  1.00  0.00    -0.283 NA
HETATM   23  C1  UNL     1      28.724   0.278  54.758  1.00  0.00     0.158 C 
HETATM   24  H4  UNL     1      27.597   3.333  51.887  1.00  0.00     0.188 HD
HETATM   25  C19 UNL     1      25.143  -0.606  54.380  1.00  0.00     0.033 A 
HETATM   26  C18 UNL     1      23.901  -0.392  53.820  1.00  0.00     0.031 A 
ENDBRANCH  14  16
ENDBRANCH  13  14
ENDBRANCH   1  13
BRANCH  10  27
HETATM   27  N8  UNL     1      22.393   4.591  50.361  1.00  0.00    -0.387 N 
HETATM   28  C13 UNL     1      22.491   5.711  49.454  1.00  0.00     0.121 C 
HETATM   29  C14 UNL     1      23.931   5.769  48.952  1.00  0.00     0.055 C 
HETATM   30  C15 UNL     1      24.778   6.194  50.150  1.00  0.00     0.221 C 
HETATM   31  C16 UNL     1      23.985   5.975  51.421  1.00  0.00     0.055 C 
HETATM   32  C17 UNL     1      23.395   4.557  51.355  1.00  0.00     0.121 C 
BRANCH  30  33
HETATM   33  N9  UNL     1      25.970   5.392  50.134  1.00  0.00     0.083 N 
HETATM   34  H20 UNL     1      26.827   5.898  50.395  1.00  0.00     0.313 HD
HETATM   35  H21 UNL     1      25.850   4.465  50.597  1.00  0.00     0.313 HD
ENDBRANCH  30  33
ENDBRANCH  10  27
TORSDOF 5
ENDMDL
MODEL 9
REMARK VINA RESULT:      -8.1      2.788      4.962
REMARK  5 active torsions:
REMARK  status: ('A' for Active; 'I' for Inactive)
REMARK    1  A    between atoms: C5_7  and  N3_8 
REMARK    2  A    between atoms: N3_8  and  C6_9 
REMARK    3  A    between atoms: C6_9  and  C7_10 
REMARK    4  A    between atoms: C12_19  and  N8_20 
REMARK    5  A    between atoms: C15_23  and  N9_24 
ROOT
HETATM    1  C7  UNL     1      25.770   5.675  49.899  1.00  0.00     0.038 C 
HETATM    2  C8  UNL     1      26.357   6.712  49.315  1.00  0.00     0.011 C 
HETATM    3  C9  UNL     1      26.687   6.852  47.847  1.00  0.00     0.032 C 
HETATM    4  C10 UNL     1      25.979   8.062  47.612  1.00  0.00     0.115 C 
HETATM    5  N4  UNL     1      25.414   8.427  48.952  1.00  0.00    -0.259 N 
HETATM    6  N5  UNL     1      24.074   8.705  49.378  1.00  0.00    -0.215 N 
HETATM    7  N6  UNL     1      23.552   8.150  50.636  1.00  0.00    -0.154 NA
HETATM    8  C11 UNL     1      23.619   6.849  51.018  1.00  0.00     0.231 C 
HETATM    9  N7  UNL     1      24.637   5.747  50.864  1.00  0.00    -0.351 N 
HETATM   10  C12 UNL     1      26.686   8.166  49.776  1.00  0.00     0.240 C 
HETATM   11  H11 UNL     1      23.845   9.267  48.542  1.00  0.00     0.211 HD
HETATM   12  H13 UNL     1      24.717   4.871  51.363  1.00  0.00     0.166 HD
ENDROOT
BRANCH   1  13
HETATM   13  C6  UNL     1      26.398   4.482  49.345  1.00  0.00     0.177 C 
BRANCH  13  14
HETATM   14  N3  UNL     1      26.900   3.703  50.487  1.00  0.00    -0.384 N 
HETATM   15  H6  UNL     1      27.888   3.959  50.700  1.00  0.00     0.160 HD
BRANCH  14  16
HETATM   16  C5  UNL     1      26.391   2.710  51.362  1.00  0.00     0.029 A 
HETATM   17  C4  UNL     1      27.207   2.103  52.324  1.00  0.00     0.046 A 
HETATM   18  C3  UNL     1      26.605   1.164  53.121  1.00  0.00     0.038 A 
HETATM   19  C2  UNL     1      26.880   0.250  54.217  1.00  0.00     0.135 A 
HETATM   20  C20 UNL     1      25.285   0.776  53.056  1.00  0.00     0.049 A 
HETATM   21  N1  UNL     1      25.525  -0.139  54.138  1.00  0.00    -0.335 N 
HETATM   22  N2  UNL     1      27.848  -0.104  54.960  1.00  0.00    -0.283 NA
HETATM   23  C1  UNL     1      24.696  -1.091  54.867  1.00  0.00     0.158 C 
HETATM   24  H4  UNL     1      28.816   0.276  54.904  1.00  0.00     0.188 HD
HETATM   25  C19 UNL     1      24.489   1.378  52.107  1.00  0.00     0.033 A 
HETATM   26  C18 UNL     1      25.071   2.326  51.293  1.00  0.00     0.031 A 
ENDBRANCH  14  16
ENDBRANCH  13  14
ENDBRANCH   1  13
BRANCH  10  27
HETATM   27  N8  UNL     1      27.739   8.790  49.229  1.00  0.00    -0.387 N 
HETATM   28  C13 UNL     1      27.720  10.230  49.107  1.00  0.00     0.121 C 
HETATM   29  C14 UNL     1      28.399  10.587  47.789  1.00  0.00     0.055 C 
HETATM   30  C15 UNL     1      29.879  10.256  47.975  1.00  0.00     0.221 C 
HETATM   31  C16 UNL     1      30.035   9.333  49.165  1.00  0.00     0.055 C 
HETATM   32  C17 UNL     1      29.004   8.204  49.009  1.00  0.00     0.121 C 
BRANCH  30  33
HETATM   33  N9  UNL     1      30.329   9.627  46.764  1.00  0.00     0.083 N 
HETATM   34  H20 UNL     1      31.336   9.733  46.577  1.00  0.00     0.313 HD
HETATM   35  H21 UNL     1      29.961   8.658  46.640  1.00  0.00     0.313 HD
ENDBRANCH  30  33
ENDBRANCH  10  27
TORSDOF 5
ENDMDL
