MODEL 1
REMARK VINA RESULT:      -7.4      0.000      0.000
REMARK  4 active torsions:
REMARK  status: ('A' for Active; 'I' for Inactive)
REMARK    1  A    between atoms: N1_2  and  O1_3 
REMARK    2  A    between atoms: O1_3  and  C1_4 
REMARK    3  A    between atoms: C7_11  and  C10_14 
REMARK    4  A    between atoms: C10_14  and  C11_15 
ROOT
HETATM    1  C1  UNL     1      22.954   4.508  52.184  1.00  0.00     0.077 A 
HETATM    2  C2  UNL     1      24.140   4.038  52.478  1.00  0.00     0.042 A 
HETATM    3  C3  UNL     1      24.385   2.718  51.831  1.00  0.00    -0.045 A 
HETATM    4  C4  UNL     1      23.216   2.513  51.150  1.00  0.00    -0.043 A 
HETATM    5  C5  UNL     1      22.747   1.404  50.271  1.00  0.00     0.203 C 
HETATM    6  O2  UNL     1      21.742   0.513  50.660  1.00  0.00    -0.379 OA
HETATM    7  C6  UNL     1      21.360   0.137  52.030  1.00  0.00     0.073 A 
HETATM    8  C7  UNL     1      22.594  -0.062  52.507  1.00  0.00     0.155 A 
HETATM    9  C8  UNL     1      23.858  -0.265  52.999  1.00  0.00     0.238 A 
HETATM   10  C9  UNL     1      24.262  -0.658  54.314  1.00  0.00     0.222 A 
HETATM   11  C10 UNL     1      22.920  -0.528  54.076  1.00  0.00     0.090 A 
HETATM   12  C11 UNL     1      21.678  -0.291  53.450  1.00  0.00     0.081 A 
HETATM   13 CL1  UNL     1      20.127  -0.447  54.211  1.00  0.00    -0.115 Cl
HETATM   14  N2  UNL     1      25.390  -0.322  53.524  1.00  0.00     0.015 N 
HETATM   15  C12 UNL     1      26.406  -0.304  52.439  1.00  0.00     0.261 C 
HETATM   16  C13 UNL     1      26.186   0.931  51.537  1.00  0.00     0.040 C 
HETATM   17  C14 UNL     1      25.730   2.165  52.208  1.00  0.00     0.035 C 
HETATM   18  C15 UNL     1      25.966   2.020  53.671  1.00  0.00     0.127 C 
HETATM   19  N3  UNL     1      25.876   0.756  54.314  1.00  0.00    -0.150 NA
HETATM   20  C16 UNL     1      22.196   3.598  51.304  1.00  0.00     0.103 A 
HETATM   21  H15 UNL     1      26.715   0.422  54.788  1.00  0.00     0.153 HD
ENDROOT
BRANCH   1  22
HETATM   22  O1  UNL     1      22.221   5.622  52.477  1.00  0.00    -0.239 OA
BRANCH  22  23
HETATM   23  N1  UNL     1      21.956   6.641  51.606  1.00  0.00    -0.029 NA
HETATM   24  F1  UNL     1      23.077   7.164  51.068  1.00  0.00    -0.108 F 
HETATM   25  H1  UNL     1      21.214   6.419  50.908  1.00  0.00     0.194 HD
ENDBRANCH  22  23
ENDBRANCH   1  22
TORSDOF 4
ENDMDL
MODEL 2
REMARK VINA RESULT:      -7.3      3.602      5.704
REMARK  4 active torsions:
REMARK  status: ('A' for Active; 'I' for Inactive)
REMARK    1  A    between atoms: N1_2  and  O1_3 
REMARK    2  A    between atoms: O1_3  and  C1_4 
REMARK    3  A    between atoms: C7_11  and  C10_14 
REMARK    4  A    between atoms: C10_14  and  C11_15 
ROOT
HETATM    1  C1  UNL     1      25.741   2.094  53.166  1.00  0.00     0.077 A 
HETATM    2  C2  UNL     1      24.530   1.608  53.053  1.00  0.00     0.042 A 
HETATM    3  C3  UNL     1      23.990   1.790  51.676  1.00  0.00    -0.045 A 
HETATM    4  C4  UNL     1      25.027   2.422  51.045  1.00  0.00    -0.043 A 
HETATM    5  C5  UNL     1      25.205   2.907  49.647  1.00  0.00     0.203 C 
HETATM    6  O2  UNL     1      25.234   4.268  49.324  1.00  0.00    -0.379 OA
HETATM    7  C6  UNL     1      24.615   5.377  50.065  1.00  0.00     0.073 A 
HETATM    8  C7  UNL     1      23.423   4.806  50.271  1.00  0.00     0.155 A 
HETATM    9  C8  UNL     1      22.200   4.222  50.484  1.00  0.00     0.238 A 
HETATM   10  C9  UNL     1      21.059   4.744  51.170  1.00  0.00     0.222 A 
HETATM   11  C10 UNL     1      22.169   5.541  51.092  1.00  0.00     0.090 A 
HETATM   12  C11 UNL     1      23.462   6.028  50.803  1.00  0.00     0.081 A 
HETATM   13 CL1  UNL     1      24.066   7.590  51.257  1.00  0.00    -0.115 Cl
HETATM   14  N2  UNL     1      20.853   3.385  50.821  1.00  0.00     0.015 N 
HETATM   15  C12 UNL     1      20.705   2.130  50.039  1.00  0.00     0.261 C 
HETATM   16  C13 UNL     1      21.957   1.244  50.229  1.00  0.00     0.040 C 
HETATM   17  C14 UNL     1      22.586   1.270  51.566  1.00  0.00     0.035 C 
HETATM   18  C15 UNL     1      21.616   1.858  52.530  1.00  0.00     0.127 C 
HETATM   19  N3  UNL     1      20.692   2.861  52.133  1.00  0.00    -0.150 NA
HETATM   20  C16 UNL     1      26.223   2.688  51.906  1.00  0.00     0.103 A 
HETATM   21  H15 UNL     1      19.702   2.643  52.245  1.00  0.00     0.153 HD
ENDROOT
BRANCH   1  22
HETATM   22  O1  UNL     1      26.685   2.202  54.147  1.00  0.00    -0.239 OA
BRANCH  22  23
HETATM   23  N1  UNL     1      27.917   2.775  53.994  1.00  0.00    -0.029 NA
HETATM   24  F1  UNL     1      28.905   1.860  53.926  1.00  0.00    -0.108 F 
HETATM   25  H1  UNL     1      27.956   3.499  53.245  1.00  0.00     0.194 HD
ENDBRANCH  22  23
ENDBRANCH   1  22
TORSDOF 4
ENDMDL
MODEL 3
REMARK VINA RESULT:      -7.1      3.379      5.949
REMARK  4 active torsions:
REMARK  status: ('A' for Active; 'I' for Inactive)
REMARK    1  A    between atoms: N1_2  and  O1_3 
REMARK    2  A    between atoms: O1_3  and  C1_4 
REMARK    3  A    between atoms: C7_11  and  C10_14 
REMARK    4  A    between atoms: C10_14  and  C11_15 
ROOT
HETATM    1  C1  UNL     1      22.117  -0.442  54.061  1.00  0.00     0.077 A 
HETATM    2  C2  UNL     1      21.234  -0.292  53.105  1.00  0.00     0.042 A 
HETATM    3  C3  UNL     1      21.839   0.322  51.889  1.00  0.00    -0.045 A 
HETATM    4  C4  UNL     1      23.142   0.490  52.272  1.00  0.00    -0.043 A 
HETATM    5  C5  UNL     1      24.332   1.040  51.565  1.00  0.00     0.203 C 
HETATM    6  O2  UNL     1      24.910   2.266  51.913  1.00  0.00    -0.379 OA
HETATM    7  C6  UNL     1      24.257   3.411  52.564  1.00  0.00     0.073 A 
HETATM    8  C7  UNL     1      23.150   3.431  51.813  1.00  0.00     0.155 A 
HETATM    9  C8  UNL     1      22.014   3.451  51.046  1.00  0.00     0.238 A 
HETATM   10  C9  UNL     1      20.889   4.332  51.123  1.00  0.00     0.222 A 
HETATM   11  C10 UNL     1      21.910   4.529  52.014  1.00  0.00     0.090 A 
HETATM   12  C11 UNL     1      23.121   4.403  52.726  1.00  0.00     0.081 A 
HETATM   13 CL1  UNL     1      23.622   5.422  54.038  1.00  0.00    -0.115 Cl
HETATM   14  N2  UNL     1      20.644   3.290  50.193  1.00  0.00     0.015 N 
HETATM   15  C12 UNL     1      20.758   2.377  49.026  1.00  0.00     0.261 C 
HETATM   16  C13 UNL     1      21.275   0.996  49.491  1.00  0.00     0.040 C 
HETATM   17  C14 UNL     1      20.811   0.530  50.814  1.00  0.00     0.035 C 
HETATM   18  C15 UNL     1      19.633   1.349  51.214  1.00  0.00     0.127 C 
HETATM   19  N3  UNL     1      19.513   2.711  50.832  1.00  0.00    -0.150 NA
HETATM   20  C16 UNL     1      23.453   0.044  53.667  1.00  0.00     0.103 A 
HETATM   21  H15 UNL     1      18.698   2.960  50.272  1.00  0.00     0.153 HD
ENDROOT
BRANCH   1  22
HETATM   22  O1  UNL     1      22.134  -0.928  55.337  1.00  0.00    -0.239 OA
BRANCH  22  23
HETATM   23  N1  UNL     1      23.034  -1.835  55.822  1.00  0.00    -0.029 NA
HETATM   24  F1  UNL     1      24.124  -1.246  56.354  1.00  0.00    -0.108 F 
HETATM   25  H1  UNL     1      22.609  -2.570  56.427  1.00  0.00     0.194 HD
ENDBRANCH  22  23
ENDBRANCH   1  22
TORSDOF 4
ENDMDL
MODEL 4
REMARK VINA RESULT:      -7.0      2.806      3.739
REMARK  4 active torsions:
REMARK  status: ('A' for Active; 'I' for Inactive)
REMARK    1  A    between atoms: N1_2  and  O1_3 
REMARK    2  A    between atoms: O1_3  and  C1_4 
REMARK    3  A    between atoms: C7_11  and  C10_14 
REMARK    4  A    between atoms: C10_14  and  C11_15 
ROOT
HETATM    1  C1  UNL     1      19.106   3.768  51.355  1.00  0.00     0.077 A 
HETATM    2  C2  UNL     1      20.186   4.463  51.095  1.00  0.00     0.042 A 
HETATM    3  C3  UNL     1      21.227   3.631  50.427  1.00  0.00    -0.045 A 
HETATM    4  C4  UNL     1      20.610   2.413  50.345  1.00  0.00    -0.043 A 
HETATM    5  C5  UNL     1      21.047   1.103  49.787  1.00  0.00     0.203 C 
HETATM    6  O2  UNL     1      21.340   0.002  50.599  1.00  0.00    -0.379 OA
HETATM    7  C6  UNL     1      21.785   0.017  52.000  1.00  0.00     0.073 A 
HETATM    8  C7  UNL     1      22.714   0.971  51.878  1.00  0.00     0.155 A 
HETATM    9  C8  UNL     1      23.667   1.951  51.755  1.00  0.00     0.238 A 
HETATM   10  C9  UNL     1      24.526   2.504  52.756  1.00  0.00     0.222 A 
HETATM   11  C10 UNL     1      23.656   1.520  53.142  1.00  0.00     0.090 A 
HETATM   12  C11 UNL     1      22.654   0.526  53.134  1.00  0.00     0.081 A 
HETATM   13 CL1  UNL     1      22.155  -0.402  54.511  1.00  0.00    -0.115 Cl
HETATM   14  N2  UNL     1      24.649   3.222  51.540  1.00  0.00     0.015 N 
HETATM   15  C12 UNL     1      24.899   3.563  50.115  1.00  0.00     0.261 C 
HETATM   16  C13 UNL     1      23.554   3.786  49.387  1.00  0.00     0.040 C 
HETATM   17  C14 UNL     1      22.477   4.423  50.171  1.00  0.00     0.035 C 
HETATM   18  C15 UNL     1      23.084   5.055  51.376  1.00  0.00     0.127 C 
HETATM   19  N3  UNL     1      24.224   4.494  52.011  1.00  0.00    -0.150 NA
HETATM   20  C16 UNL     1      19.229   2.364  50.922  1.00  0.00     0.103 A 
HETATM   21  H15 UNL     1      25.055   5.083  52.065  1.00  0.00     0.153 HD
ENDROOT
BRANCH   1  22
HETATM   22  O1  UNL     1      17.887   3.995  51.927  1.00  0.00    -0.239 OA
BRANCH  22  23
HETATM   23  N1  UNL     1      16.793   4.492  51.277  1.00  0.00    -0.029 NA
HETATM   24  F1  UNL     1      17.015   4.673  49.959  1.00  0.00    -0.108 F 
HETATM   25  H1  UNL     1      15.907   3.986  51.493  1.00  0.00     0.194 HD
ENDBRANCH  22  23
ENDBRANCH   1  22
TORSDOF 4
ENDMDL
MODEL 5
REMARK VINA RESULT:      -6.9      3.057      4.524
REMARK  4 active torsions:
REMARK  status: ('A' for Active; 'I' for Inactive)
REMARK    1  A    between atoms: N1_2  and  O1_3 
REMARK    2  A    between atoms: O1_3  and  C1_4 
REMARK    3  A    between atoms: C7_11  and  C10_14 
REMARK    4  A    between atoms: C10_14  and  C11_15 
ROOT
HETATM    1  C1  UNL     1      22.292   2.059  48.798  1.00  0.00     0.077 A 
HETATM    2  C2  UNL     1      21.385   1.538  49.587  1.00  0.00     0.042 A 
HETATM    3  C3  UNL     1      21.566   1.979  51.000  1.00  0.00    -0.045 A 
HETATM    4  C4  UNL     1      22.660   2.796  50.905  1.00  0.00    -0.043 A 
HETATM    5  C5  UNL     1      23.405   3.596  51.917  1.00  0.00     0.203 C 
HETATM    6  O2  UNL     1      24.695   3.256  52.339  1.00  0.00    -0.379 OA
HETATM    7  C6  UNL     1      25.317   1.924  52.333  1.00  0.00     0.073 A 
HETATM    8  C7  UNL     1      24.288   1.248  52.856  1.00  0.00     0.155 A 
HETATM    9  C8  UNL     1      23.234   0.554  53.392  1.00  0.00     0.238 A 
HETATM   10  C9  UNL     1      23.126  -0.844  53.677  1.00  0.00     0.222 A 
HETATM   11  C10 UNL     1      24.304  -0.396  53.142  1.00  0.00     0.090 A 
HETATM   12  C11 UNL     1      25.313   0.432  52.604  1.00  0.00     0.081 A 
HETATM   13 CL1  UNL     1      26.883  -0.104  52.098  1.00  0.00    -0.115 Cl
HETATM   14  N2  UNL     1      21.881  -0.196  53.878  1.00  0.00     0.015 N 
HETATM   15  C12 UNL     1      20.826   0.720  54.384  1.00  0.00     0.261 C 
HETATM   16  C13 UNL     1      20.502   1.787  53.313  1.00  0.00     0.040 C 
HETATM   17  C14 UNL     1      20.551   1.343  51.905  1.00  0.00     0.035 C 
HETATM   18  C15 UNL     1      20.525  -0.145  51.880  1.00  0.00     0.127 C 
HETATM   19  N3  UNL     1      21.122  -0.915  52.914  1.00  0.00    -0.150 NA
HETATM   20  C16 UNL     1      23.235   2.926  49.528  1.00  0.00     0.103 A 
HETATM   21  H15 UNL     1      20.508  -1.544  53.431  1.00  0.00     0.153 HD
ENDROOT
BRANCH   1  22
HETATM   22  O1  UNL     1      22.603   2.013  47.469  1.00  0.00    -0.239 OA
BRANCH  22  23
HETATM   23  N1  UNL     1      22.198   2.924  46.535  1.00  0.00    -0.029 NA
HETATM   24  F1  UNL     1      20.882   3.205  46.626  1.00  0.00    -0.108 F 
HETATM   25  H1  UNL     1      22.809   3.766  46.473  1.00  0.00     0.194 HD
ENDBRANCH  22  23
ENDBRANCH   1  22
TORSDOF 4
ENDMDL
MODEL 6
REMARK VINA RESULT:      -6.8      3.711      5.184
REMARK  4 active torsions:
REMARK  status: ('A' for Active; 'I' for Inactive)
REMARK    1  A    between atoms: N1_2  and  O1_3 
REMARK    2  A    between atoms: O1_3  and  C1_4 
REMARK    3  A    between atoms: C7_11  and  C10_14 
REMARK    4  A    between atoms: C10_14  and  C11_15 
ROOT
HETATM    1  C1  UNL     1      24.814   3.476  50.305  1.00  0.00     0.077 A 
HETATM    2  C2  UNL     1      24.224   2.633  51.115  1.00  0.00     0.042 A 
HETATM    3  C3  UNL     1      23.042   1.990  50.475  1.00  0.00    -0.045 A 
HETATM    4  C4  UNL     1      23.044   2.563  49.232  1.00  0.00    -0.043 A 
HETATM    5  C5  UNL     1      22.158   2.392  48.047  1.00  0.00     0.203 C 
HETATM    6  O2  UNL     1      21.271   3.388  47.624  1.00  0.00    -0.379 OA
HETATM    7  C6  UNL     1      20.662   4.449  48.440  1.00  0.00     0.073 A 
HETATM    8  C7  UNL     1      20.299   3.686  49.477  1.00  0.00     0.155 A 
HETATM    9  C8  UNL     1      19.928   2.905  50.542  1.00  0.00     0.238 A 
HETATM   10  C9  UNL     1      19.264   3.286  51.751  1.00  0.00     0.222 A 
HETATM   11  C10 UNL     1      19.519   4.269  50.833  1.00  0.00     0.090 A 
HETATM   12  C11 UNL     1      19.949   4.957  49.678  1.00  0.00     0.081 A 
HETATM   13 CL1  UNL     1      19.744   6.656  49.392  1.00  0.00    -0.115 Cl
HETATM   14  N2  UNL     1      19.677   1.930  51.812  1.00  0.00     0.015 N 
HETATM   15  C12 UNL     1      19.841   0.484  51.512  1.00  0.00     0.261 C 
HETATM   16  C13 UNL     1      21.239   0.233  50.901  1.00  0.00     0.040 C 
HETATM   17  C14 UNL     1      22.345   1.059  51.425  1.00  0.00     0.035 C 
HETATM   18  C15 UNL     1      21.906   1.675  52.707  1.00  0.00     0.127 C 
HETATM   19  N3  UNL     1      20.550   2.036  52.930  1.00  0.00    -0.150 NA
HETATM   20  C16 UNL     1      24.140   3.556  48.996  1.00  0.00     0.103 A 
HETATM   21  H15 UNL     1      20.079   1.588  53.716  1.00  0.00     0.153 HD
ENDROOT
BRANCH   1  22
HETATM   22  O1  UNL     1      25.894   4.311  50.346  1.00  0.00    -0.239 OA
BRANCH  22  23
HETATM   23  N1  UNL     1      27.161   3.979  49.958  1.00  0.00    -0.029 NA
HETATM   24  F1  UNL     1      27.428   4.358  48.691  1.00  0.00    -0.108 F 
HETATM   25  H1  UNL     1      27.898   4.247  50.646  1.00  0.00     0.194 HD
ENDBRANCH  22  23
ENDBRANCH   1  22
TORSDOF 4
ENDMDL
MODEL 7
REMARK VINA RESULT:      -6.8     10.929     12.578
REMARK  4 active torsions:
REMARK  status: ('A' for Active; 'I' for Inactive)
REMARK    1  A    between atoms: N1_2  and  O1_3 
REMARK    2  A    between atoms: O1_3  and  C1_4 
REMARK    3  A    between atoms: C7_11  and  C10_14 
REMARK    4  A    between atoms: C10_14  and  C11_15 
ROOT
HETATM    1  C1  UNL     1      31.224   7.682  48.927  1.00  0.00     0.077 A 
HETATM    2  C2  UNL     1      31.443   6.396  48.809  1.00  0.00     0.042 A 
HETATM    3  C3  UNL     1      32.811   6.118  48.286  1.00  0.00    -0.045 A 
HETATM    4  C4  UNL     1      33.320   7.379  48.133  1.00  0.00    -0.043 A 
HETATM    5  C5  UNL     1      34.642   7.877  47.661  1.00  0.00     0.203 C 
HETATM    6  O2  UNL     1      34.803   8.531  46.435  1.00  0.00    -0.379 OA
HETATM    7  C6  UNL     1      33.964   8.400  45.234  1.00  0.00     0.073 A 
HETATM    8  C7  UNL     1      33.876   7.066  45.227  1.00  0.00     0.155 A 
HETATM    9  C8  UNL     1      33.784   5.697  45.218  1.00  0.00     0.238 A 
HETATM   10  C9  UNL     1      33.090   4.846  44.301  1.00  0.00     0.222 A 
HETATM   11  C10 UNL     1      33.028   6.196  44.082  1.00  0.00     0.090 A 
HETATM   12  C11 UNL     1      33.203   7.591  44.202  1.00  0.00     0.081 A 
HETATM   13 CL1  UNL     1      32.545   8.778  43.122  1.00  0.00    -0.115 Cl
HETATM   14  N2  UNL     1      33.604   4.095  45.388  1.00  0.00     0.015 N 
HETATM   15  C12 UNL     1      34.533   3.480  46.372  1.00  0.00     0.261 C 
HETATM   16  C13 UNL     1      34.395   4.191  47.737  1.00  0.00     0.040 C 
HETATM   17  C14 UNL     1      33.040   4.644  48.111  1.00  0.00     0.035 C 
HETATM   18  C15 UNL     1      32.055   3.950  47.236  1.00  0.00     0.127 C 
HETATM   19  N3  UNL     1      32.370   3.603  45.895  1.00  0.00    -0.150 NA
HETATM   20  C16 UNL     1      32.385   8.487  48.506  1.00  0.00     0.103 A 
HETATM   21  H15 UNL     1      32.326   2.612  45.655  1.00  0.00     0.153 HD
ENDROOT
BRANCH   1  22
HETATM   22  O1  UNL     1      30.198   8.485  49.338  1.00  0.00    -0.239 OA
BRANCH  22  23
HETATM   23  N1  UNL     1      30.339   9.620  50.085  1.00  0.00    -0.029 NA
HETATM   24  F1  UNL     1      30.121  10.741  49.367  1.00  0.00    -0.108 F 
HETATM   25  H1  UNL     1      29.831   9.593  50.995  1.00  0.00     0.194 HD
ENDBRANCH  22  23
ENDBRANCH   1  22
TORSDOF 4
ENDMDL
MODEL 8
REMARK VINA RESULT:      -6.7      2.855      3.552
REMARK  4 active torsions:
REMARK  status: ('A' for Active; 'I' for Inactive)
REMARK    1  A    between atoms: N1_2  and  O1_3 
REMARK    2  A    between atoms: O1_3  and  C1_4 
REMARK    3  A    between atoms: C7_11  and  C10_14 
REMARK    4  A    between atoms: C10_14  and  C11_15 
ROOT
HETATM    1  C1  UNL     1      20.931   5.353  48.547  1.00  0.00     0.077 A 
HETATM    2  C2  UNL     1      22.089   5.541  49.129  1.00  0.00     0.042 A 
HETATM    3  C3  UNL     1      22.981   4.357  48.973  1.00  0.00    -0.045 A 
HETATM    4  C4  UNL     1      22.197   3.503  48.245  1.00  0.00    -0.043 A 
HETATM    5  C5  UNL     1      22.434   2.132  47.712  1.00  0.00     0.203 C 
HETATM    6  O2  UNL     1      21.788   1.004  48.229  1.00  0.00    -0.379 OA
HETATM    7  C6  UNL     1      21.245   0.826  49.584  1.00  0.00     0.073 A 
HETATM    8  C7  UNL     1      22.294   1.312  50.257  1.00  0.00     0.155 A 
HETATM    9  C8  UNL     1      23.368   1.810  50.950  1.00  0.00     0.238 A 
HETATM   10  C9  UNL     1      23.542   1.954  52.363  1.00  0.00     0.222 A 
HETATM   11  C10 UNL     1      22.363   1.415  51.922  1.00  0.00     0.090 A 
HETATM   12  C11 UNL     1      21.330   0.924  51.095  1.00  0.00     0.081 A 
HETATM   13 CL1  UNL     1      19.822   0.278  51.655  1.00  0.00    -0.115 Cl
HETATM   14  N2  UNL     1      24.614   2.562  51.662  1.00  0.00     0.015 N 
HETATM   15  C12 UNL     1      25.785   2.778  50.772  1.00  0.00     0.261 C 
HETATM   16  C13 UNL     1      25.343   3.541  49.503  1.00  0.00     0.040 C 
HETATM   17  C14 UNL     1      24.290   4.562  49.680  1.00  0.00     0.035 C 
HETATM   18  C15 UNL     1      24.183   4.879  51.131  1.00  0.00     0.127 C 
HETATM   19  N3  UNL     1      24.427   3.894  52.125  1.00  0.00    -0.150 NA
HETATM   20  C16 UNL     1      20.835   4.026  47.911  1.00  0.00     0.103 A 
HETATM   21  H15 UNL     1      25.179   4.086  52.786  1.00  0.00     0.153 HD
ENDROOT
BRANCH   1  22
HETATM   22  O1  UNL     1      19.776   6.061  48.371  1.00  0.00    -0.239 OA
BRANCH  22  23
HETATM   23  N1  UNL     1      18.922   6.433  49.370  1.00  0.00    -0.029 NA
HETATM   24  F1  UNL     1      18.485   5.381  50.093  1.00  0.00    -0.108 F 
HETATM   25  H1  UNL     1      19.267   7.231  49.946  1.00  0.00     0.194 HD
ENDBRANCH  22  23
ENDBRANCH   1  22
TORSDOF 4
ENDMDL
MODEL 9
REMARK VINA RESULT:      -6.7     11.634     13.389
REMARK  4 active torsions:
REMARK  status: ('A' for Active; 'I' for Inactive)
REMARK    1  A    between atoms: N1_2  and  O1_3 
REMARK    2  A    between atoms: O1_3  and  C1_4 
REMARK    3  A    between atoms: C7_11  and  C10_14 
REMARK    4  A    between atoms: C10_14  and  C11_15 
ROOT
HETATM    1  C1  UNL     1      35.423   6.798  48.756  1.00  0.00     0.077 A 
HETATM    2  C2  UNL     1      34.607   7.811  48.597  1.00  0.00     0.042 A 
HETATM    3  C3  UNL     1      33.228   7.358  48.260  1.00  0.00    -0.045 A 
HETATM    4  C4  UNL     1      33.367   5.997  48.254  1.00  0.00    -0.043 A 
HETATM    5  C5  UNL     1      32.402   4.890  48.004  1.00  0.00     0.203 C 
HETATM    6  O2  UNL     1      32.450   4.097  46.853  1.00  0.00    -0.379 OA
HETATM    7  C6  UNL     1      33.003   4.460  45.539  1.00  0.00     0.073 A 
HETATM    8  C7  UNL     1      32.444   5.672  45.443  1.00  0.00     0.155 A 
HETATM    9  C8  UNL     1      31.873   6.915  45.344  1.00  0.00     0.238 A 
HETATM   10  C9  UNL     1      31.984   7.876  44.290  1.00  0.00     0.222 A 
HETATM   11  C10 UNL     1      32.659   6.694  44.142  1.00  0.00     0.090 A 
HETATM   12  C11 UNL     1      33.181   5.402  44.364  1.00  0.00     0.081 A 
HETATM   13 CL1  UNL     1      34.214   4.539  43.271  1.00  0.00    -0.115 Cl
HETATM   14  N2  UNL     1      31.285   8.424  45.395  1.00  0.00     0.015 N 
HETATM   15  C12 UNL     1      30.278   8.649  46.465  1.00  0.00     0.261 C 
HETATM   16  C13 UNL     1      30.872   8.249  47.835  1.00  0.00     0.040 C 
HETATM   17  C14 UNL     1      32.309   8.525  48.036  1.00  0.00     0.035 C 
HETATM   18  C15 UNL     1      32.754   9.489  46.991  1.00  0.00     0.127 C 
HETATM   19  N3  UNL     1      32.180   9.489  45.692  1.00  0.00    -0.150 NA
HETATM   20  C16 UNL     1      34.749   5.502  48.551  1.00  0.00     0.103 A 
HETATM   21  H15 UNL     1      31.723  10.351  45.393  1.00  0.00     0.153 HD
ENDROOT
BRANCH   1  22
HETATM   22  O1  UNL     1      36.741   6.617  49.061  1.00  0.00    -0.239 OA
BRANCH  22  23
HETATM   23  N1  UNL     1      37.213   6.065  50.219  1.00  0.00    -0.029 NA
HETATM   24  F1  UNL     1      38.554   6.159  50.326  1.00  0.00    -0.108 F 
HETATM   25  H1  UNL     1      36.696   6.369  51.072  1.00  0.00     0.194 HD
ENDBRANCH  22  23
ENDBRANCH   1  22
TORSDOF 4
ENDMDL
