MODEL 1
REMARK VINA RESULT:      -9.0      0.000      0.000
REMARK  2 active torsions:
REMARK  status: ('A' for Active; 'I' for Inactive)
REMARK    1  A    between atoms: C3_4  and  C4_5 
REMARK    2  A    between atoms: C15_19  and  C16_20 
ROOT
HETATM    1  C1  UNL     1      21.138   4.215  47.780  1.00  0.00     0.048 C 
HETATM    2  C2  UNL     1      22.389   3.680  48.403  1.00  0.00     0.252 C 
HETATM    3  N1  UNL     1      23.491   4.641  48.427  1.00  0.00     0.106 N 
HETATM    4  C3  UNL     1      24.638   4.256  49.239  1.00  0.00     0.294 C 
HETATM    5  C10 UNL     1      24.255   4.176  50.672  1.00  0.00     0.131 C 
HETATM    6  N2  UNL     1      23.953   4.009  51.851  1.00  0.00    -0.254 NA
HETATM    7  C11 UNL     1      23.544   4.661  52.989  1.00  0.00     0.254 C 
HETATM    8  N3  UNL     1      22.255   4.161  52.888  1.00  0.00    -0.161 NA
HETATM    9  N4  UNL     1      22.193   3.328  51.707  1.00  0.00    -0.243 N 
HETATM   10  C12 UNL     1      21.962   4.163  50.700  1.00  0.00     0.128 A 
HETATM   11  C13 UNL     1      22.249   3.182  49.786  1.00  0.00    -0.006 A 
HETATM   12  C14 UNL     1      22.591   1.910  50.196  1.00  0.00     0.043 A 
HETATM   13  C15 UNL     1      22.541   2.053  51.594  1.00  0.00     0.069 A 
HETATM   14  H5  UNL     1      23.739   4.955  47.495  1.00  0.00     0.318 HD
ENDROOT
BRANCH  13  15
HETATM   15  C16 UNL     1      22.792   1.042  52.589  1.00  0.00    -0.007 A 
HETATM   16  C17 UNL     1      21.629   0.620  53.247  1.00  0.00     0.017 A 
HETATM   17  C18 UNL     1      21.627  -0.351  54.246  1.00  0.00     0.043 A 
HETATM   18  C19 UNL     1      22.851  -0.895  54.572  1.00  0.00     0.116 A 
HETATM   19  F1  UNL     1      22.879  -1.842  55.541  1.00  0.00    -0.206 F 
HETATM   20  C20 UNL     1      24.039  -0.528  53.964  1.00  0.00     0.043 A 
HETATM   21  C21 UNL     1      23.961   0.437  52.985  1.00  0.00     0.017 A 
ENDBRANCH  13  15
BRANCH   4  22
HETATM   22  C4  UNL     1      25.820   5.010  48.914  1.00  0.00    -0.020 A 
HETATM   23  C5  UNL     1      27.076   4.461  48.883  1.00  0.00     0.010 A 
HETATM   24  C6  UNL     1      28.184   5.215  48.562  1.00  0.00     0.001 A 
HETATM   25  C7  UNL     1      28.114   6.575  48.249  1.00  0.00     0.000 A 
HETATM   26  C8  UNL     1      26.826   7.065  48.299  1.00  0.00     0.001 A 
HETATM   27  C9  UNL     1      25.689   6.366  48.611  1.00  0.00     0.010 A 
ENDBRANCH   4  22
TORSDOF 2
ENDMDL
MODEL 2
REMARK VINA RESULT:      -8.9      3.014      5.002
REMARK  2 active torsions:
REMARK  status: ('A' for Active; 'I' for Inactive)
REMARK    1  A    between atoms: C3_4  and  C4_5 
REMARK    2  A    between atoms: C15_19  and  C16_20 
ROOT
HETATM    1  C1  UNL     1      27.134   5.055  48.803  1.00  0.00     0.048 C 
HETATM    2  C2  UNL     1      26.523   3.829  49.406  1.00  0.00     0.252 C 
HETATM    3  N1  UNL     1      27.140   3.427  50.669  1.00  0.00     0.106 N 
HETATM    4  C3  UNL     1      26.425   2.397  51.413  1.00  0.00     0.294 C 
HETATM    5  C10 UNL     1      25.098   2.900  51.852  1.00  0.00     0.131 C 
HETATM    6  N2  UNL     1      23.960   3.250  52.151  1.00  0.00    -0.254 NA
HETATM    7  C11 UNL     1      23.242   4.117  52.938  1.00  0.00     0.254 C 
HETATM    8  N3  UNL     1      22.891   4.909  51.855  1.00  0.00    -0.161 NA
HETATM    9  N4  UNL     1      23.486   4.330  50.671  1.00  0.00    -0.243 N 
HETATM   10  C12 UNL     1      24.725   4.806  50.632  1.00  0.00     0.128 A 
HETATM   11  C13 UNL     1      25.071   3.901  49.662  1.00  0.00    -0.006 A 
HETATM   12  C14 UNL     1      24.146   3.005  49.167  1.00  0.00     0.043 A 
HETATM   13  C15 UNL     1      23.009   3.345  49.921  1.00  0.00     0.069 A 
HETATM   14  H5  UNL     1      28.131   3.239  50.564  1.00  0.00     0.318 HD
ENDROOT
BRANCH  13  15
HETATM   15  C16 UNL     1      21.696   2.757  49.842  1.00  0.00    -0.007 A 
HETATM   16  C17 UNL     1      21.675   1.409  50.225  1.00  0.00     0.017 A 
HETATM   17  C18 UNL     1      20.517   0.635  50.231  1.00  0.00     0.043 A 
HETATM   18  C19 UNL     1      19.358   1.266  49.833  1.00  0.00     0.116 A 
HETATM   19  F1  UNL     1      18.216   0.537  49.828  1.00  0.00    -0.206 F 
HETATM   20  C20 UNL     1      19.304   2.594  49.443  1.00  0.00     0.043 A 
HETATM   21  C21 UNL     1      20.488   3.294  49.464  1.00  0.00     0.017 A 
ENDBRANCH  13  15
BRANCH   4  22
HETATM   22  C4  UNL     1      27.251   1.762  52.406  1.00  0.00    -0.020 A 
HETATM   23  C5  UNL     1      28.175   2.440  53.159  1.00  0.00     0.010 A 
HETATM   24  C6  UNL     1      28.945   1.798  54.106  1.00  0.00     0.001 A 
HETATM   25  C7  UNL     1      28.845   0.428  54.365  1.00  0.00     0.000 A 
HETATM   26  C8  UNL     1      27.900  -0.194  53.576  1.00  0.00     0.001 A 
HETATM   27  C9  UNL     1      27.108   0.391  52.622  1.00  0.00     0.010 A 
ENDBRANCH   4  22
TORSDOF 2
ENDMDL
MODEL 3
REMARK VINA RESULT:      -8.6      3.188      7.197
REMARK  2 active torsions:
REMARK  status: ('A' for Active; 'I' for Inactive)
REMARK    1  A    between atoms: C3_4  and  C4_5 
REMARK    2  A    between atoms: C15_19  and  C16_20 
ROOT
HETATM    1  C1  UNL     1      24.381  -0.442  53.907  1.00  0.00     0.048 C 
HETATM    2  C2  UNL     1      23.849   0.156  52.642  1.00  0.00     0.252 C 
HETATM    3  N1  UNL     1      22.389   0.209  52.587  1.00  0.00     0.106 N 
HETATM    4  C3  UNL     1      21.833   1.002  51.497  1.00  0.00     0.294 C 
HETATM    5  C10 UNL     1      22.198   2.433  51.659  1.00  0.00     0.131 C 
HETATM    6  N2  UNL     1      22.556   3.606  51.710  1.00  0.00    -0.254 NA
HETATM    7  C11 UNL     1      22.432   4.769  52.431  1.00  0.00     0.254 C 
HETATM    8  N3  UNL     1      23.712   4.656  52.953  1.00  0.00    -0.161 NA
HETATM    9  N4  UNL     1      24.302   3.446  52.423  1.00  0.00    -0.243 N 
HETATM   10  C12 UNL     1      23.878   2.471  53.219  1.00  0.00     0.128 A 
HETATM   11  C13 UNL     1      24.321   1.521  52.335  1.00  0.00    -0.006 A 
HETATM   12  C14 UNL     1      24.951   1.884  51.162  1.00  0.00     0.043 A 
HETATM   13  C15 UNL     1      24.919   3.285  51.260  1.00  0.00     0.069 A 
HETATM   14  H5  UNL     1      21.973  -0.713  52.673  1.00  0.00     0.318 HD
ENDROOT
BRANCH  13  15
HETATM   15  C16 UNL     1      25.449   4.243  50.322  1.00  0.00    -0.007 A 
HETATM   16  C17 UNL     1      26.678   3.851  49.775  1.00  0.00     0.017 A 
HETATM   17  C18 UNL     1      27.379   4.616  48.845  1.00  0.00     0.043 A 
HETATM   18  C19 UNL     1      26.797   5.810  48.475  1.00  0.00     0.116 A 
HETATM   19  F1  UNL     1      27.456   6.575  47.572  1.00  0.00    -0.206 F 
HETATM   20  C20 UNL     1      25.586   6.260  48.973  1.00  0.00     0.043 A 
HETATM   21  C21 UNL     1      24.953   5.449  49.887  1.00  0.00     0.017 A 
ENDBRANCH  13  15
BRANCH   4  22
HETATM   22  C4  UNL     1      20.449   0.698  51.247  1.00  0.00    -0.020 A 
HETATM   23  C5  UNL     1      19.684  -0.067  52.088  1.00  0.00     0.010 A 
HETATM   24  C6  UNL     1      18.358  -0.332  51.816  1.00  0.00     0.001 A 
HETATM   25  C7  UNL     1      17.704   0.150  50.680  1.00  0.00     0.000 A 
HETATM   26  C8  UNL     1      18.527   0.911  49.877  1.00  0.00     0.001 A 
HETATM   27  C9  UNL     1      19.848   1.208  50.095  1.00  0.00     0.010 A 
ENDBRANCH   4  22
TORSDOF 2
ENDMDL
MODEL 4
REMARK VINA RESULT:      -8.6      0.691      1.156
REMARK  2 active torsions:
REMARK  status: ('A' for Active; 'I' for Inactive)
REMARK    1  A    between atoms: C3_4  and  C4_5 
REMARK    2  A    between atoms: C15_19  and  C16_20 
ROOT
HETATM    1  C1  UNL     1      20.795   3.408  47.301  1.00  0.00     0.048 C 
HETATM    2  C2  UNL     1      22.056   3.156  48.067  1.00  0.00     0.252 C 
HETATM    3  N1  UNL     1      22.948   4.313  48.128  1.00  0.00     0.106 N 
HETATM    4  C3  UNL     1      24.060   4.197  49.063  1.00  0.00     0.294 C 
HETATM    5  C10 UNL     1      23.557   4.109  50.458  1.00  0.00     0.131 C 
HETATM    6  N2  UNL     1      23.176   3.941  51.613  1.00  0.00    -0.254 NA
HETATM    7  C11 UNL     1      22.539   4.552  52.666  1.00  0.00     0.254 C 
HETATM    8  N3  UNL     1      21.384   3.807  52.482  1.00  0.00    -0.161 NA
HETATM    9  N4  UNL     1      21.600   2.925  51.356  1.00  0.00    -0.243 N 
HETATM   10  C12 UNL     1      21.317   3.651  50.281  1.00  0.00     0.128 A 
HETATM   11  C13 UNL     1      21.875   2.705  49.461  1.00  0.00    -0.006 A 
HETATM   12  C14 UNL     1      22.409   1.543  49.981  1.00  0.00     0.043 A 
HETATM   13  C15 UNL     1      22.193   1.738  51.356  1.00  0.00     0.069 A 
HETATM   14  H5  UNL     1      23.224   4.627  47.203  1.00  0.00     0.318 HD
ENDROOT
BRANCH  13  15
HETATM   15  C16 UNL     1      22.530   0.841  52.433  1.00  0.00    -0.007 A 
HETATM   16  C17 UNL     1      21.404   0.319  53.083  1.00  0.00     0.017 A 
HETATM   17  C18 UNL     1      21.485  -0.570  54.153  1.00  0.00     0.043 A 
HETATM   18  C19 UNL     1      22.754  -0.925  54.558  1.00  0.00     0.116 A 
HETATM   19  F1  UNL     1      22.863  -1.789  55.596  1.00  0.00    -0.206 F 
HETATM   20  C20 UNL     1      23.910  -0.450  53.962  1.00  0.00     0.043 A 
HETATM   21  C21 UNL     1      23.749   0.424  52.911  1.00  0.00     0.017 A 
ENDBRANCH  13  15
BRANCH   4  22
HETATM   22  C4  UNL     1      25.104   5.151  48.798  1.00  0.00    -0.020 A 
HETATM   23  C5  UNL     1      24.861   6.427  48.357  1.00  0.00     0.010 A 
HETATM   24  C6  UNL     1      25.889   7.315  48.118  1.00  0.00     0.001 A 
HETATM   25  C7  UNL     1      27.234   6.988  48.303  1.00  0.00     0.000 A 
HETATM   26  C8  UNL     1      27.410   5.693  48.747  1.00  0.00     0.001 A 
HETATM   27  C9  UNL     1      26.430   4.768  49.001  1.00  0.00     0.010 A 
ENDBRANCH   4  22
TORSDOF 2
ENDMDL
MODEL 5
REMARK VINA RESULT:      -8.2      3.276      7.240
REMARK  2 active torsions:
REMARK  status: ('A' for Active; 'I' for Inactive)
REMARK    1  A    between atoms: C3_4  and  C4_5 
REMARK    2  A    between atoms: C15_19  and  C16_20 
ROOT
HETATM    1  C1  UNL     1      27.082   2.140  52.237  1.00  0.00     0.048 C 
HETATM    2  C2  UNL     1      25.760   1.820  51.613  1.00  0.00     0.252 C 
HETATM    3  N1  UNL     1      24.780   1.283  52.556  1.00  0.00     0.106 N 
HETATM    4  C3  UNL     1      23.414   1.192  52.054  1.00  0.00     0.294 C 
HETATM    5  C10 UNL     1      22.875   2.547  51.770  1.00  0.00     0.131 C 
HETATM    6  N2  UNL     1      22.429   3.642  51.438  1.00  0.00    -0.254 NA
HETATM    7  C11 UNL     1      22.020   4.861  51.922  1.00  0.00     0.254 C 
HETATM    8  N3  UNL     1      23.155   5.500  51.447  1.00  0.00    -0.161 NA
HETATM    9  N4  UNL     1      23.982   4.510  50.792  1.00  0.00    -0.243 N 
HETATM   10  C12 UNL     1      24.691   3.947  51.763  1.00  0.00     0.128 A 
HETATM   11  C13 UNL     1      25.093   2.942  50.923  1.00  0.00    -0.006 A 
HETATM   12  C14 UNL     1      24.690   2.918  49.603  1.00  0.00     0.043 A 
HETATM   13  C15 UNL     1      23.886   4.069  49.545  1.00  0.00     0.069 A 
HETATM   14  H5  UNL     1      25.108   0.431  53.000  1.00  0.00     0.318 HD
ENDROOT
BRANCH  13  15
HETATM   15  C16 UNL     1      23.183   4.592  48.400  1.00  0.00    -0.007 A 
HETATM   16  C17 UNL     1      22.386   3.633  47.762  1.00  0.00     0.017 A 
HETATM   17  C18 UNL     1      21.615   3.909  46.635  1.00  0.00     0.043 A 
HETATM   18  C19 UNL     1      21.670   5.201  46.158  1.00  0.00     0.116 A 
HETATM   19  F1  UNL     1      20.931   5.499  45.063  1.00  0.00    -0.206 F 
HETATM   20  C20 UNL     1      22.435   6.200  46.738  1.00  0.00     0.043 A 
HETATM   21  C21 UNL     1      23.169   5.851  47.849  1.00  0.00     0.017 A 
ENDBRANCH  13  15
BRANCH   4  22
HETATM   22  C4  UNL     1      22.597   0.308  52.842  1.00  0.00    -0.020 A 
HETATM   23  C5  UNL     1      21.247   0.163  52.649  1.00  0.00     0.010 A 
HETATM   24  C6  UNL     1      20.497  -0.699  53.421  1.00  0.00     0.001 A 
HETATM   25  C7  UNL     1      21.046  -1.477  54.444  1.00  0.00     0.000 A 
HETATM   26  C8  UNL     1      22.404  -1.284  54.586  1.00  0.00     0.001 A 
HETATM   27  C9  UNL     1      23.200  -0.445  53.850  1.00  0.00     0.010 A 
ENDBRANCH   4  22
TORSDOF 2
ENDMDL
MODEL 6
REMARK VINA RESULT:      -8.1      2.977      4.731
REMARK  2 active torsions:
REMARK  status: ('A' for Active; 'I' for Inactive)
REMARK    1  A    between atoms: C3_4  and  C4_5 
REMARK    2  A    between atoms: C15_19  and  C16_20 
ROOT
HETATM    1  C1  UNL     1      25.087   1.776  53.377  1.00  0.00     0.048 C 
HETATM    2  C2  UNL     1      24.560   2.920  52.568  1.00  0.00     0.252 C 
HETATM    3  N1  UNL     1      25.452   3.334  51.487  1.00  0.00     0.106 N 
HETATM    4  C3  UNL     1      24.877   4.268  50.526  1.00  0.00     0.294 C 
HETATM    5  C10 UNL     1      23.757   3.630  49.789  1.00  0.00     0.131 C 
HETATM    6  N2  UNL     1      22.769   3.166  49.226  1.00  0.00    -0.254 NA
HETATM    7  C11 UNL     1      22.355   2.210  48.330  1.00  0.00     0.254 C 
HETATM    8  N3  UNL     1      21.797   1.427  49.329  1.00  0.00    -0.161 NA
HETATM    9  N4  UNL     1      22.012   2.098  50.592  1.00  0.00    -0.243 N 
HETATM   10  C12 UNL     1      23.231   1.740  50.976  1.00  0.00     0.128 A 
HETATM   11  C13 UNL     1      23.237   2.705  51.950  1.00  0.00    -0.006 A 
HETATM   12  C14 UNL     1      22.145   3.528  52.138  1.00  0.00     0.043 A 
HETATM   13  C15 UNL     1      21.277   3.059  51.136  1.00  0.00     0.069 A 
HETATM   14  H5  UNL     1      26.363   3.616  51.834  1.00  0.00     0.318 HD
ENDROOT
BRANCH  13  15
HETATM   15  C16 UNL     1      19.947   3.526  50.839  1.00  0.00    -0.007 A 
HETATM   16  C17 UNL     1      18.964   2.924  51.636  1.00  0.00     0.017 A 
HETATM   17  C18 UNL     1      17.607   3.220  51.529  1.00  0.00     0.043 A 
HETATM   18  C19 UNL     1      17.259   4.156  50.579  1.00  0.00     0.116 A 
HETATM   19  F1  UNL     1      15.946   4.463  50.452  1.00  0.00    -0.206 F 
HETATM   20  C20 UNL     1      18.175   4.792  49.758  1.00  0.00     0.043 A 
HETATM   21  C21 UNL     1      19.497   4.447  49.923  1.00  0.00     0.017 A 
ENDBRANCH  13  15
BRANCH   4  22
HETATM   22  C4  UNL     1      25.881   4.942  49.746  1.00  0.00    -0.020 A 
HETATM   23  C5  UNL     1      25.842   6.285  49.470  1.00  0.00     0.010 A 
HETATM   24  C6  UNL     1      26.825   6.897  48.723  1.00  0.00     0.001 A 
HETATM   25  C7  UNL     1      27.920   6.207  48.197  1.00  0.00     0.000 A 
HETATM   26  C8  UNL     1      27.901   4.863  48.510  1.00  0.00     0.001 A 
HETATM   27  C9  UNL     1      26.953   4.201  49.247  1.00  0.00     0.010 A 
ENDBRANCH   4  22
TORSDOF 2
ENDMDL
MODEL 7
REMARK VINA RESULT:      -8.0      6.374      9.427
REMARK  2 active torsions:
REMARK  status: ('A' for Active; 'I' for Inactive)
REMARK    1  A    between atoms: C3_4  and  C4_5 
REMARK    2  A    between atoms: C15_19  and  C16_20 
ROOT
HETATM    1  C1  UNL     1      31.678   9.321  44.018  1.00  0.00     0.048 C 
HETATM    2  C2  UNL     1      31.297   8.078  44.759  1.00  0.00     0.252 C 
HETATM    3  N1  UNL     1      32.440   7.253  45.149  1.00  0.00     0.106 N 
HETATM    4  C3  UNL     1      32.142   6.172  46.080  1.00  0.00     0.294 C 
HETATM    5  C10 UNL     1      31.686   6.721  47.383  1.00  0.00     0.131 C 
HETATM    6  N2  UNL     1      31.219   7.136  48.440  1.00  0.00    -0.254 NA
HETATM    7  C11 UNL     1      31.519   7.844  49.579  1.00  0.00     0.254 C 
HETATM    8  N3  UNL     1      30.794   8.949  49.158  1.00  0.00    -0.161 NA
HETATM    9  N4  UNL     1      30.231   8.643  47.861  1.00  0.00    -0.243 N 
HETATM   10  C12 UNL     1      31.191   8.925  46.987  1.00  0.00     0.128 A 
HETATM   11  C13 UNL     1      30.504   8.286  45.987  1.00  0.00    -0.006 A 
HETATM   12  C14 UNL     1      29.274   7.710  46.229  1.00  0.00     0.043 A 
HETATM   13  C15 UNL     1      29.109   7.987  47.597  1.00  0.00     0.069 A 
HETATM   14  H5  UNL     1      32.986   6.960  44.346  1.00  0.00     0.318 HD
ENDROOT
BRANCH  13  15
HETATM   15  C16 UNL     1      27.987   7.643  48.434  1.00  0.00    -0.007 A 
HETATM   16  C17 UNL     1      27.581   6.310  48.283  1.00  0.00     0.017 A 
HETATM   17  C18 UNL     1      26.518   5.752  48.990  1.00  0.00     0.043 A 
HETATM   18  C19 UNL     1      25.863   6.588  49.870  1.00  0.00     0.116 A 
HETATM   19  F1  UNL     1      24.826   6.072  50.571  1.00  0.00    -0.206 F 
HETATM   20  C20 UNL     1      26.211   7.913  50.071  1.00  0.00     0.043 A 
HETATM   21  C21 UNL     1      27.271   8.393  49.336  1.00  0.00     0.017 A 
ENDBRANCH  13  15
BRANCH   4  22
HETATM   22  C4  UNL     1      33.176   5.172  46.111  1.00  0.00    -0.020 A 
HETATM   23  C5  UNL     1      33.420   4.378  47.202  1.00  0.00     0.010 A 
HETATM   24  C6  UNL     1      34.418   3.426  47.192  1.00  0.00     0.001 A 
HETATM   25  C7  UNL     1      35.244   3.202  46.088  1.00  0.00     0.000 A 
HETATM   26  C8  UNL     1      34.947   4.032  45.026  1.00  0.00     0.001 A 
HETATM   27  C9  UNL     1      33.971   4.993  44.978  1.00  0.00     0.010 A 
ENDBRANCH   4  22
TORSDOF 2
ENDMDL
MODEL 8
REMARK VINA RESULT:      -7.9      3.480      4.616
REMARK  2 active torsions:
REMARK  status: ('A' for Active; 'I' for Inactive)
REMARK    1  A    between atoms: C3_4  and  C4_5 
REMARK    2  A    between atoms: C15_19  and  C16_20 
ROOT
HETATM    1  C1  UNL     1      16.314   1.489  50.014  1.00  0.00     0.048 C 
HETATM    2  C2  UNL     1      17.766   1.287  49.711  1.00  0.00     0.252 C 
HETATM    3  N1  UNL     1      18.307   2.255  48.759  1.00  0.00     0.106 N 
HETATM    4  C3  UNL     1      19.759   2.255  48.625  1.00  0.00     0.294 C 
HETATM    5  C10 UNL     1      20.398   2.671  49.900  1.00  0.00     0.131 C 
HETATM    6  N2  UNL     1      20.961   2.921  50.962  1.00  0.00    -0.254 NA
HETATM    7  C11 UNL     1      21.188   3.912  51.886  1.00  0.00     0.254 C 
HETATM    8  N3  UNL     1      20.329   3.335  52.809  1.00  0.00    -0.161 NA
HETATM    9  N4  UNL     1      19.785   2.132  52.218  1.00  0.00    -0.243 N 
HETATM   10  C12 UNL     1      18.751   2.535  51.490  1.00  0.00     0.128 A 
HETATM   11  C13 UNL     1      18.669   1.310  50.879  1.00  0.00    -0.006 A 
HETATM   12  C14 UNL     1      19.537   0.292  51.215  1.00  0.00     0.043 A 
HETATM   13  C15 UNL     1      20.332   0.924  52.187  1.00  0.00     0.069 A 
HETATM   14  H5  UNL     1      17.817   2.228  47.871  1.00  0.00     0.318 HD
ENDROOT
BRANCH  13  15
HETATM   15  C16 UNL     1      21.425   0.353  52.934  1.00  0.00    -0.007 A 
HETATM   16  C17 UNL     1      21.006  -0.316  54.092  1.00  0.00     0.017 A 
HETATM   17  C18 UNL     1      21.887  -0.947  54.969  1.00  0.00     0.043 A 
HETATM   18  C19 UNL     1      23.224  -0.885  54.642  1.00  0.00     0.116 A 
HETATM   19  F1  UNL     1      24.103  -1.490  55.477  1.00  0.00    -0.206 F 
HETATM   20  C20 UNL     1      23.709  -0.243  53.514  1.00  0.00     0.043 A 
HETATM   21  C21 UNL     1      22.779   0.356  52.696  1.00  0.00     0.017 A 
ENDBRANCH  13  15
BRANCH   4  22
HETATM   22  C4  UNL     1      20.200   2.910  47.422  1.00  0.00    -0.020 A 
HETATM   23  C5  UNL     1      19.339   3.390  46.469  1.00  0.00     0.010 A 
HETATM   24  C6  UNL     1      19.800   4.016  45.331  1.00  0.00     0.001 A 
HETATM   25  C7  UNL     1      21.159   4.207  45.065  1.00  0.00     0.000 A 
HETATM   26  C8  UNL     1      21.970   3.703  46.060  1.00  0.00     0.001 A 
HETATM   27  C9  UNL     1      21.570   3.072  47.210  1.00  0.00     0.010 A 
ENDBRANCH   4  22
TORSDOF 2
ENDMDL
MODEL 9
REMARK VINA RESULT:      -7.8      2.805      3.802
REMARK  2 active torsions:
REMARK  status: ('A' for Active; 'I' for Inactive)
REMARK    1  A    between atoms: C3_4  and  C4_5 
REMARK    2  A    between atoms: C15_19  and  C16_20 
ROOT
HETATM    1  C1  UNL     1      18.903   2.017  51.065  1.00  0.00     0.048 C 
HETATM    2  C2  UNL     1      20.215   1.913  50.354  1.00  0.00     0.252 C 
HETATM    3  N1  UNL     1      20.425   2.957  49.353  1.00  0.00     0.106 N 
HETATM    4  C3  UNL     1      21.778   3.045  48.816  1.00  0.00     0.294 C 
HETATM    5  C10 UNL     1      22.736   3.430  49.884  1.00  0.00     0.131 C 
HETATM    6  N2  UNL     1      23.568   3.656  50.758  1.00  0.00    -0.254 NA
HETATM    7  C11 UNL     1      24.009   4.610  51.643  1.00  0.00     0.254 C 
HETATM    8  N3  UNL     1      23.471   3.940  52.731  1.00  0.00    -0.161 NA
HETATM    9  N4  UNL     1      22.829   2.739  52.240  1.00  0.00    -0.243 N 
HETATM   10  C12 UNL     1      21.615   3.121  51.861  1.00  0.00     0.128 A 
HETATM   11  C13 UNL     1      21.412   1.927  51.219  1.00  0.00    -0.006 A 
HETATM   12  C14 UNL     1      22.379   0.942  51.231  1.00  0.00     0.043 A 
HETATM   13  C15 UNL     1      23.391   1.567  51.979  1.00  0.00     0.069 A 
HETATM   14  H5  UNL     1      19.704   2.948  48.639  1.00  0.00     0.318 HD
ENDROOT
BRANCH  13  15
HETATM   15  C16 UNL     1      24.673   1.020  52.349  1.00  0.00    -0.007 A 
HETATM   16  C17 UNL     1      24.591   0.094  53.397  1.00  0.00     0.017 A 
HETATM   17  C18 UNL     1      25.701  -0.565  53.921  1.00  0.00     0.043 A 
HETATM   18  C19 UNL     1      26.919  -0.259  53.352  1.00  0.00     0.116 A 
HETATM   19  F1  UNL     1      28.016  -0.885  53.842  1.00  0.00    -0.206 F 
HETATM   20  C20 UNL     1      27.074   0.644  52.314  1.00  0.00     0.043 A 
HETATM   21  C21 UNL     1      25.932   1.254  51.848  1.00  0.00     0.017 A 
ENDBRANCH  13  15
BRANCH   4  22
HETATM   22  C4  UNL     1      21.833   3.784  47.583  1.00  0.00    -0.020 A 
HETATM   23  C5  UNL     1      21.491   3.246  46.369  1.00  0.00     0.010 A 
HETATM   24  C6  UNL     1      21.552   3.988  45.208  1.00  0.00     0.001 A 
HETATM   25  C7  UNL     1      21.962   5.323  45.180  1.00  0.00     0.000 A 
HETATM   26  C8  UNL     1      22.291   5.804  46.431  1.00  0.00     0.001 A 
HETATM   27  C9  UNL     1      22.250   5.115  47.616  1.00  0.00     0.010 A 
ENDBRANCH   4  22
TORSDOF 2
ENDMDL
