MODEL 1
REMARK VINA RESULT:      -7.9      0.000      0.000
REMARK  8 active torsions:
REMARK  status: ('A' for Active; 'I' for Inactive)
REMARK    1  A    between atoms: N1_3  and  C3_4 
REMARK    2  A    between atoms: C3_4  and  N2_5 
REMARK    3  A    between atoms: N2_5  and  C4_6 
REMARK    4  A    between atoms: C4_6  and  C6_9 
REMARK    5  A    between atoms: C5_7  and  N3_8 
REMARK    6  A    between atoms: C9_12  and  O1_13 
REMARK    7  A    between atoms: O1_13  and  C10_14 
REMARK    8  A    between atoms: C10_14  and  C11_15 
ROOT
HETATM    1  C6  UNL     1      24.969   1.005  52.956  1.00  0.00    -0.004 A 
HETATM    2  C7  UNL     1      25.907   0.980  51.948  1.00  0.00     0.017 A 
HETATM    3  C8  UNL     1      26.106   2.064  51.126  1.00  0.00     0.039 A 
HETATM    4  C9  UNL     1      25.386   3.228  51.263  1.00  0.00     0.090 A 
HETATM    5  C17 UNL     1      24.431   3.249  52.291  1.00  0.00     0.068 A 
HETATM    6 CL1  UNL     1      23.366   4.606  52.696  1.00  0.00    -0.081 Cl
HETATM    7  C18 UNL     1      24.223   2.149  53.131  1.00  0.00     0.040 A 
ENDROOT
BRANCH   1   8
HETATM    8  C4  UNL     1      24.818  -0.192  53.786  1.00  0.00     0.083 C 
HETATM    9  C5  UNL     1      23.681  -0.874  53.809  1.00  0.00     0.113 C 
BRANCH   8  10
HETATM   10  N2  UNL     1      25.894  -0.642  54.584  1.00  0.00    -0.240 NA
BRANCH  10  11
HETATM   11  C3  UNL     1      26.797   0.214  54.917  1.00  0.00     0.232 C 
BRANCH  11  12
HETATM   12  N1  UNL     1      28.065   0.901  54.958  1.00  0.00    -0.259 NA
HETATM   13  C2  UNL     1      29.076   0.452  54.294  1.00  0.00     0.086 C 
HETATM   14  C1  UNL     1      28.977  -0.793  53.456  1.00  0.00     0.057 C 
ENDBRANCH  11  12
ENDBRANCH  10  11
ENDBRANCH   8  10
BRANCH   9  15
HETATM   15  N3  UNL     1      22.353  -0.986  53.323  1.00  0.00    -0.406 N 
HETATM   16  H7  UNL     1      21.968  -1.848  52.846  1.00  0.00     0.155 HD
HETATM   17  H8  UNL     1      21.629  -0.222  53.394  1.00  0.00     0.155 HD
ENDBRANCH   9  15
ENDBRANCH   1   8
BRANCH   4  18
HETATM   18  O1  UNL     1      25.368   4.410  50.623  1.00  0.00    -0.345 OA
BRANCH  18  19
HETATM   19  C10 UNL     1      25.408   4.782  49.301  1.00  0.00     0.214 C 
BRANCH  19  20
HETATM   20  C11 UNL     1      26.681   5.352  48.806  1.00  0.00    -0.031 A 
HETATM   21  C12 UNL     1      26.561   6.724  48.540  1.00  0.00     0.009 A 
HETATM   22  C13 UNL     1      27.613   7.486  48.077  1.00  0.00     0.004 A 
HETATM   23  C14 UNL     1      28.855   6.907  47.854  1.00  0.00     0.042 A 
HETATM   24  C15 UNL     1      28.959   5.561  48.120  1.00  0.00     0.117 A 
HETATM   25  F1  UNL     1      30.105   4.826  47.960  1.00  0.00    -0.206 F 
HETATM   26  C16 UNL     1      27.919   4.787  48.583  1.00  0.00     0.051 A 
ENDBRANCH  19  20
ENDBRANCH  18  19
ENDBRANCH   4  18
TORSDOF 8
ENDMDL
MODEL 2
REMARK VINA RESULT:      -7.8      4.280      6.979
REMARK  8 active torsions:
REMARK  status: ('A' for Active; 'I' for Inactive)
REMARK    1  A    between atoms: N1_3  and  C3_4 
REMARK    2  A    between atoms: C3_4  and  N2_5 
REMARK    3  A    between atoms: N2_5  and  C4_6 
REMARK    4  A    between atoms: C4_6  and  C6_9 
REMARK    5  A    between atoms: C5_7  and  N3_8 
REMARK    6  A    between atoms: C9_12  and  O1_13 
REMARK    7  A    between atoms: O1_13  and  C10_14 
REMARK    8  A    between atoms: C10_14  and  C11_15 
ROOT
HETATM    1  C6  UNL     1      23.394   3.313  51.531  1.00  0.00    -0.004 A 
HETATM    2  C7  UNL     1      24.689   3.020  51.164  1.00  0.00     0.017 A 
HETATM    3  C8  UNL     1      25.301   1.855  51.562  1.00  0.00     0.039 A 
HETATM    4  C9  UNL     1      24.660   0.922  52.344  1.00  0.00     0.090 A 
HETATM    5  C17 UNL     1      23.341   1.224  52.716  1.00  0.00     0.068 A 
HETATM    6 CL1  UNL     1      22.282   0.213  53.712  1.00  0.00    -0.081 Cl
HETATM    7  C18 UNL     1      22.712   2.408  52.314  1.00  0.00     0.040 A 
ENDROOT
BRANCH   1   8
HETATM    8  C4  UNL     1      22.815   4.575  51.066  1.00  0.00     0.083 C 
HETATM    9  C5  UNL     1      23.298   5.743  51.467  1.00  0.00     0.113 C 
BRANCH   8  10
HETATM   10  N2  UNL     1      21.720   4.566  50.172  1.00  0.00    -0.240 NA
BRANCH  10  11
HETATM   11  C3  UNL     1      21.932   4.177  48.963  1.00  0.00     0.232 C 
BRANCH  11  12
HETATM   12  N1  UNL     1      22.523   3.478  47.848  1.00  0.00    -0.259 NA
HETATM   13  C2  UNL     1      22.406   2.198  47.738  1.00  0.00     0.086 C 
HETATM   14  C1  UNL     1      21.653   1.387  48.758  1.00  0.00     0.057 C 
ENDBRANCH  11  12
ENDBRANCH  10  11
ENDBRANCH   8  10
BRANCH   9  15
HETATM   15  N3  UNL     1      24.262   6.421  52.256  1.00  0.00    -0.406 N 
HETATM   16  H7  UNL     1      25.136   5.967  52.642  1.00  0.00     0.155 HD
HETATM   17  H8  UNL     1      24.196   7.438  52.530  1.00  0.00     0.155 HD
ENDBRANCH   9  15
ENDBRANCH   1   8
BRANCH   4  18
HETATM   18  O1  UNL     1      25.002  -0.268  52.867  1.00  0.00    -0.345 OA
BRANCH  18  19
HETATM   19  C10 UNL     1      25.755  -0.657  53.949  1.00  0.00     0.214 C 
BRANCH  19  20
HETATM   20  C11 UNL     1      27.187  -0.283  53.934  1.00  0.00    -0.031 A 
HETATM   21  C12 UNL     1      27.975  -1.288  53.355  1.00  0.00     0.009 A 
HETATM   22  C13 UNL     1      29.342  -1.175  53.216  1.00  0.00     0.004 A 
HETATM   23  C14 UNL     1      29.999  -0.033  53.655  1.00  0.00     0.042 A 
HETATM   24  C15 UNL     1      29.215   0.946  54.220  1.00  0.00     0.117 A 
HETATM   25  F1  UNL     1      29.691   2.137  54.706  1.00  0.00    -0.206 F 
HETATM   26  C16 UNL     1      27.849   0.847  54.366  1.00  0.00     0.051 A 
ENDBRANCH  19  20
ENDBRANCH  18  19
ENDBRANCH   4  18
TORSDOF 8
ENDMDL
MODEL 3
REMARK VINA RESULT:      -7.8      1.062      2.899
REMARK  8 active torsions:
REMARK  status: ('A' for Active; 'I' for Inactive)
REMARK    1  A    between atoms: N1_3  and  C3_4 
REMARK    2  A    between atoms: C3_4  and  N2_5 
REMARK    3  A    between atoms: N2_5  and  C4_6 
REMARK    4  A    between atoms: C4_6  and  C6_9 
REMARK    5  A    between atoms: C5_7  and  N3_8 
REMARK    6  A    between atoms: C9_12  and  O1_13 
REMARK    7  A    between atoms: O1_13  and  C10_14 
REMARK    8  A    between atoms: C10_14  and  C11_15 
ROOT
HETATM    1  C6  UNL     1      26.105   1.044  53.031  1.00  0.00    -0.004 A 
HETATM    2  C7  UNL     1      26.832   1.107  51.863  1.00  0.00     0.017 A 
HETATM    3  C8  UNL     1      26.504   1.990  50.861  1.00  0.00     0.039 A 
HETATM    4  C9  UNL     1      25.439   2.854  50.968  1.00  0.00     0.090 A 
HETATM    5  C17 UNL     1      24.701   2.786  52.159  1.00  0.00     0.068 A 
HETATM    6 CL1  UNL     1      23.288   3.774  52.568  1.00  0.00    -0.081 Cl
HETATM    7  C18 UNL     1      25.030   1.890  53.183  1.00  0.00     0.040 A 
ENDROOT
BRANCH   1   8
HETATM    8  C4  UNL     1      26.520   0.076  54.049  1.00  0.00     0.083 C 
HETATM    9  C5  UNL     1      27.601   0.277  54.790  1.00  0.00     0.113 C 
BRANCH   8  10
HETATM   10  N2  UNL     1      25.765  -1.100  54.259  1.00  0.00    -0.240 NA
BRANCH  10  11
HETATM   11  C3  UNL     1      24.727  -1.022  55.018  1.00  0.00     0.232 C 
BRANCH  11  12
HETATM   12  N1  UNL     1      23.460  -1.358  55.620  1.00  0.00    -0.259 NA
HETATM   13  C2  UNL     1      22.357  -1.178  54.975  1.00  0.00     0.086 C 
HETATM   14  C1  UNL     1      22.346  -0.617  53.579  1.00  0.00     0.057 C 
ENDBRANCH  11  12
ENDBRANCH  10  11
ENDBRANCH   8  10
BRANCH   9  15
HETATM   15  N3  UNL     1      28.697   1.129  55.085  1.00  0.00    -0.406 N 
HETATM   16  H7  UNL     1      29.567   1.203  54.488  1.00  0.00     0.155 HD
HETATM   17  H8  UNL     1      28.743   1.766  55.924  1.00  0.00     0.155 HD
ENDBRANCH   9  15
ENDBRANCH   1   8
BRANCH   4  18
HETATM   18  O1  UNL     1      24.903   3.795  50.172  1.00  0.00    -0.345 OA
BRANCH  18  19
HETATM   19  C10 UNL     1      25.105   5.145  50.015  1.00  0.00     0.214 C 
BRANCH  19  20
HETATM   20  C11 UNL     1      26.326   5.556  49.286  1.00  0.00    -0.031 A 
HETATM   21  C12 UNL     1      26.331   6.935  49.028  1.00  0.00     0.009 A 
HETATM   22  C13 UNL     1      27.365   7.565  48.369  1.00  0.00     0.004 A 
HETATM   23  C14 UNL     1      28.462   6.837  47.928  1.00  0.00     0.042 A 
HETATM   24  C15 UNL     1      28.446   5.486  48.188  1.00  0.00     0.117 A 
HETATM   25  F1  UNL     1      29.442   4.615  47.829  1.00  0.00    -0.206 F 
HETATM   26  C16 UNL     1      27.420   4.843  48.845  1.00  0.00     0.051 A 
ENDBRANCH  19  20
ENDBRANCH  18  19
ENDBRANCH   4  18
TORSDOF 8
ENDMDL
MODEL 4
REMARK VINA RESULT:      -7.6      5.260      8.161
REMARK  8 active torsions:
REMARK  status: ('A' for Active; 'I' for Inactive)
REMARK    1  A    between atoms: N1_3  and  C3_4 
REMARK    2  A    between atoms: C3_4  and  N2_5 
REMARK    3  A    between atoms: N2_5  and  C4_6 
REMARK    4  A    between atoms: C4_6  and  C6_9 
REMARK    5  A    between atoms: C5_7  and  N3_8 
REMARK    6  A    between atoms: C9_12  and  O1_13 
REMARK    7  A    between atoms: O1_13  and  C10_14 
REMARK    8  A    between atoms: C10_14  and  C11_15 
ROOT
HETATM    1  C6  UNL     1      24.503   0.952  52.111  1.00  0.00    -0.004 A 
HETATM    2  C7  UNL     1      23.796   1.693  51.190  1.00  0.00     0.017 A 
HETATM    3  C8  UNL     1      22.434   1.852  51.291  1.00  0.00     0.039 A 
HETATM    4  C9  UNL     1      21.705   1.285  52.310  1.00  0.00     0.090 A 
HETATM    5  C17 UNL     1      22.428   0.531  53.246  1.00  0.00     0.068 A 
HETATM    6 CL1  UNL     1      21.754  -0.308  54.653  1.00  0.00    -0.081 Cl
HETATM    7  C18 UNL     1      23.815   0.364  53.150  1.00  0.00     0.040 A 
ENDROOT
BRANCH   1   8
HETATM    8  C4  UNL     1      25.952   0.830  51.932  1.00  0.00     0.083 C 
HETATM    9  C5  UNL     1      26.695   1.880  51.613  1.00  0.00     0.113 C 
BRANCH   8  10
HETATM   10  N2  UNL     1      26.585  -0.422  52.101  1.00  0.00    -0.240 NA
BRANCH  10  11
HETATM   11  C3  UNL     1      27.250  -0.620  53.186  1.00  0.00     0.232 C 
BRANCH  11  12
HETATM   12  N1  UNL     1      27.627  -0.551  54.576  1.00  0.00    -0.259 NA
HETATM   13  C2  UNL     1      28.594   0.213  54.958  1.00  0.00     0.086 C 
HETATM   14  C1  UNL     1      29.362   1.058  53.978  1.00  0.00     0.057 C 
ENDBRANCH  11  12
ENDBRANCH  10  11
ENDBRANCH   8  10
BRANCH   9  15
HETATM   15  N3  UNL     1      26.728   3.269  51.323  1.00  0.00    -0.406 N 
HETATM   16  H7  UNL     1      27.526   3.751  50.823  1.00  0.00     0.155 HD
HETATM   17  H8  UNL     1      25.961   3.946  51.579  1.00  0.00     0.155 HD
ENDBRANCH   9  15
ENDBRANCH   1   8
BRANCH   4  18
HETATM   18  O1  UNL     1      20.404   1.273  52.647  1.00  0.00    -0.345 OA
BRANCH  18  19
HETATM   19  C10 UNL     1      19.234   1.123  51.943  1.00  0.00     0.214 C 
BRANCH  19  20
HETATM   20  C11 UNL     1      18.386  -0.037  52.297  1.00  0.00    -0.031 A 
HETATM   21  C12 UNL     1      17.210  -0.067  51.534  1.00  0.00     0.009 A 
HETATM   22  C13 UNL     1      16.259  -1.056  51.670  1.00  0.00     0.004 A 
HETATM   23  C14 UNL     1      16.439  -2.081  52.589  1.00  0.00     0.042 A 
HETATM   24  C15 UNL     1      17.598  -2.041  53.331  1.00  0.00     0.117 A 
HETATM   25  F1  UNL     1      17.942  -2.967  54.282  1.00  0.00    -0.206 F 
HETATM   26  C16 UNL     1      18.556  -1.060  53.206  1.00  0.00     0.051 A 
ENDBRANCH  19  20
ENDBRANCH  18  19
ENDBRANCH   4  18
TORSDOF 8
ENDMDL
MODEL 5
REMARK VINA RESULT:      -7.5      4.161      5.512
REMARK  8 active torsions:
REMARK  status: ('A' for Active; 'I' for Inactive)
REMARK    1  A    between atoms: N1_3  and  C3_4 
REMARK    2  A    between atoms: C3_4  and  N2_5 
REMARK    3  A    between atoms: N2_5  and  C4_6 
REMARK    4  A    between atoms: C4_6  and  C6_9 
REMARK    5  A    between atoms: C5_7  and  N3_8 
REMARK    6  A    between atoms: C9_12  and  O1_13 
REMARK    7  A    between atoms: O1_13  and  C10_14 
REMARK    8  A    between atoms: C10_14  and  C11_15 
ROOT
HETATM    1  C6  UNL     1      24.893   1.173  53.343  1.00  0.00    -0.004 A 
HETATM    2  C7  UNL     1      24.383  -0.105  53.413  1.00  0.00     0.017 A 
HETATM    3  C8  UNL     1      23.060  -0.366  53.145  1.00  0.00     0.039 A 
HETATM    4  C9  UNL     1      22.176   0.627  52.794  1.00  0.00     0.090 A 
HETATM    5  C17 UNL     1      22.698   1.928  52.723  1.00  0.00     0.068 A 
HETATM    6 CL1  UNL     1      21.796   3.392  52.297  1.00  0.00    -0.081 Cl
HETATM    7  C18 UNL     1      24.044   2.200  52.995  1.00  0.00     0.040 A 
ENDROOT
BRANCH   1   8
HETATM    8  C4  UNL     1      26.313   1.366  53.644  1.00  0.00     0.083 C 
HETATM    9  C5  UNL     1      27.092   2.086  52.849  1.00  0.00     0.113 C 
BRANCH   8  10
HETATM   10  N2  UNL     1      26.879   0.782  54.800  1.00  0.00    -0.240 NA
BRANCH  10  11
HETATM   11  C3  UNL     1      28.076   0.314  54.714  1.00  0.00     0.232 C 
BRANCH  11  12
HETATM   12  N1  UNL     1      29.436   0.145  54.265  1.00  0.00    -0.259 NA
HETATM   13  C2  UNL     1      29.769  -0.872  53.545  1.00  0.00     0.086 C 
HETATM   14  C1  UNL     1      28.761  -1.915  53.144  1.00  0.00     0.057 C 
ENDBRANCH  11  12
ENDBRANCH  10  11
ENDBRANCH   8  10
BRANCH   9  15
HETATM   15  N3  UNL     1      27.187   2.867  51.669  1.00  0.00    -0.406 N 
HETATM   16  H7  UNL     1      26.352   3.223  51.126  1.00  0.00     0.155 HD
HETATM   17  H8  UNL     1      28.097   3.165  51.225  1.00  0.00     0.155 HD
ENDBRANCH   9  15
ENDBRANCH   1   8
BRANCH   4  18
HETATM   18  O1  UNL     1      20.868   0.662  52.486  1.00  0.00    -0.345 OA
BRANCH  18  19
HETATM   19  C10 UNL     1      20.134   0.295  51.383  1.00  0.00     0.214 C 
BRANCH  19  20
HETATM   20  C11 UNL     1      20.421   1.014  50.122  1.00  0.00    -0.031 A 
HETATM   21  C12 UNL     1      19.388   1.904  49.791  1.00  0.00     0.009 A 
HETATM   22  C13 UNL     1      19.422   2.699  48.665  1.00  0.00     0.004 A 
HETATM   23  C14 UNL     1      20.507   2.644  47.801  1.00  0.00     0.042 A 
HETATM   24  C15 UNL     1      21.514   1.768  48.137  1.00  0.00     0.117 A 
HETATM   25  F1  UNL     1      22.658   1.582  47.403  1.00  0.00    -0.206 F 
HETATM   26  C16 UNL     1      21.494   0.968  49.257  1.00  0.00     0.051 A 
ENDBRANCH  19  20
ENDBRANCH  18  19
ENDBRANCH   4  18
TORSDOF 8
ENDMDL
MODEL 6
REMARK VINA RESULT:      -7.5      2.102      3.911
REMARK  8 active torsions:
REMARK  status: ('A' for Active; 'I' for Inactive)
REMARK    1  A    between atoms: N1_3  and  C3_4 
REMARK    2  A    between atoms: C3_4  and  N2_5 
REMARK    3  A    between atoms: N2_5  and  C4_6 
REMARK    4  A    between atoms: C4_6  and  C6_9 
REMARK    5  A    between atoms: C5_7  and  N3_8 
REMARK    6  A    between atoms: C9_12  and  O1_13 
REMARK    7  A    between atoms: O1_13  and  C10_14 
REMARK    8  A    between atoms: C10_14  and  C11_15 
ROOT
HETATM    1  C6  UNL     1      24.398   0.115  53.362  1.00  0.00    -0.004 A 
HETATM    2  C7  UNL     1      25.586  -0.307  52.808  1.00  0.00     0.017 A 
HETATM    3  C8  UNL     1      26.342   0.523  52.014  1.00  0.00     0.039 A 
HETATM    4  C9  UNL     1      25.957   1.812  51.729  1.00  0.00     0.090 A 
HETATM    5  C17 UNL     1      24.746   2.238  52.294  1.00  0.00     0.068 A 
HETATM    6 CL1  UNL     1      24.010   3.838  52.098  1.00  0.00    -0.081 Cl
HETATM    7  C18 UNL     1      23.971   1.399  53.104  1.00  0.00     0.040 A 
ENDROOT
BRANCH   1   8
HETATM    8  C4  UNL     1      23.652  -0.830  54.197  1.00  0.00     0.083 C 
HETATM    9  C5  UNL     1      24.122  -1.230  55.370  1.00  0.00     0.113 C 
BRANCH   8  10
HETATM   10  N2  UNL     1      22.407  -1.334  53.759  1.00  0.00    -0.240 NA
BRANCH  10  11
HETATM   11  C3  UNL     1      21.375  -0.572  53.872  1.00  0.00     0.232 C 
BRANCH  11  12
HETATM   12  N1  UNL     1      20.580   0.628  53.979  1.00  0.00    -0.259 NA
HETATM   13  C2  UNL     1      20.203   1.262  52.921  1.00  0.00     0.086 C 
HETATM   14  C1  UNL     1      20.570   0.781  51.543  1.00  0.00     0.057 C 
ENDBRANCH  11  12
ENDBRANCH  10  11
ENDBRANCH   8  10
BRANCH   9  15
HETATM   15  N3  UNL     1      25.172  -1.145  56.320  1.00  0.00    -0.406 N 
HETATM   16  H7  UNL     1      26.041  -1.749  56.298  1.00  0.00     0.155 HD
HETATM   17  H8  UNL     1      25.184  -0.474  57.134  1.00  0.00     0.155 HD
ENDBRANCH   9  15
ENDBRANCH   1   8
BRANCH   4  18
HETATM   18  O1  UNL     1      26.481   2.816  51.004  1.00  0.00    -0.345 OA
BRANCH  18  19
HETATM   19  C10 UNL     1      26.575   3.078  49.659  1.00  0.00     0.214 C 
BRANCH  19  20
HETATM   20  C11 UNL     1      26.603   4.502  49.256  1.00  0.00    -0.031 A 
HETATM   21  C12 UNL     1      27.821   4.840  48.649  1.00  0.00     0.009 A 
HETATM   22  C13 UNL     1      28.090   6.108  48.177  1.00  0.00     0.004 A 
HETATM   23  C14 UNL     1      27.141   7.115  48.290  1.00  0.00     0.042 A 
HETATM   24  C15 UNL     1      25.950   6.769  48.887  1.00  0.00     0.117 A 
HETATM   25  F1  UNL     1      24.902   7.631  49.082  1.00  0.00    -0.206 F 
HETATM   26  C16 UNL     1      25.667   5.508  49.363  1.00  0.00     0.051 A 
ENDBRANCH  19  20
ENDBRANCH  18  19
ENDBRANCH   4  18
TORSDOF 8
ENDMDL
MODEL 7
REMARK VINA RESULT:      -7.5      3.656      5.400
REMARK  8 active torsions:
REMARK  status: ('A' for Active; 'I' for Inactive)
REMARK    1  A    between atoms: N1_3  and  C3_4 
REMARK    2  A    between atoms: C3_4  and  N2_5 
REMARK    3  A    between atoms: N2_5  and  C4_6 
REMARK    4  A    between atoms: C4_6  and  C6_9 
REMARK    5  A    between atoms: C5_7  and  N3_8 
REMARK    6  A    between atoms: C9_12  and  O1_13 
REMARK    7  A    between atoms: O1_13  and  C10_14 
REMARK    8  A    between atoms: C10_14  and  C11_15 
ROOT
HETATM    1  C6  UNL     1      26.555   1.619  53.040  1.00  0.00    -0.004 A 
HETATM    2  C7  UNL     1      25.509   2.200  53.722  1.00  0.00     0.017 A 
HETATM    3  C8  UNL     1      24.693   3.131  53.126  1.00  0.00     0.039 A 
HETATM    4  C9  UNL     1      24.872   3.533  51.823  1.00  0.00     0.090 A 
HETATM    5  C17 UNL     1      25.938   2.939  51.130  1.00  0.00     0.068 A 
HETATM    6 CL1  UNL     1      26.400   3.263  49.451  1.00  0.00    -0.081 Cl
HETATM    7  C18 UNL     1      26.773   1.990  51.731  1.00  0.00     0.040 A 
ENDROOT
BRANCH   1   8
HETATM    8  C4  UNL     1      27.378   0.635  53.747  1.00  0.00     0.083 C 
HETATM    9  C5  UNL     1      28.540   0.973  54.289  1.00  0.00     0.113 C 
BRANCH   8  10
HETATM   10  N2  UNL     1      26.940  -0.703  53.864  1.00  0.00    -0.240 NA
BRANCH  10  11
HETATM   11  C3  UNL     1      25.800  -0.918  54.423  1.00  0.00     0.232 C 
BRANCH  11  12
HETATM   12  N1  UNL     1      24.829  -1.278  55.427  1.00  0.00    -0.259 NA
HETATM   13  C2  UNL     1      23.566  -1.156  55.194  1.00  0.00     0.086 C 
HETATM   14  C1  UNL     1      23.057  -0.639  53.875  1.00  0.00     0.057 C 
ENDBRANCH  11  12
ENDBRANCH  10  11
ENDBRANCH   8  10
BRANCH   9  15
HETATM   15  N3  UNL     1      29.483   2.006  54.529  1.00  0.00    -0.406 N 
HETATM   16  H7  UNL     1      29.639   2.827  53.880  1.00  0.00     0.155 HD
HETATM   17  H8  UNL     1      30.112   2.050  55.374  1.00  0.00     0.155 HD
ENDBRANCH   9  15
ENDBRANCH   1   8
BRANCH   4  18
HETATM   18  O1  UNL     1      24.246   4.399  51.006  1.00  0.00    -0.345 OA
BRANCH  18  19
HETATM   19  C10 UNL     1      22.993   4.450  50.444  1.00  0.00     0.214 C 
BRANCH  19  20
HETATM   20  C11 UNL     1      22.414   3.167  49.988  1.00  0.00    -0.031 A 
HETATM   21  C12 UNL     1      22.644   2.957  48.621  1.00  0.00     0.009 A 
HETATM   22  C13 UNL     1      22.211   1.828  47.958  1.00  0.00     0.004 A 
HETATM   23  C14 UNL     1      21.516   0.838  48.640  1.00  0.00     0.042 A 
HETATM   24  C15 UNL     1      21.297   1.056  49.981  1.00  0.00     0.117 A 
HETATM   25  F1  UNL     1      20.632   0.189  50.809  1.00  0.00    -0.206 F 
HETATM   26  C16 UNL     1      21.724   2.178  50.656  1.00  0.00     0.051 A 
ENDBRANCH  19  20
ENDBRANCH  18  19
ENDBRANCH   4  18
TORSDOF 8
ENDMDL
MODEL 8
REMARK VINA RESULT:      -7.5      5.144      8.142
REMARK  8 active torsions:
REMARK  status: ('A' for Active; 'I' for Inactive)
REMARK    1  A    between atoms: N1_3  and  C3_4 
REMARK    2  A    between atoms: C3_4  and  N2_5 
REMARK    3  A    between atoms: N2_5  and  C4_6 
REMARK    4  A    between atoms: C4_6  and  C6_9 
REMARK    5  A    between atoms: C5_7  and  N3_8 
REMARK    6  A    between atoms: C9_12  and  O1_13 
REMARK    7  A    between atoms: O1_13  and  C10_14 
REMARK    8  A    between atoms: C10_14  and  C11_15 
ROOT
HETATM    1  C6  UNL     1      25.006   0.803  53.250  1.00  0.00    -0.004 A 
HETATM    2  C7  UNL     1      24.341  -0.202  53.917  1.00  0.00     0.017 A 
HETATM    3  C8  UNL     1      23.054  -0.554  53.584  1.00  0.00     0.039 A 
HETATM    4  C9  UNL     1      22.362   0.074  52.574  1.00  0.00     0.090 A 
HETATM    5  C17 UNL     1      23.043   1.097  51.898  1.00  0.00     0.068 A 
HETATM    6 CL1  UNL     1      22.402   2.070  50.564  1.00  0.00    -0.081 Cl
HETATM    7  C18 UNL     1      24.353   1.460  52.231  1.00  0.00     0.040 A 
ENDROOT
BRANCH   1   8
HETATM    8  C4  UNL     1      26.375   1.117  53.666  1.00  0.00     0.083 C 
HETATM    9  C5  UNL     1      27.125   1.967  52.978  1.00  0.00     0.113 C 
BRANCH   8  10
HETATM   10  N2  UNL     1      26.922   0.511  54.820  1.00  0.00    -0.240 NA
BRANCH  10  11
HETATM   11  C3  UNL     1      28.156   0.143  54.779  1.00  0.00     0.232 C 
BRANCH  11  12
HETATM   12  N1  UNL     1      29.507  -0.019  54.302  1.00  0.00    -0.259 NA
HETATM   13  C2  UNL     1      29.827  -1.026  53.561  1.00  0.00     0.086 C 
HETATM   14  C1  UNL     1      28.811  -2.063  53.165  1.00  0.00     0.057 C 
ENDBRANCH  11  12
ENDBRANCH  10  11
ENDBRANCH   8  10
BRANCH   9  15
HETATM   15  N3  UNL     1      27.214   2.836  51.861  1.00  0.00    -0.406 N 
HETATM   16  H7  UNL     1      26.886   2.583  50.887  1.00  0.00     0.155 HD
HETATM   17  H8  UNL     1      27.613   3.812  51.898  1.00  0.00     0.155 HD
ENDBRANCH   9  15
ENDBRANCH   1   8
BRANCH   4  18
HETATM   18  O1  UNL     1      21.132  -0.057  52.049  1.00  0.00    -0.345 OA
BRANCH  18  19
HETATM   19  C10 UNL     1      19.903   0.482  52.343  1.00  0.00     0.214 C 
BRANCH  19  20
HETATM   20  C11 UNL     1      18.792  -0.472  52.562  1.00  0.00    -0.031 A 
HETATM   21  C12 UNL     1      17.686  -0.165  51.755  1.00  0.00     0.009 A 
HETATM   22  C13 UNL     1      16.526  -0.912  51.768  1.00  0.00     0.004 A 
HETATM   23  C14 UNL     1      16.413  -2.018  52.599  1.00  0.00     0.042 A 
HETATM   24  C15 UNL     1      17.505  -2.308  53.385  1.00  0.00     0.117 A 
HETATM   25  F1  UNL     1      17.572  -3.360  54.262  1.00  0.00    -0.206 F 
HETATM   26  C16 UNL     1      18.669  -1.572  53.383  1.00  0.00     0.051 A 
ENDBRANCH  19  20
ENDBRANCH  18  19
ENDBRANCH   4  18
TORSDOF 8
ENDMDL
MODEL 9
REMARK VINA RESULT:      -7.5      1.557      1.882
REMARK  8 active torsions:
REMARK  status: ('A' for Active; 'I' for Inactive)
REMARK    1  A    between atoms: N1_3  and  C3_4 
REMARK    2  A    between atoms: C3_4  and  N2_5 
REMARK    3  A    between atoms: N2_5  and  C4_6 
REMARK    4  A    between atoms: C4_6  and  C6_9 
REMARK    5  A    between atoms: C5_7  and  N3_8 
REMARK    6  A    between atoms: C9_12  and  O1_13 
REMARK    7  A    between atoms: O1_13  and  C10_14 
REMARK    8  A    between atoms: C10_14  and  C11_15 
ROOT
HETATM    1  C6  UNL     1      24.094   1.343  52.580  1.00  0.00    -0.004 A 
HETATM    2  C7  UNL     1      24.244   2.461  53.371  1.00  0.00     0.017 A 
HETATM    3  C8  UNL     1      24.143   3.728  52.847  1.00  0.00     0.039 A 
HETATM    4  C9  UNL     1      23.888   3.950  51.514  1.00  0.00     0.090 A 
HETATM    5  C17 UNL     1      23.736   2.809  50.712  1.00  0.00     0.068 A 
HETATM    6 CL1  UNL     1      23.403   2.795  48.972  1.00  0.00    -0.081 Cl
HETATM    7  C18 UNL     1      23.838   1.516  51.238  1.00  0.00     0.040 A 
ENDROOT
BRANCH   1   8
HETATM    8  C4  UNL     1      24.217   0.029  53.215  1.00  0.00     0.083 C 
HETATM    9  C5  UNL     1      23.205  -0.510  53.882  1.00  0.00     0.113 C 
BRANCH   8  10
HETATM   10  N2  UNL     1      25.429  -0.693  53.124  1.00  0.00    -0.240 NA
BRANCH  10  11
HETATM   11  C3  UNL     1      26.410  -0.320  53.870  1.00  0.00     0.232 C 
BRANCH  11  12
HETATM   12  N1  UNL     1      27.713  -0.304  54.488  1.00  0.00    -0.259 NA
HETATM   13  C2  UNL     1      28.481   0.727  54.376  1.00  0.00     0.086 C 
HETATM   14  C1  UNL     1      28.052   1.947  53.606  1.00  0.00     0.057 C 
ENDBRANCH  11  12
ENDBRANCH  10  11
ENDBRANCH   8  10
BRANCH   9  15
HETATM   15  N3  UNL     1      21.864  -0.369  54.323  1.00  0.00    -0.406 N 
HETATM   16  H7  UNL     1      21.263   0.479  54.126  1.00  0.00     0.155 HD
HETATM   17  H8  UNL     1      21.345  -1.094  54.885  1.00  0.00     0.155 HD
ENDBRANCH   9  15
ENDBRANCH   1   8
BRANCH   4  18
HETATM   18  O1  UNL     1      23.742   5.047  50.749  1.00  0.00    -0.345 OA
BRANCH  18  19
HETATM   19  C10 UNL     1      24.432   6.229  50.629  1.00  0.00     0.214 C 
BRANCH  19  20
HETATM   20  C11 UNL     1      25.643   6.210  49.778  1.00  0.00    -0.031 A 
HETATM   21  C12 UNL     1      26.017   7.505  49.388  1.00  0.00     0.009 A 
HETATM   22  C13 UNL     1      27.119   7.755  48.598  1.00  0.00     0.004 A 
HETATM   23  C14 UNL     1      27.914   6.708  48.152  1.00  0.00     0.042 A 
HETATM   24  C15 UNL     1      27.537   5.443  48.542  1.00  0.00     0.117 A 
HETATM   25  F1  UNL     1      28.203   4.295  48.197  1.00  0.00    -0.206 F 
HETATM   26  C16 UNL     1      26.440   5.178  49.330  1.00  0.00     0.051 A 
ENDBRANCH  19  20
ENDBRANCH  18  19
ENDBRANCH   4  18
TORSDOF 8
ENDMDL
