MODEL 1
REMARK VINA RESULT:      -7.9      0.000      0.000
REMARK  6 active torsions:
REMARK  status: ('A' for Active; 'I' for Inactive)
REMARK    1  A    between atoms: C2_2  and  C3_3 
REMARK    2  A    between atoms: C3_3  and  C4_6 
REMARK    3  A    between atoms: C6_8  and  N1_9 
REMARK    4  A    between atoms: N2_11  and  O1_12 
REMARK    5  A    between atoms: O1_12  and  N3_13 
REMARK    6  A    between atoms: N6_19  and  C11_20 
ROOT
HETATM    1  C4  UNL     1      23.977   0.980  53.291  1.00  0.00     0.112 C 
HETATM    2  C5  UNL     1      25.314   0.777  53.836  1.00  0.00     0.021 C 
HETATM    3  C6  UNL     1      26.568   1.119  53.655  1.00  0.00     0.073 C 
HETATM    4  C7  UNL     1      27.250   1.957  52.709  1.00  0.00     0.206 C 
HETATM    5  N2  UNL     1      28.486   2.197  52.948  1.00  0.00    -0.091 NA
HETATM    6  N4  UNL     1      26.866   2.615  51.519  1.00  0.00    -0.205 NA
HETATM    7  C8  UNL     1      25.737   2.772  50.914  1.00  0.00     0.162 A 
HETATM    8  C9  UNL     1      24.444   2.401  51.120  1.00  0.00     0.101 A 
HETATM    9  N5  UNL     1      23.716   2.891  50.098  1.00  0.00    -0.240 NA
HETATM   10  C10 UNL     1      24.529   3.560  49.258  1.00  0.00     0.211 A 
HETATM   11  N6  UNL     1      25.777   3.482  49.771  1.00  0.00    -0.325 N 
HETATM   12  C13 UNL     1      23.818   1.707  52.058  1.00  0.00     0.024 C 
ENDROOT
BRANCH   1  13
HETATM   13  C3  UNL     1      23.311  -0.387  53.253  1.00  0.00     0.271 C 
HETATM   14  F1  UNL     1      22.367  -0.437  52.231  1.00  0.00    -0.201 F 
HETATM   15  F2  UNL     1      24.298  -1.303  52.915  1.00  0.00    -0.201 F 
BRANCH  13  16
HETATM   16  C2  UNL     1      22.732  -0.738  54.558  1.00  0.00     0.041 C 
HETATM   17  C1  UNL     1      21.543  -1.297  54.352  1.00  0.00     0.013 C 
ENDBRANCH  13  16
ENDBRANCH   1  13
BRANCH   3  18
HETATM   18  N1  UNL     1      27.458   0.535  54.600  1.00  0.00    -0.396 N 
HETATM   19  H6  UNL     1      27.609  -0.388  55.106  1.00  0.00     0.156 HD
HETATM   20  H7  UNL     1      28.217   1.211  54.918  1.00  0.00     0.156 HD
ENDBRANCH   3  18
BRANCH   5  21
HETATM   21  O1  UNL     1      29.160   1.705  54.028  1.00  0.00    -0.161 OA
BRANCH  21  22
HETATM   22  N3  UNL     1      29.941   2.456  54.861  1.00  0.00    -0.187 NA
HETATM   23  H8  UNL     1      29.549   2.532  55.808  1.00  0.00     0.153 HD
HETATM   24  H9  UNL     1      30.248   3.360  54.451  1.00  0.00     0.153 HD
ENDBRANCH  21  22
ENDBRANCH   5  21
BRANCH  11  25
HETATM   25  C11 UNL     1      27.000   4.058  49.210  1.00  0.00     0.127 C 
HETATM   26  C12 UNL     1      26.823   5.479  48.793  1.00  0.00     0.027 C 
ENDBRANCH  11  25
TORSDOF 6
ENDMDL
MODEL 2
REMARK VINA RESULT:      -7.9      3.339      4.956
REMARK  6 active torsions:
REMARK  status: ('A' for Active; 'I' for Inactive)
REMARK    1  A    between atoms: C2_2  and  C3_3 
REMARK    2  A    between atoms: C3_3  and  C4_6 
REMARK    3  A    between atoms: C6_8  and  N1_9 
REMARK    4  A    between atoms: N2_11  and  O1_12 
REMARK    5  A    between atoms: O1_12  and  N3_13 
REMARK    6  A    between atoms: N6_19  and  C11_20 
ROOT
HETATM    1  C4  UNL     1      27.550   0.001  53.156  1.00  0.00     0.112 C 
HETATM    2  C5  UNL     1      26.471  -0.508  53.995  1.00  0.00     0.021 C 
HETATM    3  C6  UNL     1      25.169  -0.457  54.149  1.00  0.00     0.073 C 
HETATM    4  C7  UNL     1      24.105   0.217  53.458  1.00  0.00     0.206 C 
HETATM    5  N2  UNL     1      22.911  -0.109  53.792  1.00  0.00    -0.091 NA
HETATM    6  N4  UNL     1      24.056   1.202  52.446  1.00  0.00    -0.205 NA
HETATM    7  C8  UNL     1      24.953   1.774  51.717  1.00  0.00     0.162 A 
HETATM    8  C9  UNL     1      26.306   1.708  51.579  1.00  0.00     0.101 A 
HETATM    9  N5  UNL     1      26.656   2.585  50.618  1.00  0.00    -0.240 NA
HETATM   10  C10 UNL     1      25.550   3.197  50.154  1.00  0.00     0.211 A 
HETATM   11  N6  UNL     1      24.501   2.690  50.838  1.00  0.00    -0.325 N 
HETATM   12  C13 UNL     1      27.262   1.003  52.163  1.00  0.00     0.024 C 
ENDROOT
BRANCH   1  13
HETATM   13  C3  UNL     1      28.672   0.415  54.096  1.00  0.00     0.271 C 
HETATM   14  F1  UNL     1      28.681   1.798  54.258  1.00  0.00    -0.201 F 
HETATM   15  F2  UNL     1      28.369  -0.121  55.340  1.00  0.00    -0.201 F 
BRANCH  13  16
HETATM   16  C2  UNL     1      29.972  -0.096  53.637  1.00  0.00     0.041 C 
HETATM   17  C1  UNL     1      29.886  -1.417  53.522  1.00  0.00     0.013 C 
ENDBRANCH  13  16
ENDBRANCH   1  13
BRANCH   3  18
HETATM   18  N1  UNL     1      24.694  -1.239  55.239  1.00  0.00    -0.396 N 
HETATM   19  H6  UNL     1      24.402  -2.240  55.450  1.00  0.00     0.156 HD
HETATM   20  H7  UNL     1      24.589  -0.671  56.133  1.00  0.00     0.156 HD
ENDBRANCH   3  18
BRANCH   5  21
HETATM   21  O1  UNL     1      22.618  -1.040  54.747  1.00  0.00    -0.161 OA
BRANCH  21  22
HETATM   22  N3  UNL     1      21.366  -1.534  54.987  1.00  0.00    -0.187 NA
HETATM   23  H8  UNL     1      20.798  -0.905  55.567  1.00  0.00     0.153 HD
HETATM   24  H9  UNL     1      21.356  -2.527  55.293  1.00  0.00     0.153 HD
ENDBRANCH  21  22
ENDBRANCH   5  21
BRANCH  11  25
HETATM   25  C11 UNL     1      23.091   3.046  50.685  1.00  0.00     0.127 C 
HETATM   26  C12 UNL     1      22.514   2.553  49.400  1.00  0.00     0.027 C 
ENDBRANCH  11  25
TORSDOF 6
ENDMDL
MODEL 3
REMARK VINA RESULT:      -7.5      3.096      5.696
REMARK  6 active torsions:
REMARK  status: ('A' for Active; 'I' for Inactive)
REMARK    1  A    between atoms: C2_2  and  C3_3 
REMARK    2  A    between atoms: C3_3  and  C4_6 
REMARK    3  A    between atoms: C6_8  and  N1_9 
REMARK    4  A    between atoms: N2_11  and  O1_12 
REMARK    5  A    between atoms: O1_12  and  N3_13 
REMARK    6  A    between atoms: N6_19  and  C11_20 
ROOT
HETATM    1  C4  UNL     1      25.937   0.216  53.625  1.00  0.00     0.112 C 
HETATM    2  C5  UNL     1      25.854   1.481  52.904  1.00  0.00     0.021 C 
HETATM    3  C6  UNL     1      24.990   2.359  52.452  1.00  0.00     0.073 C 
HETATM    4  C7  UNL     1      23.558   2.459  52.480  1.00  0.00     0.206 C 
HETATM    5  N2  UNL     1      23.056   3.567  52.077  1.00  0.00    -0.091 NA
HETATM    6  N4  UNL     1      22.516   1.585  52.865  1.00  0.00    -0.205 NA
HETATM    7  C8  UNL     1      22.491   0.421  53.420  1.00  0.00     0.162 A 
HETATM    8  C9  UNL     1      23.406  -0.477  53.877  1.00  0.00     0.101 A 
HETATM    9  N5  UNL     1      22.726  -1.534  54.361  1.00  0.00    -0.240 NA
HETATM   10  C10 UNL     1      21.406  -1.315  54.215  1.00  0.00     0.211 A 
HETATM   11  N6  UNL     1      21.269  -0.103  53.632  1.00  0.00    -0.325 N 
HETATM   12  C13 UNL     1      24.729  -0.505  53.931  1.00  0.00     0.024 C 
ENDROOT
BRANCH   1  13
HETATM   13  C3  UNL     1      26.956  -0.639  52.884  1.00  0.00     0.271 C 
HETATM   14  F1  UNL     1      26.680  -1.991  53.072  1.00  0.00    -0.201 F 
HETATM   15  F2  UNL     1      26.778  -0.390  51.530  1.00  0.00    -0.201 F 
BRANCH  13  16
HETATM   16  C2  UNL     1      28.330  -0.296  53.278  1.00  0.00     0.041 C 
HETATM   17  C1  UNL     1      29.032  -1.421  53.371  1.00  0.00     0.013 C 
ENDBRANCH  13  16
ENDBRANCH   1  13
BRANCH   3  18
HETATM   18  N1  UNL     1      25.596   3.460  51.784  1.00  0.00    -0.396 N 
HETATM   19  H6  UNL     1      25.461   4.509  51.667  1.00  0.00     0.156 HD
HETATM   20  H7  UNL     1      26.451   3.175  51.218  1.00  0.00     0.156 HD
ENDBRANCH   3  18
BRANCH   5  21
HETATM   21  O1  UNL     1      23.802   4.623  51.636  1.00  0.00    -0.161 OA
BRANCH  21  22
HETATM   22  N3  UNL     1      23.894   5.826  52.277  1.00  0.00    -0.187 NA
HETATM   23  H8  UNL     1      23.345   5.854  53.146  1.00  0.00     0.153 HD
HETATM   24  H9  UNL     1      23.755   6.647  51.656  1.00  0.00     0.153 HD
ENDBRANCH  21  22
ENDBRANCH   5  21
BRANCH  11  25
HETATM   25  C11 UNL     1      20.020   0.568  53.273  1.00  0.00     0.127 C 
HETATM   26  C12 UNL     1      18.985  -0.382  52.773  1.00  0.00     0.027 C 
ENDBRANCH  11  25
TORSDOF 6
ENDMDL
MODEL 4
REMARK VINA RESULT:      -7.2      2.907      4.898
REMARK  6 active torsions:
REMARK  status: ('A' for Active; 'I' for Inactive)
REMARK    1  A    between atoms: C2_2  and  C3_3 
REMARK    2  A    between atoms: C3_3  and  C4_6 
REMARK    3  A    between atoms: C6_8  and  N1_9 
REMARK    4  A    between atoms: N2_11  and  O1_12 
REMARK    5  A    between atoms: O1_12  and  N3_13 
REMARK    6  A    between atoms: N6_19  and  C11_20 
ROOT
HETATM    1  C4  UNL     1      22.197  -0.725  52.971  1.00  0.00     0.112 C 
HETATM    2  C5  UNL     1      21.870   0.286  51.972  1.00  0.00     0.021 C 
HETATM    3  C6  UNL     1      22.406   1.251  51.264  1.00  0.00     0.073 C 
HETATM    4  C7  UNL     1      23.730   1.800  51.159  1.00  0.00     0.206 C 
HETATM    5  N2  UNL     1      23.923   2.646  50.217  1.00  0.00    -0.091 NA
HETATM    6  N4  UNL     1      24.931   1.620  51.882  1.00  0.00    -0.205 NA
HETATM    7  C8  UNL     1      25.286   0.824  52.833  1.00  0.00     0.162 A 
HETATM    8  C9  UNL     1      24.707  -0.170  53.559  1.00  0.00     0.101 A 
HETATM    9  N5  UNL     1      25.630  -0.625  54.428  1.00  0.00    -0.240 NA
HETATM   10  C10 UNL     1      26.773   0.067  54.260  1.00  0.00     0.211 A 
HETATM   11  N6  UNL     1      26.552   0.961  53.271  1.00  0.00    -0.325 N 
HETATM   12  C13 UNL     1      23.507  -0.730  53.571  1.00  0.00     0.024 C 
ENDROOT
BRANCH   1  13
HETATM   13  C3  UNL     1      21.082  -0.689  54.006  1.00  0.00     0.271 C 
HETATM   14  F1  UNL     1      21.002  -1.908  54.674  1.00  0.00    -0.201 F 
HETATM   15  F2  UNL     1      21.449   0.253  54.957  1.00  0.00    -0.201 F 
BRANCH  13  16
HETATM   16  C2  UNL     1      19.799  -0.308  53.397  1.00  0.00     0.041 C 
HETATM   17  C1  UNL     1      18.957  -1.329  53.523  1.00  0.00     0.013 C 
ENDBRANCH  13  16
ENDBRANCH   1  13
BRANCH   3  18
HETATM   18  N1  UNL     1      21.480   1.908  50.406  1.00  0.00    -0.396 N 
HETATM   19  H6  UNL     1      20.431   2.057  50.310  1.00  0.00     0.156 HD
HETATM   20  H7  UNL     1      21.958   2.415  49.601  1.00  0.00     0.156 HD
ENDBRANCH   3  18
BRANCH   5  21
HETATM   21  O1  UNL     1      22.955   3.037  49.336  1.00  0.00    -0.161 OA
BRANCH  21  22
HETATM   22  N3  UNL     1      22.868   4.285  48.786  1.00  0.00    -0.187 NA
HETATM   23  H8  UNL     1      23.745   4.813  48.865  1.00  0.00     0.153 HD
HETATM   24  H9  UNL     1      22.021   4.814  49.072  1.00  0.00     0.153 HD
ENDBRANCH  21  22
ENDBRANCH   5  21
BRANCH  11  25
HETATM   25  C11 UNL     1      27.501   1.936  52.734  1.00  0.00     0.127 C 
HETATM   26  C12 UNL     1      28.525   2.349  53.737  1.00  0.00     0.027 C 
ENDBRANCH  11  25
TORSDOF 6
ENDMDL
MODEL 5
REMARK VINA RESULT:      -7.1      2.470      5.301
REMARK  6 active torsions:
REMARK  status: ('A' for Active; 'I' for Inactive)
REMARK    1  A    between atoms: C2_2  and  C3_3 
REMARK    2  A    between atoms: C3_3  and  C4_6 
REMARK    3  A    between atoms: C6_8  and  N1_9 
REMARK    4  A    between atoms: N2_11  and  O1_12 
REMARK    5  A    between atoms: O1_12  and  N3_13 
REMARK    6  A    between atoms: N6_19  and  C11_20 
ROOT
HETATM    1  C4  UNL     1      25.629   2.757  50.140  1.00  0.00     0.112 C 
HETATM    2  C5  UNL     1      26.576   2.713  51.249  1.00  0.00     0.021 C 
HETATM    3  C6  UNL     1      26.711   2.272  52.477  1.00  0.00     0.073 C 
HETATM    4  C7  UNL     1      25.863   1.541  53.376  1.00  0.00     0.206 C 
HETATM    5  N2  UNL     1      26.405   1.128  54.462  1.00  0.00    -0.091 NA
HETATM    6  N4  UNL     1      24.506   1.146  53.350  1.00  0.00    -0.205 NA
HETATM    7  C8  UNL     1      23.575   1.222  52.461  1.00  0.00     0.162 A 
HETATM    8  C9  UNL     1      23.457   1.693  51.189  1.00  0.00     0.101 A 
HETATM    9  N5  UNL     1      22.189   1.472  50.793  1.00  0.00    -0.240 NA
HETATM   10  C10 UNL     1      21.512   0.873  51.792  1.00  0.00     0.211 A 
HETATM   11  N6  UNL     1      22.377   0.723  52.820  1.00  0.00    -0.325 N 
HETATM   12  C13 UNL     1      24.285   2.278  50.338  1.00  0.00     0.024 C 
ENDROOT
BRANCH   1  13
HETATM   13  C3  UNL     1      25.669   4.176  49.591  1.00  0.00     0.271 C 
HETATM   14  F1  UNL     1      24.662   4.357  48.648  1.00  0.00    -0.201 F 
HETATM   15  F2  UNL     1      25.369   5.022  50.650  1.00  0.00    -0.201 F 
BRANCH  13  16
HETATM   16  C2  UNL     1      26.997   4.504  49.052  1.00  0.00     0.041 C 
HETATM   17  C1  UNL     1      26.985   5.773  48.655  1.00  0.00     0.013 C 
ENDBRANCH  13  16
ENDBRANCH   1  13
BRANCH   3  18
HETATM   18  N1  UNL     1      27.975   2.579  53.056  1.00  0.00    -0.396 N 
HETATM   19  H6  UNL     1      28.732   3.324  52.996  1.00  0.00     0.156 HD
HETATM   20  H7  UNL     1      28.282   1.856  53.773  1.00  0.00     0.156 HD
ENDBRANCH   3  18
BRANCH   5  21
HETATM   21  O1  UNL     1      27.712   1.347  54.789  1.00  0.00    -0.161 OA
BRANCH  21  22
HETATM   22  N3  UNL     1      28.592   0.368  55.159  1.00  0.00    -0.187 NA
HETATM   23  H8  UNL     1      28.737   0.332  56.175  1.00  0.00     0.153 HD
HETATM   24  H9  UNL     1      29.467   0.354  54.599  1.00  0.00     0.153 HD
ENDBRANCH  21  22
ENDBRANCH   5  21
BRANCH  11  25
HETATM   25  C11 UNL     1      22.102   0.122  54.125  1.00  0.00     0.127 C 
HETATM   26  C12 UNL     1      21.449  -1.215  54.012  1.00  0.00     0.027 C 
ENDBRANCH  11  25
TORSDOF 6
ENDMDL
MODEL 6
REMARK VINA RESULT:      -6.9      5.823      8.304
REMARK  6 active torsions:
REMARK  status: ('A' for Active; 'I' for Inactive)
REMARK    1  A    between atoms: C2_2  and  C3_3 
REMARK    2  A    between atoms: C3_3  and  C4_6 
REMARK    3  A    between atoms: C6_8  and  N1_9 
REMARK    4  A    between atoms: N2_11  and  O1_12 
REMARK    5  A    between atoms: O1_12  and  N3_13 
REMARK    6  A    between atoms: N6_19  and  C11_20 
ROOT
HETATM    1  C4  UNL     1      27.124   6.280  48.283  1.00  0.00     0.112 C 
HETATM    2  C5  UNL     1      26.899   7.663  48.687  1.00  0.00     0.021 C 
HETATM    3  C6  UNL     1      27.537   8.775  48.966  1.00  0.00     0.073 C 
HETATM    4  C7  UNL     1      28.922   9.155  48.994  1.00  0.00     0.206 C 
HETATM    5  N2  UNL     1      29.167  10.403  49.150  1.00  0.00    -0.091 NA
HETATM    6  N4  UNL     1      30.140   8.447  48.884  1.00  0.00    -0.205 NA
HETATM    7  C8  UNL     1      30.434   7.219  48.622  1.00  0.00     0.162 A 
HETATM    8  C9  UNL     1      29.751   6.076  48.341  1.00  0.00     0.101 A 
HETATM    9  N5  UNL     1      30.660   5.098  48.159  1.00  0.00    -0.240 NA
HETATM   10  C10 UNL     1      31.896   5.607  48.321  1.00  0.00     0.211 A 
HETATM   11  N6  UNL     1      31.747   6.920  48.607  1.00  0.00    -0.325 N 
HETATM   12  C13 UNL     1      28.469   5.769  48.223  1.00  0.00     0.024 C 
ENDROOT
BRANCH   1  13
HETATM   13  C3  UNL     1      26.212   5.422  49.147  1.00  0.00     0.271 C 
HETATM   14  F1  UNL     1      25.916   6.079  50.338  1.00  0.00    -0.201 F 
HETATM   15  F2  UNL     1      25.011   5.299  48.461  1.00  0.00    -0.201 F 
BRANCH  13  16
HETATM   16  C2  UNL     1      26.791   4.091  49.380  1.00  0.00     0.041 C 
HETATM   17  C1  UNL     1      25.845   3.306  49.887  1.00  0.00     0.013 C 
ENDBRANCH  13  16
ENDBRANCH   1  13
BRANCH   3  18
HETATM   18  N1  UNL     1      26.674   9.851  49.320  1.00  0.00    -0.396 N 
HETATM   19  H6  UNL     1      26.179  10.674  48.863  1.00  0.00     0.156 HD
HETATM   20  H7  UNL     1      26.436   9.859  50.357  1.00  0.00     0.156 HD
ENDBRANCH   3  18
BRANCH   5  21
HETATM   21  O1  UNL     1      28.200  11.356  49.287  1.00  0.00    -0.161 OA
BRANCH  21  22
HETATM   22  N3  UNL     1      28.438  12.657  49.634  1.00  0.00    -0.187 NA
HETATM   23  H8  UNL     1      28.997  12.740  50.492  1.00  0.00     0.153 HD
HETATM   24  H9  UNL     1      27.593  13.261  49.611  1.00  0.00     0.153 HD
ENDBRANCH  21  22
ENDBRANCH   5  21
BRANCH  11  25
HETATM   25  C11 UNL     1      32.809   7.893  48.866  1.00  0.00     0.127 C 
HETATM   26  C12 UNL     1      34.157   7.382  48.483  1.00  0.00     0.027 C 
ENDBRANCH  11  25
TORSDOF 6
ENDMDL
MODEL 7
REMARK VINA RESULT:      -6.8      3.843      5.497
REMARK  6 active torsions:
REMARK  status: ('A' for Active; 'I' for Inactive)
REMARK    1  A    between atoms: C2_2  and  C3_3 
REMARK    2  A    between atoms: C3_3  and  C4_6 
REMARK    3  A    between atoms: C6_8  and  N1_9 
REMARK    4  A    between atoms: N2_11  and  O1_12 
REMARK    5  A    between atoms: O1_12  and  N3_13 
REMARK    6  A    between atoms: N6_19  and  C11_20 
ROOT
HETATM    1  C4  UNL     1      24.884   0.150  52.878  1.00  0.00     0.112 C 
HETATM    2  C5  UNL     1      23.738  -0.567  53.427  1.00  0.00     0.021 C 
HETATM    3  C6  UNL     1      22.435  -0.489  53.555  1.00  0.00     0.073 C 
HETATM    4  C7  UNL     1      21.445   0.470  53.153  1.00  0.00     0.206 C 
HETATM    5  N2  UNL     1      20.221   0.124  53.304  1.00  0.00    -0.091 NA
HETATM    6  N4  UNL     1      21.500   1.770  52.602  1.00  0.00    -0.205 NA
HETATM    7  C8  UNL     1      22.462   2.516  52.175  1.00  0.00     0.162 A 
HETATM    8  C9  UNL     1      23.814   2.415  52.058  1.00  0.00     0.101 A 
HETATM    9  N5  UNL     1      24.259   3.568  51.521  1.00  0.00    -0.240 NA
HETATM   10  C10 UNL     1      23.213   4.387  51.303  1.00  0.00     0.211 A 
HETATM   11  N6  UNL     1      22.105   3.728  51.710  1.00  0.00    -0.325 N 
HETATM   12  C13 UNL     1      24.701   1.475  52.346  1.00  0.00     0.024 C 
ENDROOT
BRANCH   1  13
HETATM   13  C3  UNL     1      25.978   0.091  53.934  1.00  0.00     0.271 C 
HETATM   14  F1  UNL     1      26.090   1.318  54.584  1.00  0.00    -0.201 F 
HETATM   15  F2  UNL     1      25.560  -0.821  54.893  1.00  0.00    -0.201 F 
BRANCH  13  16
HETATM   16  C2  UNL     1      27.257  -0.346  53.356  1.00  0.00     0.041 C 
HETATM   17  C1  UNL     1      27.066  -1.516  52.754  1.00  0.00     0.013 C 
ENDBRANCH  13  16
ENDBRANCH   1  13
BRANCH   3  18
HETATM   18  N1  UNL     1      21.865  -1.597  54.244  1.00  0.00    -0.396 N 
HETATM   19  H6  UNL     1      21.617  -2.616  54.071  1.00  0.00     0.156 HD
HETATM   20  H7  UNL     1      21.593  -1.359  55.245  1.00  0.00     0.156 HD
ENDBRANCH   3  18
BRANCH   5  21
HETATM   21  O1  UNL     1      19.830  -1.081  53.815  1.00  0.00    -0.161 OA
BRANCH  21  22
HETATM   22  N3  UNL     1      18.551  -1.560  53.774  1.00  0.00    -0.187 NA
HETATM   23  H8  UNL     1      18.455  -2.379  53.161  1.00  0.00     0.153 HD
HETATM   24  H9  UNL     1      17.830  -0.827  53.625  1.00  0.00     0.153 HD
ENDBRANCH  21  22
ENDBRANCH   5  21
BRANCH  11  25
HETATM   25  C11 UNL     1      20.725   4.213  51.671  1.00  0.00     0.127 C 
HETATM   26  C12 UNL     1      20.456   5.075  50.483  1.00  0.00     0.027 C 
ENDBRANCH  11  25
TORSDOF 6
ENDMDL
MODEL 8
REMARK VINA RESULT:      -6.7      1.808      2.197
REMARK  6 active torsions:
REMARK  status: ('A' for Active; 'I' for Inactive)
REMARK    1  A    between atoms: C2_2  and  C3_3 
REMARK    2  A    between atoms: C3_3  and  C4_6 
REMARK    3  A    between atoms: C6_8  and  N1_9 
REMARK    4  A    between atoms: N2_11  and  O1_12 
REMARK    5  A    between atoms: O1_12  and  N3_13 
REMARK    6  A    between atoms: N6_19  and  C11_20 
ROOT
HETATM    1  C4  UNL     1      22.302   1.197  52.688  1.00  0.00     0.112 C 
HETATM    2  C5  UNL     1      23.402   0.386  53.199  1.00  0.00     0.021 C 
HETATM    3  C6  UNL     1      24.707   0.265  53.149  1.00  0.00     0.073 C 
HETATM    4  C7  UNL     1      25.754   0.981  52.474  1.00  0.00     0.206 C 
HETATM    5  N2  UNL     1      26.955   0.678  52.802  1.00  0.00    -0.091 NA
HETATM    6  N4  UNL     1      25.778   1.991  51.486  1.00  0.00    -0.205 NA
HETATM    7  C8  UNL     1      24.862   2.695  50.911  1.00  0.00     0.162 A 
HETATM    8  C9  UNL     1      23.507   2.799  50.976  1.00  0.00     0.101 A 
HETATM    9  N5  UNL     1      23.133   3.748  50.097  1.00  0.00    -0.240 NA
HETATM   10  C10 UNL     1      24.227   4.239  49.484  1.00  0.00     0.211 A 
HETATM   11  N6  UNL     1      25.292   3.582  49.993  1.00  0.00    -0.325 N 
HETATM   12  C13 UNL     1      22.565   2.193  51.683  1.00  0.00     0.024 C 
ENDROOT
BRANCH   1  13
HETATM   13  C3  UNL     1      21.204   0.227  52.276  1.00  0.00     0.271 C 
HETATM   14  F1  UNL     1      21.503  -0.347  51.043  1.00  0.00    -0.201 F 
HETATM   15  F2  UNL     1      21.217  -0.808  53.201  1.00  0.00    -0.201 F 
BRANCH  13  16
HETATM   16  C2  UNL     1      19.886   0.879  52.276  1.00  0.00     0.041 C 
HETATM   17  C1  UNL     1      18.952  -0.065  52.210  1.00  0.00     0.013 C 
ENDBRANCH  13  16
ENDBRANCH   1  13
BRANCH   3  18
HETATM   18  N1  UNL     1      25.208  -0.811  53.934  1.00  0.00    -0.396 N 
HETATM   19  H6  UNL     1      25.625  -0.984  54.898  1.00  0.00     0.156 HD
HETATM   20  H7  UNL     1      25.166  -1.744  53.423  1.00  0.00     0.156 HD
ENDBRANCH   3  18
BRANCH   5  21
HETATM   21  O1  UNL     1      27.272  -0.267  53.735  1.00  0.00    -0.161 OA
BRANCH  21  22
HETATM   22  N3  UNL     1      28.313  -1.146  53.624  1.00  0.00    -0.187 NA
HETATM   23  H8  UNL     1      29.228  -0.682  53.682  1.00  0.00     0.153 HD
HETATM   24  H9  UNL     1      28.219  -1.814  52.834  1.00  0.00     0.153 HD
ENDBRANCH  21  22
ENDBRANCH   5  21
BRANCH  11  25
HETATM   25  C11 UNL     1      26.699   3.770  49.637  1.00  0.00     0.127 C 
HETATM   26  C12 UNL     1      26.942   5.064  48.936  1.00  0.00     0.027 C 
ENDBRANCH  11  25
TORSDOF 6
ENDMDL
MODEL 9
REMARK VINA RESULT:      -6.4      3.073      5.665
REMARK  6 active torsions:
REMARK  status: ('A' for Active; 'I' for Inactive)
REMARK    1  A    between atoms: C2_2  and  C3_3 
REMARK    2  A    between atoms: C3_3  and  C4_6 
REMARK    3  A    between atoms: C6_8  and  N1_9 
REMARK    4  A    between atoms: N2_11  and  O1_12 
REMARK    5  A    between atoms: O1_12  and  N3_13 
REMARK    6  A    between atoms: N6_19  and  C11_20 
ROOT
HETATM    1  C4  UNL     1      25.695   3.678  49.283  1.00  0.00     0.112 C 
HETATM    2  C5  UNL     1      26.391   3.139  50.445  1.00  0.00     0.021 C 
HETATM    3  C6  UNL     1      26.191   2.446  51.542  1.00  0.00     0.073 C 
HETATM    4  C7  UNL     1      25.038   1.841  52.147  1.00  0.00     0.206 C 
HETATM    5  N2  UNL     1      25.255   1.082  53.156  1.00  0.00    -0.091 NA
HETATM    6  N4  UNL     1      23.650   1.882  51.882  1.00  0.00    -0.205 NA
HETATM    7  C8  UNL     1      22.940   2.404  50.940  1.00  0.00     0.162 A 
HETATM    8  C9  UNL     1      23.172   3.127  49.810  1.00  0.00     0.101 A 
HETATM    9  N5  UNL     1      21.977   3.375  49.239  1.00  0.00    -0.240 NA
HETATM   10  C10 UNL     1      21.005   2.823  49.989  1.00  0.00     0.211 A 
HETATM   11  N6  UNL     1      21.609   2.225  51.039  1.00  0.00    -0.325 N 
HETATM   12  C13 UNL     1      24.259   3.593  49.216  1.00  0.00     0.024 C 
ENDROOT
BRANCH   1  13
HETATM   13  C3  UNL     1      26.205   5.098  49.092  1.00  0.00     0.271 C 
HETATM   14  F1  UNL     1      25.395   5.787  48.193  1.00  0.00    -0.201 F 
HETATM   15  F2  UNL     1      26.065   5.741  50.314  1.00  0.00    -0.201 F 
BRANCH  13  16
HETATM   16  C2  UNL     1      27.617   5.109  48.682  1.00  0.00     0.041 C 
HETATM   17  C1  UNL     1      27.899   6.309  48.183  1.00  0.00     0.013 C 
ENDBRANCH  13  16
ENDBRANCH   1  13
BRANCH   3  18
HETATM   18  N1  UNL     1      27.372   2.245  52.310  1.00  0.00    -0.396 N 
HETATM   19  H6  UNL     1      27.720   2.371  53.308  1.00  0.00     0.156 HD
HETATM   20  H7  UNL     1      28.173   1.846  51.732  1.00  0.00     0.156 HD
ENDBRANCH   3  18
BRANCH   5  21
HETATM   21  O1  UNL     1      26.498   0.833  53.665  1.00  0.00    -0.161 OA
BRANCH  21  22
HETATM   22  N3  UNL     1      26.788   0.765  54.999  1.00  0.00    -0.187 NA
HETATM   23  H8  UNL     1      26.126   0.175  55.517  1.00  0.00     0.153 HD
HETATM   24  H9  UNL     1      26.974   1.688  55.438  1.00  0.00     0.153 HD
ENDBRANCH  21  22
ENDBRANCH   5  21
BRANCH  11  25
HETATM   25  C11 UNL     1      20.964   1.491  52.128  1.00  0.00     0.127 C 
HETATM   26  C12 UNL     1      20.552   0.115  51.724  1.00  0.00     0.027 C 
ENDBRANCH  11  25
TORSDOF 6
ENDMDL
