MODEL 1
REMARK VINA RESULT:      -8.0      0.000      0.000
REMARK  7 active torsions:
REMARK  status: ('A' for Active; 'I' for Inactive)
REMARK    1  A    between atoms: O1_2  and  C2_3 
REMARK    2  A    between atoms: C4_5  and  O2_6 
REMARK    3  A    between atoms: C7_9  and  C8_10 
REMARK    4  A    between atoms: C9_13  and  S1_14 
REMARK    5  A    between atoms: S1_14  and  C10_15 
REMARK    6  A    between atoms: C10_15  and  C11_16 
REMARK    7  A    between atoms: C16_22  and  N4_23 
ROOT
HETATM    1  C8  UNL     1      22.475   1.148  51.580  1.00  0.00     0.203 A 
HETATM    2  N1  UNL     1      21.962   1.199  50.354  1.00  0.00    -0.120 NA
HETATM    3  N2  UNL     1      22.641   2.105  49.674  1.00  0.00    -0.114 NA
HETATM    4  C9  UNL     1      23.594   2.639  50.455  1.00  0.00     0.231 A 
HETATM    5  O3  UNL     1      23.457   2.025  51.612  1.00  0.00    -0.263 OA
ENDROOT
BRANCH   4   6
HETATM    6  S1  UNL     1      24.953   3.829  50.556  1.00  0.00    -0.079 SA
BRANCH   6   7
HETATM    7  C10 UNL     1      26.528   2.954  50.403  1.00  0.00     0.111 C 
BRANCH   7   8
HETATM    8  C11 UNL     1      27.055   2.410  51.657  1.00  0.00    -0.003 C 
HETATM    9  C12 UNL     1      27.069   1.324  52.376  1.00  0.00    -0.009 C 
HETATM   10  C13 UNL     1      26.399   0.083  52.031  1.00  0.00     0.047 C 
HETATM   11  C16 UNL     1      27.808   1.292  53.639  1.00  0.00     0.053 C 
HETATM   12  C14 UNL     1      26.864  -1.009  52.589  1.00  0.00     0.086 C 
HETATM   13  N3  UNL     1      27.101  -0.965  53.861  1.00  0.00    -0.257 NA
HETATM   14  C15 UNL     1      27.813   0.182  54.341  1.00  0.00     0.147 C 
BRANCH  11  15
HETATM   15  N4  UNL     1      28.515   2.454  54.103  1.00  0.00    -0.397 N 
HETATM   16  H14 UNL     1      28.935   2.827  54.994  1.00  0.00     0.156 HD
HETATM   17  H15 UNL     1      28.705   3.193  53.389  1.00  0.00     0.156 HD
ENDBRANCH  11  15
ENDBRANCH   7   8
ENDBRANCH   6   7
ENDBRANCH   4   6
BRANCH   1  18
HETATM   18  C7  UNL     1      21.970   0.245  52.635  1.00  0.00     0.024 A 
HETATM   19  C6  UNL     1      22.769  -0.259  53.612  1.00  0.00     0.052 A 
HETATM   20  C4  UNL     1      22.172  -1.089  54.535  1.00  0.00     0.071 A 
HETATM   21  C3  UNL     1      20.820  -1.413  54.491  1.00  0.00     0.073 A 
HETATM   22  C2  UNL     1      20.010  -0.886  53.478  1.00  0.00     0.071 A 
HETATM   23  C17 UNL     1      20.626  -0.057  52.565  1.00  0.00     0.052 A 
BRANCH  20  24
HETATM   24  O2  UNL     1      22.877  -1.667  55.579  1.00  0.00    -0.356 OA
HETATM   25  C5  UNL     1      24.222  -1.379  55.899  1.00  0.00     0.210 C 
ENDBRANCH  20  24
BRANCH  22  26
HETATM   26  O1  UNL     1      18.671  -1.247  53.491  1.00  0.00    -0.356 OA
HETATM   27  C1  UNL     1      17.711  -0.847  52.551  1.00  0.00     0.210 C 
ENDBRANCH  22  26
ENDBRANCH   1  18
TORSDOF 7
ENDMDL
MODEL 2
REMARK VINA RESULT:      -8.0      0.489      2.570
REMARK  7 active torsions:
REMARK  status: ('A' for Active; 'I' for Inactive)
REMARK    1  A    between atoms: O1_2  and  C2_3 
REMARK    2  A    between atoms: C4_5  and  O2_6 
REMARK    3  A    between atoms: C7_9  and  C8_10 
REMARK    4  A    between atoms: C9_13  and  S1_14 
REMARK    5  A    between atoms: S1_14  and  C10_15 
REMARK    6  A    between atoms: C10_15  and  C11_16 
REMARK    7  A    between atoms: C16_22  and  N4_23 
ROOT
HETATM    1  C8  UNL     1      22.176   1.173  51.359  1.00  0.00     0.203 A 
HETATM    2  N1  UNL     1      21.845   1.216  50.071  1.00  0.00    -0.120 NA
HETATM    3  N2  UNL     1      22.642   2.089  49.482  1.00  0.00    -0.114 NA
HETATM    4  C9  UNL     1      23.488   2.611  50.385  1.00  0.00     0.231 A 
HETATM    5  O3  UNL     1      23.168   2.024  51.518  1.00  0.00    -0.263 OA
ENDROOT
BRANCH   4   6
HETATM    6  S1  UNL     1      24.854   3.765  50.664  1.00  0.00    -0.079 SA
BRANCH   6   7
HETATM    7  C10 UNL     1      26.425   2.895  50.461  1.00  0.00     0.111 C 
BRANCH   7   8
HETATM    8  C11 UNL     1      26.993   2.353  51.699  1.00  0.00    -0.003 C 
HETATM    9  C12 UNL     1      27.016   1.274  52.429  1.00  0.00    -0.009 C 
HETATM   10  C13 UNL     1      26.311   0.043  52.125  1.00  0.00     0.047 C 
HETATM   11  C16 UNL     1      27.805   1.242  53.661  1.00  0.00     0.053 C 
HETATM   12  C14 UNL     1      26.777  -1.052  52.675  1.00  0.00     0.086 C 
HETATM   13  N3  UNL     1      27.067  -1.000  53.936  1.00  0.00    -0.257 NA
HETATM   14  C15 UNL     1      27.818   0.138  54.375  1.00  0.00     0.147 C 
BRANCH  11  15
HETATM   15  N4  UNL     1      28.552   2.394  54.083  1.00  0.00    -0.397 N 
HETATM   16  H14 UNL     1      28.858   2.861  54.976  1.00  0.00     0.156 HD
HETATM   17  H15 UNL     1      28.939   2.996  53.322  1.00  0.00     0.156 HD
ENDBRANCH  11  15
ENDBRANCH   7   8
ENDBRANCH   6   7
ENDBRANCH   4   6
BRANCH   1  18
HETATM   18  C7  UNL     1      21.498   0.304  52.343  1.00  0.00     0.024 A 
HETATM   19  C6  UNL     1      20.162   0.059  52.305  1.00  0.00     0.052 A 
HETATM   20  C4  UNL     1      19.656  -0.770  53.282  1.00  0.00     0.071 A 
HETATM   21  C3  UNL     1      20.451  -1.342  54.270  1.00  0.00     0.073 A 
HETATM   22  C2  UNL     1      21.826  -1.079  54.296  1.00  0.00     0.071 A 
HETATM   23  C17 UNL     1      22.313  -0.247  53.310  1.00  0.00     0.052 A 
BRANCH  20  24
HETATM   24  O2  UNL     1      18.311  -1.098  53.353  1.00  0.00    -0.356 OA
HETATM   25  C5  UNL     1      17.810  -2.393  53.605  1.00  0.00     0.210 C 
ENDBRANCH  20  24
BRANCH  22  26
HETATM   26  O1  UNL     1      22.563  -1.678  55.306  1.00  0.00    -0.356 OA
HETATM   27  C1  UNL     1      23.879  -1.347  55.660  1.00  0.00     0.210 C 
ENDBRANCH  22  26
ENDBRANCH   1  18
TORSDOF 7
ENDMDL
MODEL 3
REMARK VINA RESULT:      -7.4      3.932      8.017
REMARK  7 active torsions:
REMARK  status: ('A' for Active; 'I' for Inactive)
REMARK    1  A    between atoms: O1_2  and  C2_3 
REMARK    2  A    between atoms: C4_5  and  O2_6 
REMARK    3  A    between atoms: C7_9  and  C8_10 
REMARK    4  A    between atoms: C9_13  and  S1_14 
REMARK    5  A    between atoms: S1_14  and  C10_15 
REMARK    6  A    between atoms: C10_15  and  C11_16 
REMARK    7  A    between atoms: C16_22  and  N4_23 
ROOT
HETATM    1  C8  UNL     1      25.315   4.848  49.305  1.00  0.00     0.203 A 
HETATM    2  N1  UNL     1      24.095   5.129  48.856  1.00  0.00    -0.120 NA
HETATM    3  N2  UNL     1      23.262   4.250  49.385  1.00  0.00    -0.114 NA
HETATM    4  C9  UNL     1      23.940   3.402  50.175  1.00  0.00     0.231 A 
HETATM    5  O3  UNL     1      25.191   3.803  50.098  1.00  0.00    -0.263 OA
ENDROOT
BRANCH   4   6
HETATM    6  S1  UNL     1      23.830   1.969  51.275  1.00  0.00    -0.079 SA
BRANCH   6   7
HETATM    7  C10 UNL     1      24.380   2.440  52.931  1.00  0.00     0.111 C 
BRANCH   7   8
HETATM    8  C11 UNL     1      25.752   2.044  53.260  1.00  0.00    -0.003 C 
HETATM    9  C12 UNL     1      26.514   0.995  53.379  1.00  0.00    -0.009 C 
HETATM   10  C13 UNL     1      26.090  -0.376  53.164  1.00  0.00     0.047 C 
HETATM   11  C16 UNL     1      27.922   1.151  53.748  1.00  0.00     0.053 C 
HETATM   12  C14 UNL     1      27.031  -1.244  52.877  1.00  0.00     0.086 C 
HETATM   13  N3  UNL     1      28.102  -1.214  53.604  1.00  0.00    -0.257 NA
HETATM   14  C15 UNL     1      28.671   0.077  53.853  1.00  0.00     0.147 C 
BRANCH  11  15
HETATM   15  N4  UNL     1      28.474   2.455  53.993  1.00  0.00    -0.397 N 
HETATM   16  H14 UNL     1      29.143   3.133  53.543  1.00  0.00     0.156 HD
HETATM   17  H15 UNL     1      28.157   2.933  54.866  1.00  0.00     0.156 HD
ENDBRANCH  11  15
ENDBRANCH   7   8
ENDBRANCH   6   7
ENDBRANCH   4   6
BRANCH   1  18
HETATM   18  C7  UNL     1      26.517   5.620  48.928  1.00  0.00     0.024 A 
HETATM   19  C6  UNL     1      26.528   6.978  48.875  1.00  0.00     0.052 A 
HETATM   20  C4  UNL     1      27.715   7.574  48.509  1.00  0.00     0.071 A 
HETATM   21  C3  UNL     1      28.860   6.846  48.203  1.00  0.00     0.073 A 
HETATM   22  C2  UNL     1      28.832   5.448  48.261  1.00  0.00     0.071 A 
HETATM   23  C17 UNL     1      27.636   4.870  48.630  1.00  0.00     0.052 A 
BRANCH  20  24
HETATM   24  O2  UNL     1      27.856   8.950  48.418  1.00  0.00    -0.356 OA
HETATM   25  C5  UNL     1      28.615   9.742  49.305  1.00  0.00     0.210 C 
ENDBRANCH  20  24
BRANCH  22  26
HETATM   26  O1  UNL     1      30.006   4.781  47.944  1.00  0.00    -0.356 OA
HETATM   27  C1  UNL     1      31.247   5.386  47.706  1.00  0.00     0.210 C 
ENDBRANCH  22  26
ENDBRANCH   1  18
TORSDOF 7
ENDMDL
MODEL 4
REMARK VINA RESULT:      -7.3      4.119      8.086
REMARK  7 active torsions:
REMARK  status: ('A' for Active; 'I' for Inactive)
REMARK    1  A    between atoms: O1_2  and  C2_3 
REMARK    2  A    between atoms: C4_5  and  O2_6 
REMARK    3  A    between atoms: C7_9  and  C8_10 
REMARK    4  A    between atoms: C9_13  and  S1_14 
REMARK    5  A    between atoms: S1_14  and  C10_15 
REMARK    6  A    between atoms: C10_15  and  C11_16 
REMARK    7  A    between atoms: C16_22  and  N4_23 
ROOT
HETATM    1  C8  UNL     1      25.439   5.234  49.270  1.00  0.00     0.203 A 
HETATM    2  N1  UNL     1      24.293   5.494  48.646  1.00  0.00    -0.120 NA
HETATM    3  N2  UNL     1      23.328   4.887  49.312  1.00  0.00    -0.114 NA
HETATM    4  C9  UNL     1      23.846   4.235  50.366  1.00  0.00     0.231 A 
HETATM    5  O3  UNL     1      25.138   4.473  50.302  1.00  0.00    -0.263 OA
ENDROOT
BRANCH   4   6
HETATM    6  S1  UNL     1      23.491   3.189  51.800  1.00  0.00    -0.079 SA
BRANCH   6   7
HETATM    7  C10 UNL     1      24.411   1.640  51.654  1.00  0.00     0.111 C 
BRANCH   7   8
HETATM    8  C11 UNL     1      25.629   1.568  52.467  1.00  0.00    -0.003 C 
HETATM    9  C12 UNL     1      26.492   0.718  52.946  1.00  0.00    -0.009 C 
HETATM   10  C13 UNL     1      26.448  -0.719  52.749  1.00  0.00     0.047 C 
HETATM   11  C16 UNL     1      27.619   1.193  53.748  1.00  0.00     0.053 C 
HETATM   12  C14 UNL     1      27.580  -1.366  52.890  1.00  0.00     0.086 C 
HETATM   13  N3  UNL     1      28.299  -1.076  53.927  1.00  0.00    -0.257 NA
HETATM   14  C15 UNL     1      28.480   0.316  54.213  1.00  0.00     0.147 C 
BRANCH  11  15
HETATM   15  N4  UNL     1      27.783   2.594  54.024  1.00  0.00    -0.397 N 
HETATM   16  H14 UNL     1      27.201   3.420  54.320  1.00  0.00     0.156 HD
HETATM   17  H15 UNL     1      28.750   2.974  53.918  1.00  0.00     0.156 HD
ENDBRANCH  11  15
ENDBRANCH   7   8
ENDBRANCH   6   7
ENDBRANCH   4   6
BRANCH   1  18
HETATM   18  C7  UNL     1      26.747   5.746  48.813  1.00  0.00     0.024 A 
HETATM   19  C6  UNL     1      27.815   4.935  48.595  1.00  0.00     0.052 A 
HETATM   20  C4  UNL     1      28.977   5.541  48.170  1.00  0.00     0.071 A 
HETATM   21  C3  UNL     1      29.080   6.913  47.966  1.00  0.00     0.073 A 
HETATM   22  C2  UNL     1      27.970   7.735  48.196  1.00  0.00     0.071 A 
HETATM   23  C17 UNL     1      26.817   7.110  48.620  1.00  0.00     0.052 A 
BRANCH  20  24
HETATM   24  O2  UNL     1      30.136   4.825  47.913  1.00  0.00    -0.356 OA
HETATM   25  C5  UNL     1      31.425   5.390  47.809  1.00  0.00     0.210 C 
ENDBRANCH  20  24
BRANCH  22  26
HETATM   26  O1  UNL     1      28.137   9.094  47.974  1.00  0.00    -0.356 OA
HETATM   27  C1  UNL     1      28.690   9.669  46.822  1.00  0.00     0.210 C 
ENDBRANCH  22  26
ENDBRANCH   1  18
TORSDOF 7
ENDMDL
MODEL 5
REMARK VINA RESULT:      -7.3      3.702      7.801
REMARK  7 active torsions:
REMARK  status: ('A' for Active; 'I' for Inactive)
REMARK    1  A    between atoms: O1_2  and  C2_3 
REMARK    2  A    between atoms: C4_5  and  O2_6 
REMARK    3  A    between atoms: C7_9  and  C8_10 
REMARK    4  A    between atoms: C9_13  and  S1_14 
REMARK    5  A    between atoms: S1_14  and  C10_15 
REMARK    6  A    between atoms: C10_15  and  C11_16 
REMARK    7  A    between atoms: C16_22  and  N4_23 
ROOT
HETATM    1  C8  UNL     1      25.223   3.864  50.085  1.00  0.00     0.203 A 
HETATM    2  N1  UNL     1      24.013   3.469  49.697  1.00  0.00    -0.120 NA
HETATM    3  N2  UNL     1      23.584   2.577  50.570  1.00  0.00    -0.114 NA
HETATM    4  C9  UNL     1      24.512   2.393  51.523  1.00  0.00     0.231 A 
HETATM    5  O3  UNL     1      25.497   3.198  51.188  1.00  0.00    -0.263 OA
ENDROOT
BRANCH   4   6
HETATM    6  S1  UNL     1      24.941   1.507  53.043  1.00  0.00    -0.079 SA
BRANCH   6   7
HETATM    7  C10 UNL     1      24.990  -0.268  52.708  1.00  0.00     0.111 C 
BRANCH   7   8
HETATM    8  C11 UNL     1      26.305  -0.892  52.878  1.00  0.00    -0.003 C 
HETATM    9  C12 UNL     1      27.555  -0.601  53.100  1.00  0.00    -0.009 C 
HETATM   10  C13 UNL     1      28.084   0.739  53.274  1.00  0.00     0.047 C 
HETATM   11  C16 UNL     1      28.549  -1.671  53.199  1.00  0.00     0.053 C 
HETATM   12  C14 UNL     1      29.220   0.843  53.921  1.00  0.00     0.086 C 
HETATM   13  N3  UNL     1      30.167   0.026  53.584  1.00  0.00    -0.257 NA
HETATM   14  C15 UNL     1      29.802  -1.351  53.432  1.00  0.00     0.147 C 
BRANCH  11  15
HETATM   15  N4  UNL     1      28.162  -3.046  53.044  1.00  0.00    -0.397 N 
HETATM   16  H14 UNL     1      28.604  -4.002  53.043  1.00  0.00     0.156 HD
HETATM   17  H15 UNL     1      27.146  -3.222  52.879  1.00  0.00     0.156 HD
ENDBRANCH  11  15
ENDBRANCH   7   8
ENDBRANCH   6   7
ENDBRANCH   4   6
BRANCH   1  18
HETATM   18  C7  UNL     1      26.026   4.862  49.351  1.00  0.00     0.024 A 
HETATM   19  C6  UNL     1      25.523   6.061  48.957  1.00  0.00     0.052 A 
HETATM   20  C4  UNL     1      26.379   6.901  48.280  1.00  0.00     0.071 A 
HETATM   21  C3  UNL     1      27.699   6.564  47.999  1.00  0.00     0.073 A 
HETATM   22  C2  UNL     1      28.203   5.325  48.411  1.00  0.00     0.071 A 
HETATM   23  C17 UNL     1      27.331   4.498  49.087  1.00  0.00     0.052 A 
BRANCH  20  24
HETATM   24  O2  UNL     1      25.987   8.151  47.825  1.00  0.00    -0.356 OA
HETATM   25  C5  UNL     1      26.665   9.358  48.101  1.00  0.00     0.210 C 
ENDBRANCH  20  24
BRANCH  22  26
HETATM   26  O1  UNL     1      29.526   5.048  48.101  1.00  0.00    -0.356 OA
HETATM   27  C1  UNL     1      30.630   5.826  48.476  1.00  0.00     0.210 C 
ENDBRANCH  22  26
ENDBRANCH   1  18
TORSDOF 7
ENDMDL
MODEL 6
REMARK VINA RESULT:      -7.3      4.383      6.709
REMARK  7 active torsions:
REMARK  status: ('A' for Active; 'I' for Inactive)
REMARK    1  A    between atoms: O1_2  and  C2_3 
REMARK    2  A    between atoms: C4_5  and  O2_6 
REMARK    3  A    between atoms: C7_9  and  C8_10 
REMARK    4  A    between atoms: C9_13  and  S1_14 
REMARK    5  A    between atoms: S1_14  and  C10_15 
REMARK    6  A    between atoms: C10_15  and  C11_16 
REMARK    7  A    between atoms: C16_22  and  N4_23 
ROOT
HETATM    1  C8  UNL     1      25.737   2.553  51.378  1.00  0.00     0.203 A 
HETATM    2  N1  UNL     1      26.879   2.652  50.704  1.00  0.00    -0.120 NA
HETATM    3  N2  UNL     1      26.795   3.717  49.928  1.00  0.00    -0.114 NA
HETATM    4  C9  UNL     1      25.601   4.309  50.098  1.00  0.00     0.231 A 
HETATM    5  O3  UNL     1      24.986   3.565  50.993  1.00  0.00    -0.263 OA
ENDROOT
BRANCH   4   6
HETATM    6  S1  UNL     1      24.527   5.680  49.607  1.00  0.00    -0.079 SA
BRANCH   6   7
HETATM    7  C10 UNL     1      25.376   6.695  48.376  1.00  0.00     0.111 C 
BRANCH   7   8
HETATM    8  C11 UNL     1      26.437   7.553  48.911  1.00  0.00    -0.003 C 
HETATM    9  C12 UNL     1      27.630   7.998  48.637  1.00  0.00    -0.009 C 
HETATM   10  C13 UNL     1      28.391   7.672  47.444  1.00  0.00     0.047 C 
HETATM   11  C16 UNL     1      28.303   8.908  49.565  1.00  0.00     0.053 C 
HETATM   12  C14 UNL     1      29.332   8.518  47.099  1.00  0.00     0.086 C 
HETATM   13  N3  UNL     1      30.122   8.935  48.036  1.00  0.00    -0.257 NA
HETATM   14  C15 UNL     1      29.503   9.349  49.260  1.00  0.00     0.147 C 
BRANCH  11  15
HETATM   15  N4  UNL     1      27.665   9.311  50.787  1.00  0.00    -0.397 N 
HETATM   16  H14 UNL     1      27.878   9.883  51.646  1.00  0.00     0.156 HD
HETATM   17  H15 UNL     1      26.688   8.969  50.931  1.00  0.00     0.156 HD
ENDBRANCH  11  15
ENDBRANCH   7   8
ENDBRANCH   6   7
ENDBRANCH   4   6
BRANCH   1  18
HETATM   18  C7  UNL     1      25.458   1.476  52.351  1.00  0.00     0.024 A 
HETATM   19  C6  UNL     1      24.236   0.896  52.471  1.00  0.00     0.052 A 
HETATM   20  C4  UNL     1      24.110  -0.097  53.417  1.00  0.00     0.071 A 
HETATM   21  C3  UNL     1      25.168  -0.505  54.224  1.00  0.00     0.073 A 
HETATM   22  C2  UNL     1      26.421   0.103  54.088  1.00  0.00     0.071 A 
HETATM   23  C17 UNL     1      26.526   1.094  53.136  1.00  0.00     0.052 A 
BRANCH  20  24
HETATM   24  O2  UNL     1      22.916  -0.766  53.637  1.00  0.00    -0.356 OA
HETATM   25  C5  UNL     1      22.452  -1.189  54.901  1.00  0.00     0.210 C 
ENDBRANCH  20  24
BRANCH  22  26
HETATM   26  O1  UNL     1      27.434  -0.349  54.921  1.00  0.00    -0.356 OA
HETATM   27  C1  UNL     1      28.779   0.037  54.851  1.00  0.00     0.210 C 
ENDBRANCH  22  26
ENDBRANCH   1  18
TORSDOF 7
ENDMDL
MODEL 7
REMARK VINA RESULT:      -7.2      2.904      6.236
REMARK  7 active torsions:
REMARK  status: ('A' for Active; 'I' for Inactive)
REMARK    1  A    between atoms: O1_2  and  C2_3 
REMARK    2  A    between atoms: C4_5  and  O2_6 
REMARK    3  A    between atoms: C7_9  and  C8_10 
REMARK    4  A    between atoms: C9_13  and  S1_14 
REMARK    5  A    between atoms: S1_14  and  C10_15 
REMARK    6  A    between atoms: C10_15  and  C11_16 
REMARK    7  A    between atoms: C16_22  and  N4_23 
ROOT
HETATM    1  C8  UNL     1      22.675  -0.656  53.924  1.00  0.00     0.203 A 
HETATM    2  N1  UNL     1      22.416  -1.574  54.852  1.00  0.00    -0.120 NA
HETATM    3  N2  UNL     1      21.112  -1.780  54.857  1.00  0.00    -0.114 NA
HETATM    4  C9  UNL     1      20.526  -1.000  53.935  1.00  0.00     0.231 A 
HETATM    5  O3  UNL     1      21.517  -0.329  53.388  1.00  0.00    -0.263 OA
ENDROOT
BRANCH   4   6
HETATM    6  S1  UNL     1      18.964  -0.512  53.161  1.00  0.00    -0.079 SA
BRANCH   6   7
HETATM    7  C10 UNL     1      19.264  -0.060  51.438  1.00  0.00     0.111 C 
BRANCH   7   8
HETATM    8  C11 UNL     1      20.149   1.093  51.248  1.00  0.00    -0.003 C 
HETATM    9  C12 UNL     1      21.031   1.583  50.424  1.00  0.00    -0.009 C 
HETATM   10  C13 UNL     1      21.462   0.953  49.189  1.00  0.00     0.047 C 
HETATM   11  C16 UNL     1      21.664   2.871  50.710  1.00  0.00     0.053 C 
HETATM   12  C14 UNL     1      21.980   1.742  48.278  1.00  0.00     0.086 C 
HETATM   13  N3  UNL     1      22.862   2.602  48.676  1.00  0.00    -0.257 NA
HETATM   14  C15 UNL     1      22.544   3.346  49.858  1.00  0.00     0.147 C 
BRANCH  11  15
HETATM   15  N4  UNL     1      21.330   3.602  51.901  1.00  0.00    -0.397 N 
HETATM   16  H14 UNL     1      21.571   3.605  52.927  1.00  0.00     0.156 HD
HETATM   17  H15 UNL     1      20.647   4.383  51.786  1.00  0.00     0.156 HD
ENDBRANCH  11  15
ENDBRANCH   7   8
ENDBRANCH   6   7
ENDBRANCH   4   6
BRANCH   1  18
HETATM   18  C7  UNL     1      24.035  -0.163  53.626  1.00  0.00     0.024 A 
HETATM   19  C6  UNL     1      25.152  -0.731  54.152  1.00  0.00     0.052 A 
HETATM   20  C4  UNL     1      26.359  -0.175  53.793  1.00  0.00     0.071 A 
HETATM   21  C3  UNL     1      26.460   0.917  52.936  1.00  0.00     0.073 A 
HETATM   22  C2  UNL     1      25.300   1.492  52.403  1.00  0.00     0.071 A 
HETATM   23  C17 UNL     1      24.102   0.920  52.773  1.00  0.00     0.052 A 
BRANCH  20  24
HETATM   24  O2  UNL     1      27.570  -0.662  54.262  1.00  0.00    -0.356 OA
HETATM   25  C5  UNL     1      28.597   0.132  54.815  1.00  0.00     0.210 C 
ENDBRANCH  20  24
BRANCH  22  26
HETATM   26  O1  UNL     1      25.468   2.576  51.555  1.00  0.00    -0.356 OA
HETATM   27  C1  UNL     1      26.517   2.740  50.640  1.00  0.00     0.210 C 
ENDBRANCH  22  26
ENDBRANCH   1  18
TORSDOF 7
ENDMDL
MODEL 8
REMARK VINA RESULT:      -7.0      3.914      7.783
REMARK  7 active torsions:
REMARK  status: ('A' for Active; 'I' for Inactive)
REMARK    1  A    between atoms: O1_2  and  C2_3 
REMARK    2  A    between atoms: C4_5  and  O2_6 
REMARK    3  A    between atoms: C7_9  and  C8_10 
REMARK    4  A    between atoms: C9_13  and  S1_14 
REMARK    5  A    between atoms: S1_14  and  C10_15 
REMARK    6  A    between atoms: C10_15  and  C11_16 
REMARK    7  A    between atoms: C16_22  and  N4_23 
ROOT
HETATM    1  C8  UNL     1      24.434   5.447  50.314  1.00  0.00     0.203 A 
HETATM    2  N1  UNL     1      23.394   6.154  50.747  1.00  0.00    -0.120 NA
HETATM    3  N2  UNL     1      22.675   5.369  51.529  1.00  0.00    -0.114 NA
HETATM    4  C9  UNL     1      23.247   4.157  51.604  1.00  0.00     0.231 A 
HETATM    5  O3  UNL     1      24.319   4.248  50.846  1.00  0.00    -0.263 OA
ENDROOT
BRANCH   4   6
HETATM    6  S1  UNL     1      23.141   2.493  52.308  1.00  0.00    -0.079 SA
BRANCH   6   7
HETATM    7  C10 UNL     1      24.484   1.477  51.650  1.00  0.00     0.111 C 
BRANCH   7   8
HETATM    8  C11 UNL     1      25.707   1.475  52.458  1.00  0.00    -0.003 C 
HETATM    9  C12 UNL     1      26.605   0.672  52.954  1.00  0.00    -0.009 C 
HETATM   10  C13 UNL     1      26.618  -0.771  52.792  1.00  0.00     0.047 C 
HETATM   11  C16 UNL     1      27.715   1.212  53.739  1.00  0.00     0.053 C 
HETATM   12  C14 UNL     1      27.777  -1.367  52.943  1.00  0.00     0.086 C 
HETATM   13  N3  UNL     1      28.487  -1.023  53.970  1.00  0.00    -0.257 NA
HETATM   14  C15 UNL     1      28.612   0.381  54.221  1.00  0.00     0.147 C 
BRANCH  11  15
HETATM   15  N4  UNL     1      27.823   2.625  53.980  1.00  0.00    -0.397 N 
HETATM   16  H14 UNL     1      28.567   3.368  54.036  1.00  0.00     0.156 HD
HETATM   17  H15 UNL     1      26.927   3.130  54.161  1.00  0.00     0.156 HD
ENDBRANCH  11  15
ENDBRANCH   7   8
ENDBRANCH   6   7
ENDBRANCH   4   6
BRANCH   1  18
HETATM   18  C7  UNL     1      25.467   5.993  49.410  1.00  0.00     0.024 A 
HETATM   19  C6  UNL     1      25.310   7.166  48.743  1.00  0.00     0.052 A 
HETATM   20  C4  UNL     1      26.351   7.562  47.931  1.00  0.00     0.071 A 
HETATM   21  C3  UNL     1      27.516   6.817  47.784  1.00  0.00     0.073 A 
HETATM   22  C2  UNL     1      27.663   5.610  48.479  1.00  0.00     0.071 A 
HETATM   23  C17 UNL     1      26.611   5.231  49.285  1.00  0.00     0.052 A 
BRANCH  20  24
HETATM   24  O2  UNL     1      26.313   8.738  47.197  1.00  0.00    -0.356 OA
HETATM   25  C5  UNL     1      27.079   9.889  47.481  1.00  0.00     0.210 C 
ENDBRANCH  20  24
BRANCH  22  26
HETATM   26  O1  UNL     1      28.847   4.915  48.289  1.00  0.00    -0.356 OA
HETATM   27  C1  UNL     1      30.099   5.492  48.034  1.00  0.00     0.210 C 
ENDBRANCH  22  26
ENDBRANCH   1  18
TORSDOF 7
ENDMDL
MODEL 9
REMARK VINA RESULT:      -6.9      4.212      6.178
REMARK  7 active torsions:
REMARK  status: ('A' for Active; 'I' for Inactive)
REMARK    1  A    between atoms: O1_2  and  C2_3 
REMARK    2  A    between atoms: C4_5  and  O2_6 
REMARK    3  A    between atoms: C7_9  and  C8_10 
REMARK    4  A    between atoms: C9_13  and  S1_14 
REMARK    5  A    between atoms: S1_14  and  C10_15 
REMARK    6  A    between atoms: C10_15  and  C11_16 
REMARK    7  A    between atoms: C16_22  and  N4_23 
ROOT
HETATM    1  C8  UNL     1      25.690   2.531  51.209  1.00  0.00     0.203 A 
HETATM    2  N1  UNL     1      26.813   2.814  50.555  1.00  0.00    -0.120 NA
HETATM    3  N2  UNL     1      26.554   3.812  49.730  1.00  0.00    -0.114 NA
HETATM    4  C9  UNL     1      25.267   4.176  49.848  1.00  0.00     0.231 A 
HETATM    5  O3  UNL     1      24.776   3.367  50.763  1.00  0.00    -0.263 OA
ENDROOT
BRANCH   4   6
HETATM    6  S1  UNL     1      23.971   5.301  49.273  1.00  0.00    -0.079 SA
BRANCH   6   7
HETATM    7  C10 UNL     1      24.706   6.575  48.223  1.00  0.00     0.111 C 
BRANCH   7   8
HETATM    8  C11 UNL     1      26.159   6.712  48.346  1.00  0.00    -0.003 C 
HETATM    9  C12 UNL     1      27.114   7.596  48.277  1.00  0.00    -0.009 C 
HETATM   10  C13 UNL     1      26.930   9.006  47.989  1.00  0.00     0.047 C 
HETATM   11  C16 UNL     1      28.502   7.193  48.508  1.00  0.00     0.053 C 
HETATM   12  C14 UNL     1      27.878   9.817  48.393  1.00  0.00     0.086 C 
HETATM   13  N3  UNL     1      29.099   9.464  48.147  1.00  0.00    -0.257 NA
HETATM   14  C15 UNL     1      29.445   8.105  48.441  1.00  0.00     0.147 C 
BRANCH  11  15
HETATM   15  N4  UNL     1      28.828   5.824  48.802  1.00  0.00    -0.397 N 
HETATM   16  H14 UNL     1      28.363   4.879  48.809  1.00  0.00     0.156 HD
HETATM   17  H15 UNL     1      29.810   5.640  49.105  1.00  0.00     0.156 HD
ENDBRANCH  11  15
ENDBRANCH   7   8
ENDBRANCH   6   7
ENDBRANCH   4   6
BRANCH   1  18
HETATM   18  C7  UNL     1      25.589   1.462  52.224  1.00  0.00     0.024 A 
HETATM   19  C6  UNL     1      26.669   0.988  52.898  1.00  0.00     0.052 A 
HETATM   20  C4  UNL     1      26.437  -0.010  53.819  1.00  0.00     0.071 A 
HETATM   21  C3  UNL     1      25.168  -0.525  54.066  1.00  0.00     0.073 A 
HETATM   22  C2  UNL     1      24.065  -0.027  53.363  1.00  0.00     0.071 A 
HETATM   23  C17 UNL     1      24.318   0.972  52.447  1.00  0.00     0.052 A 
BRANCH  20  24
HETATM   24  O2  UNL     1      27.454  -0.578  54.571  1.00  0.00    -0.356 OA
HETATM   25  C5  UNL     1      28.730  -0.006  54.761  1.00  0.00     0.210 C 
ENDBRANCH  20  24
BRANCH  22  26
HETATM   26  O1  UNL     1      22.829  -0.582  53.656  1.00  0.00    -0.356 OA
HETATM   27  C1  UNL     1      22.470  -1.174  54.874  1.00  0.00     0.210 C 
ENDBRANCH  22  26
ENDBRANCH   1  18
TORSDOF 7
ENDMDL
