MODEL 1
REMARK VINA RESULT:      -9.4      0.000      0.000
REMARK  5 active torsions:
REMARK  status: ('A' for Active; 'I' for Inactive)
REMARK    1  A    between atoms: O1_1  and  C1_2 
REMARK    2  A    between atoms: C4_5  and  N1_6 
REMARK    3  A    between atoms: C7_11  and  N4_12 
REMARK    4  A    between atoms: N4_12  and  C8_13 
REMARK    5  A    between atoms: C8_13  and  C9_14 
ROOT
HETATM    1  N1  UNL     1      25.878  -0.001  53.533  1.00  0.00    -0.338 N 
HETATM    2  C5  UNL     1      26.808   0.402  54.554  1.00  0.00     0.211 C 
HETATM    3  N2  UNL     1      27.864   1.180  54.628  1.00  0.00    -0.237 NA
HETATM    4  C6  UNL     1      28.544   1.990  53.640  1.00  0.00     0.236 C 
HETATM    5  N3  UNL     1      28.099   2.459  52.500  1.00  0.00    -0.225 NA
HETATM    6  C7  UNL     1      26.869   2.410  51.753  1.00  0.00     0.122 C 
HETATM    7  C15 UNL     1      25.995   1.414  51.560  1.00  0.00     0.043 C 
HETATM    8  C16 UNL     1      26.097   0.026  52.108  1.00  0.00     0.161 C 
ENDROOT
BRANCH   6   9
HETATM    9  N4  UNL     1      26.453   3.611  51.069  1.00  0.00    -0.371 N 
HETATM   10  H6  UNL     1      26.017   4.336  51.659  1.00  0.00     0.161 HD
BRANCH   9  11
HETATM   11  C8  UNL     1      26.783   3.448  49.679  1.00  0.00     0.160 C 
BRANCH  11  12
HETATM   12  C9  UNL     1      27.103   4.749  49.002  1.00  0.00    -0.041 A 
HETATM   13  C10 UNL     1      26.077   5.683  48.859  1.00  0.00     0.009 A 
HETATM   14  C11 UNL     1      26.348   6.903  48.232  1.00  0.00     0.001 A 
HETATM   15  C12 UNL     1      27.605   7.211  47.748  1.00  0.00     0.000 A 
HETATM   16  C13 UNL     1      28.593   6.268  47.905  1.00  0.00     0.001 A 
HETATM   17  C14 UNL     1      28.365   5.051  48.519  1.00  0.00     0.009 A 
ENDBRANCH  11  12
ENDBRANCH   9  11
ENDBRANCH   6   9
BRANCH   1  18
HETATM   18  C4  UNL     1      24.626  -0.481  53.986  1.00  0.00     0.035 A 
HETATM   19  C3  UNL     1      23.575  -0.305  53.112  1.00  0.00     0.032 A 
HETATM   20  C2  UNL     1      22.284  -0.742  53.421  1.00  0.00     0.039 A 
HETATM   21  C1  UNL     1      22.014  -1.378  54.639  1.00  0.00     0.065 A 
HETATM   22  C18 UNL     1      23.059  -1.559  55.521  1.00  0.00     0.039 A 
HETATM   23  C17 UNL     1      24.305  -1.106  55.154  1.00  0.00     0.032 A 
BRANCH  21  24
HETATM   24  O1  UNL     1      20.754  -1.833  55.001  1.00  0.00    -0.361 OA
HETATM   25  H1  UNL     1      20.461  -1.847  55.976  1.00  0.00     0.217 HD
ENDBRANCH  21  24
ENDBRANCH   1  18
TORSDOF 5
ENDMDL
MODEL 2
REMARK VINA RESULT:      -9.1      1.172      1.853
REMARK  5 active torsions:
REMARK  status: ('A' for Active; 'I' for Inactive)
REMARK    1  A    between atoms: O1_1  and  C1_2 
REMARK    2  A    between atoms: C4_5  and  N1_6 
REMARK    3  A    between atoms: C7_11  and  N4_12 
REMARK    4  A    between atoms: N4_12  and  C8_13 
REMARK    5  A    between atoms: C8_13  and  C9_14 
ROOT
HETATM    1  N1  UNL     1      26.048  -0.107  53.704  1.00  0.00    -0.338 N 
HETATM    2  C5  UNL     1      26.937   0.273  54.769  1.00  0.00     0.211 C 
HETATM    3  N2  UNL     1      28.018   1.011  54.891  1.00  0.00    -0.237 NA
HETATM    4  C6  UNL     1      28.782   1.780  53.932  1.00  0.00     0.236 C 
HETATM    5  N3  UNL     1      28.417   2.250  52.764  1.00  0.00    -0.225 NA
HETATM    6  C7  UNL     1      27.229   2.239  51.953  1.00  0.00     0.122 C 
HETATM    7  C15 UNL     1      26.327   1.275  51.724  1.00  0.00     0.043 C 
HETATM    8  C16 UNL     1      26.344  -0.108  52.293  1.00  0.00     0.161 C 
ENDROOT
BRANCH   6   9
HETATM    9  N4  UNL     1      26.897   3.446  51.232  1.00  0.00    -0.371 N 
HETATM   10  H6  UNL     1      27.063   4.330  51.737  1.00  0.00     0.161 HD
BRANCH   9  11
HETATM   11  C8  UNL     1      26.404   3.051  49.940  1.00  0.00     0.160 C 
BRANCH  11  12
HETATM   12  C9  UNL     1      25.406   4.022  49.379  1.00  0.00    -0.041 A 
HETATM   13  C10 UNL     1      25.845   5.312  49.076  1.00  0.00     0.009 A 
HETATM   14  C11 UNL     1      24.937   6.236  48.552  1.00  0.00     0.001 A 
HETATM   15  C12 UNL     1      23.613   5.909  48.326  1.00  0.00     0.000 A 
HETATM   16  C13 UNL     1      23.214   4.630  48.636  1.00  0.00     0.001 A 
HETATM   17  C14 UNL     1      24.081   3.689  49.155  1.00  0.00     0.009 A 
ENDBRANCH  11  12
ENDBRANCH   9  11
ENDBRANCH   6   9
BRANCH   1  18
HETATM   18  C4  UNL     1      24.755  -0.531  54.094  1.00  0.00     0.035 A 
HETATM   19  C3  UNL     1      23.760  -0.322  53.164  1.00  0.00     0.032 A 
HETATM   20  C2  UNL     1      22.437  -0.703  53.408  1.00  0.00     0.039 A 
HETATM   21  C1  UNL     1      22.079  -1.316  54.615  1.00  0.00     0.065 A 
HETATM   22  C18 UNL     1      23.067  -1.530  55.552  1.00  0.00     0.039 A 
HETATM   23  C17 UNL     1      24.349  -1.131  55.248  1.00  0.00     0.032 A 
BRANCH  21  24
HETATM   24  O1  UNL     1      20.783  -1.716  54.913  1.00  0.00    -0.361 OA
HETATM   25  H1  UNL     1      20.369  -2.529  54.463  1.00  0.00     0.217 HD
ENDBRANCH  21  24
ENDBRANCH   1  18
TORSDOF 5
ENDMDL
MODEL 3
REMARK VINA RESULT:      -8.6      2.383      3.575
REMARK  5 active torsions:
REMARK  status: ('A' for Active; 'I' for Inactive)
REMARK    1  A    between atoms: O1_1  and  C1_2 
REMARK    2  A    between atoms: C4_5  and  N1_6 
REMARK    3  A    between atoms: C7_11  and  N4_12 
REMARK    4  A    between atoms: N4_12  and  C8_13 
REMARK    5  A    between atoms: C8_13  and  C9_14 
ROOT
HETATM    1  N1  UNL     1      22.500   1.849  51.891  1.00  0.00    -0.338 N 
HETATM    2  C5  UNL     1      22.217   1.369  50.564  1.00  0.00     0.211 C 
HETATM    3  N2  UNL     1      22.429   1.784  49.336  1.00  0.00    -0.237 NA
HETATM    4  C6  UNL     1      23.076   2.966  48.809  1.00  0.00     0.236 C 
HETATM    5  N3  UNL     1      23.942   3.766  49.383  1.00  0.00    -0.225 NA
HETATM    6  C7  UNL     1      24.598   3.860  50.660  1.00  0.00     0.122 C 
HETATM    7  C15 UNL     1      24.146   3.637  51.901  1.00  0.00     0.043 C 
HETATM    8  C16 UNL     1      22.763   3.213  52.278  1.00  0.00     0.161 C 
ENDROOT
BRANCH   6   9
HETATM    9  N4  UNL     1      25.985   4.262  50.673  1.00  0.00    -0.371 N 
HETATM   10  H6  UNL     1      26.331   4.650  51.564  1.00  0.00     0.161 HD
BRANCH   9  11
HETATM   11  C8  UNL     1      26.522   3.990  49.367  1.00  0.00     0.160 C 
BRANCH  11  12
HETATM   12  C9  UNL     1      27.128   5.204  48.725  1.00  0.00    -0.041 A 
HETATM   13  C10 UNL     1      28.487   5.171  48.413  1.00  0.00     0.009 A 
HETATM   14  C11 UNL     1      29.077   6.289  47.814  1.00  0.00     0.001 A 
HETATM   15  C12 UNL     1      28.350   7.428  47.523  1.00  0.00     0.000 A 
HETATM   16  C13 UNL     1      27.014   7.427  47.844  1.00  0.00     0.001 A 
HETATM   17  C14 UNL     1      26.395   6.342  48.436  1.00  0.00     0.009 A 
ENDBRANCH  11  12
ENDBRANCH   9  11
ENDBRANCH   6   9
BRANCH   1  18
HETATM   18  C4  UNL     1      22.510   0.873  52.916  1.00  0.00     0.035 A 
HETATM   19  C3  UNL     1      23.725   0.262  53.138  1.00  0.00     0.032 A 
HETATM   20  C2  UNL     1      23.887  -0.712  54.128  1.00  0.00     0.039 A 
HETATM   21  C1  UNL     1      22.810  -1.100  54.934  1.00  0.00     0.065 A 
HETATM   22  C18 UNL     1      21.589  -0.495  54.720  1.00  0.00     0.039 A 
HETATM   23  C17 UNL     1      21.499   0.456  53.730  1.00  0.00     0.032 A 
BRANCH  21  24
HETATM   24  O1  UNL     1      22.909  -2.060  55.931  1.00  0.00    -0.361 OA
HETATM   25  H1  UNL     1      23.434  -2.919  55.781  1.00  0.00     0.217 HD
ENDBRANCH  21  24
ENDBRANCH   1  18
TORSDOF 5
ENDMDL
MODEL 4
REMARK VINA RESULT:      -8.4      2.550      5.532
REMARK  5 active torsions:
REMARK  status: ('A' for Active; 'I' for Inactive)
REMARK    1  A    between atoms: O1_1  and  C1_2 
REMARK    2  A    between atoms: C4_5  and  N1_6 
REMARK    3  A    between atoms: C7_11  and  N4_12 
REMARK    4  A    between atoms: N4_12  and  C8_13 
REMARK    5  A    between atoms: C8_13  and  C9_14 
ROOT
HETATM    1  N1  UNL     1      22.967   2.111  52.105  1.00  0.00    -0.338 N 
HETATM    2  C5  UNL     1      22.834   2.180  50.673  1.00  0.00     0.211 C 
HETATM    3  N2  UNL     1      23.538   2.661  49.673  1.00  0.00    -0.237 NA
HETATM    4  C6  UNL     1      24.808   3.353  49.624  1.00  0.00     0.236 C 
HETATM    5  N3  UNL     1      25.777   3.377  50.506  1.00  0.00    -0.225 NA
HETATM    6  C7  UNL     1      26.032   2.802  51.800  1.00  0.00     0.122 C 
HETATM    7  C15 UNL     1      25.226   2.607  52.852  1.00  0.00     0.043 C 
HETATM    8  C16 UNL     1      23.777   2.965  52.938  1.00  0.00     0.161 C 
ENDROOT
BRANCH   6   9
HETATM    9  N4  UNL     1      27.372   2.338  52.076  1.00  0.00    -0.371 N 
HETATM   10  H6  UNL     1      28.085   2.584  51.372  1.00  0.00     0.161 HD
BRANCH   9  11
HETATM   11  C8  UNL     1      27.330   1.625  53.324  1.00  0.00     0.160 C 
BRANCH  11  12
HETATM   12  C9  UNL     1      27.710   0.181  53.180  1.00  0.00    -0.041 A 
HETATM   13  C10 UNL     1      29.005  -0.196  53.542  1.00  0.00     0.009 A 
HETATM   14  C11 UNL     1      29.385  -1.535  53.418  1.00  0.00     0.001 A 
HETATM   15  C12 UNL     1      28.515  -2.499  52.946  1.00  0.00     0.000 A 
HETATM   16  C13 UNL     1      27.248  -2.094  52.598  1.00  0.00     0.001 A 
HETATM   17  C14 UNL     1      26.834  -0.780  52.706  1.00  0.00     0.009 A 
ENDBRANCH  11  12
ENDBRANCH   9  11
ENDBRANCH   6   9
BRANCH   1  18
HETATM   18  C4  UNL     1      22.213   1.103  52.752  1.00  0.00     0.035 A 
HETATM   19  C3  UNL     1      22.905  -0.050  53.052  1.00  0.00     0.032 A 
HETATM   20  C2  UNL     1      22.291  -1.124  53.704  1.00  0.00     0.039 A 
HETATM   21  C1  UNL     1      20.943  -1.062  54.075  1.00  0.00     0.065 A 
HETATM   22  C18 UNL     1      20.241   0.088  53.779  1.00  0.00     0.039 A 
HETATM   23  C17 UNL     1      20.906   1.108  53.137  1.00  0.00     0.032 A 
BRANCH  21  24
HETATM   24  O1  UNL     1      20.280  -2.095  54.722  1.00  0.00    -0.361 OA
HETATM   25  H1  UNL     1      19.922  -2.894  54.204  1.00  0.00     0.217 HD
ENDBRANCH  21  24
ENDBRANCH   1  18
TORSDOF 5
ENDMDL
MODEL 5
REMARK VINA RESULT:      -8.4      3.743      8.082
REMARK  5 active torsions:
REMARK  status: ('A' for Active; 'I' for Inactive)
REMARK    1  A    between atoms: O1_1  and  C1_2 
REMARK    2  A    between atoms: C4_5  and  N1_6 
REMARK    3  A    between atoms: C7_11  and  N4_12 
REMARK    4  A    between atoms: N4_12  and  C8_13 
REMARK    5  A    between atoms: C8_13  and  C9_14 
ROOT
HETATM    1  N1  UNL     1      25.592   3.835  49.897  1.00  0.00    -0.338 N 
HETATM    2  C5  UNL     1      24.196   4.035  50.185  1.00  0.00     0.211 C 
HETATM    3  N2  UNL     1      23.312   3.527  51.013  1.00  0.00    -0.237 NA
HETATM    4  C6  UNL     1      23.410   2.499  52.027  1.00  0.00     0.236 C 
HETATM    5  N3  UNL     1      24.470   2.045  52.652  1.00  0.00    -0.225 NA
HETATM    6  C7  UNL     1      25.885   2.306  52.643  1.00  0.00     0.122 C 
HETATM    7  C15 UNL     1      26.726   2.568  51.634  1.00  0.00     0.043 C 
HETATM    8  C16 UNL     1      26.372   2.657  50.184  1.00  0.00     0.161 C 
ENDROOT
BRANCH   6   9
HETATM    9  N4  UNL     1      26.577   2.293  53.910  1.00  0.00    -0.371 N 
HETATM   10  H6  UNL     1      27.080   3.160  54.155  1.00  0.00     0.161 HD
BRANCH   9  11
HETATM   11  C8  UNL     1      26.355   1.004  54.507  1.00  0.00     0.160 C 
BRANCH  11  12
HETATM   12  C9  UNL     1      27.306  -0.041  54.000  1.00  0.00    -0.041 A 
HETATM   13  C10 UNL     1      28.659   0.097  54.313  1.00  0.00     0.009 A 
HETATM   14  C11 UNL     1      29.566  -0.862  53.854  1.00  0.00     0.001 A 
HETATM   15  C12 UNL     1      29.161  -1.945  53.097  1.00  0.00     0.000 A 
HETATM   16  C13 UNL     1      27.822  -2.050  52.806  1.00  0.00     0.001 A 
HETATM   17  C14 UNL     1      26.894  -1.123  53.242  1.00  0.00     0.009 A 
ENDBRANCH  11  12
ENDBRANCH   9  11
ENDBRANCH   6   9
BRANCH   1  18
HETATM   18  C4  UNL     1      26.256   4.910  49.258  1.00  0.00     0.035 A 
HETATM   19  C3  UNL     1      27.557   4.659  48.881  1.00  0.00     0.032 A 
HETATM   20  C2  UNL     1      28.329   5.624  48.228  1.00  0.00     0.039 A 
HETATM   21  C1  UNL     1      27.801   6.887  47.933  1.00  0.00     0.065 A 
HETATM   22  C18 UNL     1      26.499   7.148  48.306  1.00  0.00     0.039 A 
HETATM   23  C17 UNL     1      25.794   6.154  48.945  1.00  0.00     0.032 A 
BRANCH  21  24
HETATM   24  O1  UNL     1      28.519   7.884  47.288  1.00  0.00    -0.361 OA
HETATM   25  H1  UNL     1      28.044   8.645  46.807  1.00  0.00     0.217 HD
ENDBRANCH  21  24
ENDBRANCH   1  18
TORSDOF 5
ENDMDL
MODEL 6
REMARK VINA RESULT:      -8.3      2.631      4.853
REMARK  5 active torsions:
REMARK  status: ('A' for Active; 'I' for Inactive)
REMARK    1  A    between atoms: O1_1  and  C1_2 
REMARK    2  A    between atoms: C4_5  and  N1_6 
REMARK    3  A    between atoms: C7_11  and  N4_12 
REMARK    4  A    between atoms: N4_12  and  C8_13 
REMARK    5  A    between atoms: C8_13  and  C9_14 
ROOT
HETATM    1  N1  UNL     1      22.348   1.839  51.937  1.00  0.00    -0.338 N 
HETATM    2  C5  UNL     1      22.081   1.379  50.600  1.00  0.00     0.211 C 
HETATM    3  N2  UNL     1      22.299   1.818  49.381  1.00  0.00    -0.237 NA
HETATM    4  C6  UNL     1      22.938   3.016  48.880  1.00  0.00     0.236 C 
HETATM    5  N3  UNL     1      23.790   3.815  49.475  1.00  0.00    -0.225 NA
HETATM    6  C7  UNL     1      24.434   3.893  50.759  1.00  0.00     0.122 C 
HETATM    7  C15 UNL     1      23.974   3.644  51.992  1.00  0.00     0.043 C 
HETATM    8  C16 UNL     1      22.592   3.198  52.350  1.00  0.00     0.161 C 
ENDROOT
BRANCH   6   9
HETATM    9  N4  UNL     1      25.817   4.310  50.792  1.00  0.00    -0.371 N 
HETATM   10  H6  UNL     1      25.988   5.269  51.129  1.00  0.00     0.161 HD
BRANCH   9  11
HETATM   11  C8  UNL     1      26.608   3.205  50.320  1.00  0.00     0.160 C 
BRANCH  11  12
HETATM   12  C9  UNL     1      26.881   2.189  51.390  1.00  0.00    -0.041 A 
HETATM   13  C10 UNL     1      26.558   0.857  51.126  1.00  0.00     0.009 A 
HETATM   14  C11 UNL     1      26.802  -0.110  52.106  1.00  0.00     0.001 A 
HETATM   15  C12 UNL     1      27.355   0.215  53.330  1.00  0.00     0.000 A 
HETATM   16  C13 UNL     1      27.661   1.536  53.556  1.00  0.00     0.001 A 
HETATM   17  C14 UNL     1      27.435   2.521  52.614  1.00  0.00     0.009 A 
ENDBRANCH  11  12
ENDBRANCH   9  11
ENDBRANCH   6   9
BRANCH   1  18
HETATM   18  C4  UNL     1      22.360   0.845  52.946  1.00  0.00     0.035 A 
HETATM   19  C3  UNL     1      23.578   0.240  53.163  1.00  0.00     0.032 A 
HETATM   20  C2  UNL     1      23.741  -0.749  54.138  1.00  0.00     0.039 A 
HETATM   21  C1  UNL     1      22.663  -1.160  54.931  1.00  0.00     0.065 A 
HETATM   22  C18 UNL     1      21.439  -0.560  54.721  1.00  0.00     0.039 A 
HETATM   23  C17 UNL     1      21.347   0.407  53.746  1.00  0.00     0.032 A 
BRANCH  21  24
HETATM   24  O1  UNL     1      22.764  -2.136  55.912  1.00  0.00    -0.361 OA
HETATM   25  H1  UNL     1      23.611  -2.234  56.468  1.00  0.00     0.217 HD
ENDBRANCH  21  24
ENDBRANCH   1  18
TORSDOF 5
ENDMDL
MODEL 7
REMARK VINA RESULT:      -8.3      2.790      4.211
REMARK  5 active torsions:
REMARK  status: ('A' for Active; 'I' for Inactive)
REMARK    1  A    between atoms: O1_1  and  C1_2 
REMARK    2  A    between atoms: C4_5  and  N1_6 
REMARK    3  A    between atoms: C7_11  and  N4_12 
REMARK    4  A    between atoms: N4_12  and  C8_13 
REMARK    5  A    between atoms: C8_13  and  C9_14 
ROOT
HETATM    1  N1  UNL     1      25.263   0.831  53.447  1.00  0.00    -0.338 N 
HETATM    2  C5  UNL     1      24.145  -0.058  53.274  1.00  0.00     0.211 C 
HETATM    3  N2  UNL     1      22.911   0.038  52.833  1.00  0.00    -0.237 NA
HETATM    4  C6  UNL     1      22.150   1.154  52.314  1.00  0.00     0.236 C 
HETATM    5  N3  UNL     1      22.574   2.284  51.803  1.00  0.00    -0.225 NA
HETATM    6  C7  UNL     1      23.845   2.904  51.535  1.00  0.00     0.122 C 
HETATM    7  C15 UNL     1      24.981   2.924  52.244  1.00  0.00     0.043 C 
HETATM    8  C16 UNL     1      25.213   2.267  53.568  1.00  0.00     0.161 C 
ENDROOT
BRANCH   6   9
HETATM    9  N4  UNL     1      23.982   3.650  50.307  1.00  0.00    -0.371 N 
HETATM   10  H6  UNL     1      23.190   4.263  50.064  1.00  0.00     0.161 HD
BRANCH   9  11
HETATM   11  C8  UNL     1      25.259   3.309  49.739  1.00  0.00     0.160 C 
BRANCH  11  12
HETATM   12  C9  UNL     1      25.989   4.502  49.195  1.00  0.00    -0.041 A 
HETATM   13  C10 UNL     1      25.254   5.661  48.942  1.00  0.00     0.009 A 
HETATM   14  C11 UNL     1      25.910   6.787  48.435  1.00  0.00     0.001 A 
HETATM   15  C12 UNL     1      27.267   6.784  48.175  1.00  0.00     0.000 A 
HETATM   16  C13 UNL     1      27.960   5.626  48.434  1.00  0.00     0.001 A 
HETATM   17  C14 UNL     1      27.349   4.493  48.936  1.00  0.00     0.009 A 
ENDBRANCH  11  12
ENDBRANCH   9  11
ENDBRANCH   6   9
BRANCH   1  18
HETATM   18  C4  UNL     1      26.539   0.220  53.516  1.00  0.00     0.035 A 
HETATM   19  C3  UNL     1      27.451   0.850  54.333  1.00  0.00     0.032 A 
HETATM   20  C2  UNL     1      28.746   0.352  54.507  1.00  0.00     0.039 A 
HETATM   21  C1  UNL     1      29.159  -0.814  53.851  1.00  0.00     0.065 A 
HETATM   22  C18 UNL     1      28.253  -1.452  53.031  1.00  0.00     0.039 A 
HETATM   23  C17 UNL     1      26.996  -0.909  52.904  1.00  0.00     0.032 A 
BRANCH  21  24
HETATM   24  O1  UNL     1      30.430  -1.356  53.985  1.00  0.00    -0.361 OA
HETATM   25  H1  UNL     1      31.118  -0.932  54.604  1.00  0.00     0.217 HD
ENDBRANCH  21  24
ENDBRANCH   1  18
TORSDOF 5
ENDMDL
MODEL 8
REMARK VINA RESULT:      -7.9      3.345      4.719
REMARK  5 active torsions:
REMARK  status: ('A' for Active; 'I' for Inactive)
REMARK    1  A    between atoms: O1_1  and  C1_2 
REMARK    2  A    between atoms: C4_5  and  N1_6 
REMARK    3  A    between atoms: C7_11  and  N4_12 
REMARK    4  A    between atoms: N4_12  and  C8_13 
REMARK    5  A    between atoms: C8_13  and  C9_14 
ROOT
HETATM    1  N1  UNL     1      21.107   1.121  51.567  1.00  0.00    -0.338 N 
HETATM    2  C5  UNL     1      21.439   0.607  50.264  1.00  0.00     0.211 C 
HETATM    3  N2  UNL     1      21.555   1.093  49.049  1.00  0.00    -0.237 NA
HETATM    4  C6  UNL     1      21.383   2.428  48.518  1.00  0.00     0.236 C 
HETATM    5  N3  UNL     1      21.419   3.582  49.139  1.00  0.00    -0.225 NA
HETATM    6  C7  UNL     1      21.622   4.042  50.487  1.00  0.00     0.122 C 
HETATM    7  C15 UNL     1      21.201   3.548  51.659  1.00  0.00     0.043 C 
HETATM    8  C16 UNL     1      20.366   2.323  51.856  1.00  0.00     0.161 C 
ENDROOT
BRANCH   6   9
HETATM    9  N4  UNL     1      22.403   5.242  50.677  1.00  0.00    -0.371 N 
HETATM   10  H6  UNL     1      22.031   6.094  50.232  1.00  0.00     0.161 HD
BRANCH   9  11
HETATM   11  C8  UNL     1      23.543   4.887  51.478  1.00  0.00     0.160 C 
BRANCH  11  12
HETATM   12  C9  UNL     1      24.767   4.607  50.655  1.00  0.00    -0.041 A 
HETATM   13  C10 UNL     1      25.249   5.624  49.830  1.00  0.00     0.009 A 
HETATM   14  C11 UNL     1      26.387   5.389  49.052  1.00  0.00     0.001 A 
HETATM   15  C12 UNL     1      27.049   4.177  49.077  1.00  0.00     0.000 A 
HETATM   16  C13 UNL     1      26.547   3.197  49.900  1.00  0.00     0.001 A 
HETATM   17  C14 UNL     1      25.425   3.390  50.683  1.00  0.00     0.009 A 
ENDBRANCH  11  12
ENDBRANCH   9  11
ENDBRANCH   6   9
BRANCH   1  18
HETATM   18  C4  UNL     1      21.551   0.353  52.670  1.00  0.00     0.035 A 
HETATM   19  C3  UNL     1      22.918   0.239  52.797  1.00  0.00     0.032 A 
HETATM   20  C2  UNL     1      23.499  -0.479  53.847  1.00  0.00     0.039 A 
HETATM   21  C1  UNL     1      22.704  -1.108  54.812  1.00  0.00     0.065 A 
HETATM   22  C18 UNL     1      21.334  -0.999  54.694  1.00  0.00     0.039 A 
HETATM   23  C17 UNL     1      20.827  -0.278  53.637  1.00  0.00     0.032 A 
BRANCH  21  24
HETATM   24  O1  UNL     1      23.223  -1.833  55.875  1.00  0.00    -0.361 OA
HETATM   25  H1  UNL     1      24.117  -2.313  55.796  1.00  0.00     0.217 HD
ENDBRANCH  21  24
ENDBRANCH   1  18
TORSDOF 5
ENDMDL
MODEL 9
REMARK VINA RESULT:      -7.9      4.079      8.505
REMARK  5 active torsions:
REMARK  status: ('A' for Active; 'I' for Inactive)
REMARK    1  A    between atoms: O1_1  and  C1_2 
REMARK    2  A    between atoms: C4_5  and  N1_6 
REMARK    3  A    between atoms: C7_11  and  N4_12 
REMARK    4  A    between atoms: N4_12  and  C8_13 
REMARK    5  A    between atoms: C8_13  and  C9_14 
ROOT
HETATM    1  N1  UNL     1      25.864   5.484  49.079  1.00  0.00    -0.338 N 
HETATM    2  C5  UNL     1      24.437   5.522  48.897  1.00  0.00     0.211 C 
HETATM    3  N2  UNL     1      23.430   4.699  49.083  1.00  0.00    -0.237 NA
HETATM    4  C6  UNL     1      23.365   3.342  49.580  1.00  0.00     0.236 C 
HETATM    5  N3  UNL     1      24.228   2.684  50.316  1.00  0.00    -0.225 NA
HETATM    6  C7  UNL     1      25.507   2.946  50.921  1.00  0.00     0.122 C 
HETATM    7  C15 UNL     1      26.572   3.621  50.471  1.00  0.00     0.043 C 
HETATM    8  C16 UNL     1      26.693   4.307  49.147  1.00  0.00     0.161 C 
ENDROOT
BRANCH   6   9
HETATM    9  N4  UNL     1      25.747   2.411  52.241  1.00  0.00    -0.371 N 
HETATM   10  H6  UNL     1      25.813   3.106  53.001  1.00  0.00     0.161 HD
BRANCH   9  11
HETATM   11  C8  UNL     1      25.829   0.981  52.115  1.00  0.00     0.160 C 
BRANCH  11  12
HETATM   12  C9  UNL     1      27.103   0.421  52.678  1.00  0.00    -0.041 A 
HETATM   13  C10 UNL     1      28.050   1.318  53.175  1.00  0.00     0.009 A 
HETATM   14  C11 UNL     1      29.245   0.823  53.704  1.00  0.00     0.001 A 
HETATM   15  C12 UNL     1      29.517  -0.531  53.750  1.00  0.00     0.000 A 
HETATM   16  C13 UNL     1      28.563  -1.386  53.252  1.00  0.00     0.001 A 
HETATM   17  C14 UNL     1      27.369  -0.936  52.720  1.00  0.00     0.009 A 
ENDBRANCH  11  12
ENDBRANCH   9  11
ENDBRANCH   6   9
BRANCH   1  18
HETATM   18  C4  UNL     1      26.511   6.738  49.193  1.00  0.00     0.035 A 
HETATM   19  C3  UNL     1      25.941   7.616  50.089  1.00  0.00     0.032 A 
HETATM   20  C2  UNL     1      26.481   8.886  50.314  1.00  0.00     0.039 A 
HETATM   21  C1  UNL     1      27.628   9.309  49.632  1.00  0.00     0.065 A 
HETATM   22  C18 UNL     1      28.206   8.437  48.733  1.00  0.00     0.039 A 
HETATM   23  C17 UNL     1      27.624   7.203  48.558  1.00  0.00     0.032 A 
BRANCH  21  24
HETATM   24  O1  UNL     1      28.208  10.557  49.813  1.00  0.00    -0.361 OA
HETATM   25  H1  UNL     1      27.736  11.282  50.348  1.00  0.00     0.217 HD
ENDBRANCH  21  24
ENDBRANCH   1  18
TORSDOF 5
ENDMDL
