MODEL 1
REMARK VINA RESULT:      -8.5      0.000      0.000
REMARK  4 active torsions:
REMARK  status: ('A' for Active; 'I' for Inactive)
REMARK    1  A    between atoms: C1_2  and  O1_3 
REMARK    2  A    between atoms: O1_3  and  C2_4 
REMARK    3  A    between atoms: C7_11  and  N3_12 
REMARK    4  A    between atoms: N3_12  and  C8_13 
ROOT
HETATM    1  C2  UNL     1      24.498   4.226  51.076  1.00  0.00     0.103 C 
HETATM    2  C3  UNL     1      23.617   4.252  52.173  1.00  0.00     0.082 A 
HETATM    3  C4  UNL     1      23.350   2.809  52.524  1.00  0.00    -0.005 A 
HETATM    4  C5  UNL     1      24.365   3.268  53.338  1.00  0.00     0.258 A 
HETATM    5  N1  UNL     1      24.776   2.007  53.539  1.00  0.00    -0.289 NA
HETATM    6  C6  UNL     1      24.098   0.984  52.932  1.00  0.00     0.077 A 
HETATM    7  N2  UNL     1      23.014   0.824  52.102  1.00  0.00    -0.224 NA
HETATM    8  C7  UNL     1      22.471   2.059  51.791  1.00  0.00     0.135 A 
HETATM    9  C13 UNL     1      24.983  -0.154  53.146  1.00  0.00     0.098 C 
HETATM   10  C14 UNL     1      26.276   0.071  52.285  1.00  0.00     0.109 C 
HETATM   11  C15 UNL     1      27.196  -1.047  52.731  1.00  0.00     0.193 C 
HETATM   12  O2  UNL     1      27.184  -1.010  54.110  1.00  0.00    -0.388 OA
HETATM   13  C16 UNL     1      27.630   0.173  54.632  1.00  0.00     0.187 C 
HETATM   14  C17 UNL     1      27.694   1.341  53.736  1.00  0.00     0.143 C 
HETATM   15  N5  UNL     1      26.786   1.307  52.590  1.00  0.00    -0.404 N 
HETATM   16  C18 UNL     1      27.098   2.362  51.765  1.00  0.00     0.117 C 
HETATM   17  C19 UNL     1      26.477   2.716  50.504  1.00  0.00     0.022 C 
HETATM   18  C20 UNL     1      25.052   3.052  50.372  1.00  0.00     0.044 C 
ENDROOT
BRANCH   8  19
HETATM   19  N3  UNL     1      21.475   2.724  51.061  1.00  0.00    -0.325 N 
HETATM   20  H5  UNL     1      20.608   3.098  51.501  1.00  0.00     0.169 HD
BRANCH  19  21
HETATM   21  C8  UNL     1      21.687   2.881  49.658  1.00  0.00     0.128 A 
HETATM   22  C9  UNL     1      22.052   1.782  48.892  1.00  0.00     0.050 A 
HETATM   23  C10 UNL     1      22.268   1.833  47.537  1.00  0.00     0.005 A 
HETATM   24  C11 UNL     1      22.103   3.071  46.934  1.00  0.00     0.019 A 
HETATM   25  C12 UNL     1      21.735   4.190  47.693  1.00  0.00     0.119 A 
HETATM   26  N4  UNL     1      21.549   4.024  49.011  1.00  0.00    -0.243 NA
ENDBRANCH  19  21
ENDBRANCH   8  19
BRANCH   1  27
HETATM   27  O1  UNL     1      24.955   5.442  50.506  1.00  0.00    -0.362 OA
BRANCH  27  28
HETATM   28  C1  UNL     1      25.015   5.615  49.106  1.00  0.00     0.283 C 
HETATM   29 CL1  UNL     1      26.699   5.797  48.538  1.00  0.00    -0.102 Cl
ENDBRANCH  27  28
ENDBRANCH   1  27
TORSDOF 4
ENDMDL
MODEL 2
REMARK VINA RESULT:      -8.3      1.744      2.412
REMARK  4 active torsions:
REMARK  status: ('A' for Active; 'I' for Inactive)
REMARK    1  A    between atoms: C1_2  and  O1_3 
REMARK    2  A    between atoms: O1_3  and  C2_4 
REMARK    3  A    between atoms: C7_11  and  N3_12 
REMARK    4  A    between atoms: N3_12  and  C8_13 
ROOT
HETATM    1  C2  UNL     1      24.368   3.945  51.174  1.00  0.00     0.103 C 
HETATM    2  C3  UNL     1      23.542   3.908  52.313  1.00  0.00     0.082 A 
HETATM    3  C4  UNL     1      23.456   2.455  52.714  1.00  0.00    -0.005 A 
HETATM    4  C5  UNL     1      24.451   3.049  53.463  1.00  0.00     0.258 A 
HETATM    5  N1  UNL     1      25.010   1.848  53.675  1.00  0.00    -0.289 NA
HETATM    6  C6  UNL     1      24.422   0.739  53.130  1.00  0.00     0.077 A 
HETATM    7  N2  UNL     1      23.325   0.434  52.361  1.00  0.00    -0.224 NA
HETATM    8  C7  UNL     1      22.633   1.591  52.047  1.00  0.00     0.135 A 
HETATM    9  C13 UNL     1      25.438  -0.288  53.327  1.00  0.00     0.098 C 
HETATM   10  C14 UNL     1      26.655   0.052  52.397  1.00  0.00     0.109 C 
HETATM   11  C15 UNL     1      27.715  -0.943  52.823  1.00  0.00     0.193 C 
HETATM   12  O2  UNL     1      27.765  -0.865  54.199  1.00  0.00    -0.388 OA
HETATM   13  C16 UNL     1      28.100   0.376  54.668  1.00  0.00     0.187 C 
HETATM   14  C17 UNL     1      27.990   1.516  53.740  1.00  0.00     0.143 C 
HETATM   15  N5  UNL     1      27.037   1.346  52.644  1.00  0.00    -0.404 N 
HETATM   16  C18 UNL     1      27.190   2.402  51.777  1.00  0.00     0.117 C 
HETATM   17  C19 UNL     1      26.474   2.646  50.540  1.00  0.00     0.022 C 
HETATM   18  C20 UNL     1      25.015   2.818  50.473  1.00  0.00     0.044 C 
ENDROOT
BRANCH   8  19
HETATM   19  N3  UNL     1      21.535   2.118  51.352  1.00  0.00    -0.325 N 
HETATM   20  H5  UNL     1      21.568   3.031  50.853  1.00  0.00     0.169 HD
BRANCH  19  21
HETATM   21  C8  UNL     1      20.333   1.346  51.344  1.00  0.00     0.128 A 
HETATM   22  C9  UNL     1      19.517   1.359  50.222  1.00  0.00     0.050 A 
HETATM   23  C10 UNL     1      18.349   0.643  50.118  1.00  0.00     0.005 A 
HETATM   24  C11 UNL     1      18.000  -0.126  51.218  1.00  0.00     0.019 A 
HETATM   25  C12 UNL     1      18.813  -0.151  52.358  1.00  0.00     0.119 A 
HETATM   26  N4  UNL     1      19.933   0.589  52.350  1.00  0.00    -0.243 NA
ENDBRANCH  19  21
ENDBRANCH   8  19
BRANCH   1  27
HETATM   27  O1  UNL     1      24.659   5.185  50.550  1.00  0.00    -0.362 OA
BRANCH  27  28
HETATM   28  C1  UNL     1      24.736   5.296  49.144  1.00  0.00     0.283 C 
HETATM   29 CL1  UNL     1      26.373   5.777  48.613  1.00  0.00    -0.102 Cl
ENDBRANCH  27  28
ENDBRANCH   1  27
TORSDOF 4
ENDMDL
MODEL 3
REMARK VINA RESULT:      -8.3      2.876      6.810
REMARK  4 active torsions:
REMARK  status: ('A' for Active; 'I' for Inactive)
REMARK    1  A    between atoms: C1_2  and  O1_3 
REMARK    2  A    between atoms: O1_3  and  C2_4 
REMARK    3  A    between atoms: C7_11  and  N3_12 
REMARK    4  A    between atoms: N3_12  and  C8_13 
ROOT
HETATM    1  C2  UNL     1      22.615   1.185  52.137  1.00  0.00     0.103 C 
HETATM    2  C3  UNL     1      23.542   1.670  53.079  1.00  0.00     0.082 A 
HETATM    3  C4  UNL     1      24.589   2.412  52.285  1.00  0.00    -0.005 A 
HETATM    4  C5  UNL     1      23.662   3.329  52.735  1.00  0.00     0.258 A 
HETATM    5  N1  UNL     1      24.024   4.176  51.759  1.00  0.00    -0.289 NA
HETATM    6  C6  UNL     1      25.008   3.797  50.886  1.00  0.00     0.077 A 
HETATM    7  N2  UNL     1      25.832   2.717  50.675  1.00  0.00    -0.224 NA
HETATM    8  C7  UNL     1      25.572   1.736  51.616  1.00  0.00     0.135 A 
HETATM    9  C13 UNL     1      24.915   4.812  49.844  1.00  0.00     0.098 C 
HETATM   10  C14 UNL     1      23.560   4.598  49.080  1.00  0.00     0.109 C 
HETATM   11  C15 UNL     1      23.472   5.808  48.172  1.00  0.00     0.193 C 
HETATM   12  O2  UNL     1      23.726   6.897  48.978  1.00  0.00    -0.388 OA
HETATM   13  C16 UNL     1      22.833   7.041  50.006  1.00  0.00     0.187 C 
HETATM   14  C17 UNL     1      21.994   5.881  50.357  1.00  0.00     0.143 C 
HETATM   15  N5  UNL     1      22.546   4.574  50.003  1.00  0.00    -0.404 N 
HETATM   16  C18 UNL     1      21.574   3.626  50.222  1.00  0.00     0.117 C 
HETATM   17  C19 UNL     1      21.661   2.197  49.995  1.00  0.00     0.022 C 
HETATM   18  C20 UNL     1      22.640   1.331  50.668  1.00  0.00     0.044 C 
ENDROOT
BRANCH   8  19
HETATM   19  N3  UNL     1      25.908   0.445  52.051  1.00  0.00    -0.325 N 
HETATM   20  H5  UNL     1      25.270  -0.370  51.943  1.00  0.00     0.169 HD
BRANCH  19  21
HETATM   21  C8  UNL     1      27.188   0.274  52.662  1.00  0.00     0.128 A 
HETATM   22  C9  UNL     1      27.685  -1.006  52.862  1.00  0.00     0.050 A 
HETATM   23  C10 UNL     1      28.907  -1.271  53.432  1.00  0.00     0.005 A 
HETATM   24  C11 UNL     1      29.658  -0.169  53.815  1.00  0.00     0.019 A 
HETATM   25  C12 UNL     1      29.170   1.129  53.619  1.00  0.00     0.119 A 
HETATM   26  N4  UNL     1      27.962   1.270  53.053  1.00  0.00    -0.243 NA
ENDBRANCH  19  21
ENDBRANCH   8  19
BRANCH   1  27
HETATM   27  O1  UNL     1      21.488   0.442  52.570  1.00  0.00    -0.362 OA
BRANCH  27  28
HETATM   28  C1  UNL     1      21.107   0.420  53.930  1.00  0.00     0.283 C 
HETATM   29 CL1  UNL     1      21.526  -1.134  54.704  1.00  0.00    -0.102 Cl
ENDBRANCH  27  28
ENDBRANCH   1  27
TORSDOF 4
ENDMDL
MODEL 4
REMARK VINA RESULT:      -8.2      2.579      6.024
REMARK  4 active torsions:
REMARK  status: ('A' for Active; 'I' for Inactive)
REMARK    1  A    between atoms: C1_2  and  O1_3 
REMARK    2  A    between atoms: O1_3  and  C2_4 
REMARK    3  A    between atoms: C7_11  and  N3_12 
REMARK    4  A    between atoms: N3_12  and  C8_13 
ROOT
HETATM    1  C2  UNL     1      24.217   4.924  51.237  1.00  0.00     0.103 C 
HETATM    2  C3  UNL     1      24.917   4.050  50.384  1.00  0.00     0.082 A 
HETATM    3  C4  UNL     1      24.615   2.657  50.880  1.00  0.00    -0.005 A 
HETATM    4  C5  UNL     1      23.739   2.946  49.854  1.00  0.00     0.258 A 
HETATM    5  N1  UNL     1      22.889   2.016  50.316  1.00  0.00    -0.289 NA
HETATM    6  C6  UNL     1      23.231   1.304  51.434  1.00  0.00     0.077 A 
HETATM    7  N2  UNL     1      24.278   1.229  52.321  1.00  0.00    -0.224 NA
HETATM    8  C7  UNL     1      25.253   2.150  51.979  1.00  0.00     0.135 A 
HETATM    9  C13 UNL     1      21.983   0.632  51.774  1.00  0.00     0.098 C 
HETATM   10  C14 UNL     1      20.962   1.722  52.257  1.00  0.00     0.109 C 
HETATM   11  C15 UNL     1      19.662   0.955  52.388  1.00  0.00     0.193 C 
HETATM   12  O2  UNL     1      19.525   0.253  51.209  1.00  0.00    -0.388 OA
HETATM   13  C16 UNL     1      19.466   1.050  50.098  1.00  0.00     0.187 C 
HETATM   14  C17 UNL     1      19.923   2.445  50.226  1.00  0.00     0.143 C 
HETATM   15  N5  UNL     1      20.888   2.696  51.295  1.00  0.00    -0.404 N 
HETATM   16  C18 UNL     1      21.066   4.056  51.400  1.00  0.00     0.117 C 
HETATM   17  C19 UNL     1      21.915   4.771  52.332  1.00  0.00     0.022 C 
HETATM   18  C20 UNL     1      23.372   4.588  52.401  1.00  0.00     0.044 C 
ENDROOT
BRANCH   8  19
HETATM   19  N3  UNL     1      26.498   2.689  52.335  1.00  0.00    -0.325 N 
HETATM   20  H5  UNL     1      26.757   3.680  52.148  1.00  0.00     0.169 HD
BRANCH  19  21
HETATM   21  C8  UNL     1      27.427   1.819  52.982  1.00  0.00     0.128 A 
HETATM   22  C9  UNL     1      27.423   0.464  52.679  1.00  0.00     0.050 A 
HETATM   23  C10 UNL     1      28.283  -0.447  53.241  1.00  0.00     0.005 A 
HETATM   24  C11 UNL     1      29.193   0.052  54.161  1.00  0.00     0.019 A 
HETATM   25  C12 UNL     1      29.209   1.417  54.478  1.00  0.00     0.119 A 
HETATM   26  N4  UNL     1      28.322   2.217  53.867  1.00  0.00    -0.243 NA
ENDBRANCH  19  21
ENDBRANCH   8  19
BRANCH   1  27
HETATM   27  O1  UNL     1      24.287   6.325  51.028  1.00  0.00    -0.362 OA
BRANCH  27  28
HETATM   28  C1  UNL     1      23.697   6.923  49.893  1.00  0.00     0.283 C 
HETATM   29 CL1  UNL     1      22.196   7.795  50.316  1.00  0.00    -0.102 Cl
ENDBRANCH  27  28
ENDBRANCH   1  27
TORSDOF 4
ENDMDL
MODEL 5
REMARK VINA RESULT:      -7.9      3.153      4.346
REMARK  4 active torsions:
REMARK  status: ('A' for Active; 'I' for Inactive)
REMARK    1  A    between atoms: C1_2  and  O1_3 
REMARK    2  A    between atoms: O1_3  and  C2_4 
REMARK    3  A    between atoms: C7_11  and  N3_12 
REMARK    4  A    between atoms: N3_12  and  C8_13 
ROOT
HETATM    1  C2  UNL     1      22.289   0.888  51.897  1.00  0.00     0.103 C 
HETATM    2  C3  UNL     1      22.885   1.773  50.978  1.00  0.00     0.082 A 
HETATM    3  C4  UNL     1      23.966   2.497  51.742  1.00  0.00    -0.005 A 
HETATM    4  C5  UNL     1      24.546   1.433  51.082  1.00  0.00     0.258 A 
HETATM    5  N1  UNL     1      25.568   1.449  51.950  1.00  0.00    -0.289 NA
HETATM    6  C6  UNL     1      25.571   2.381  52.952  1.00  0.00     0.077 A 
HETATM    7  N2  UNL     1      24.780   3.416  53.392  1.00  0.00    -0.224 NA
HETATM    8  C7  UNL     1      23.659   3.527  52.588  1.00  0.00     0.135 A 
HETATM    9  C13 UNL     1      26.643   1.911  53.820  1.00  0.00     0.098 C 
HETATM   10  C14 UNL     1      26.173   0.569  54.486  1.00  0.00     0.109 C 
HETATM   11  C15 UNL     1      27.416   0.071  55.194  1.00  0.00     0.193 C 
HETATM   12  O2  UNL     1      28.429   0.143  54.261  1.00  0.00    -0.388 OA
HETATM   13  C16 UNL     1      28.207  -0.625  53.149  1.00  0.00     0.187 C 
HETATM   14  C17 UNL     1      26.834  -1.098  52.901  1.00  0.00     0.143 C 
HETATM   15  N5  UNL     1      25.771  -0.286  53.492  1.00  0.00    -0.404 N 
HETATM   16  C18 UNL     1      24.581  -0.956  53.331  1.00  0.00     0.117 C 
HETATM   17  C19 UNL     1      23.264  -0.544  53.774  1.00  0.00     0.022 C 
HETATM   18  C20 UNL     1      22.612   0.695  53.325  1.00  0.00     0.044 C 
ENDROOT
BRANCH   8  19
HETATM   19  N3  UNL     1      22.460   4.225  52.380  1.00  0.00    -0.325 N 
HETATM   20  H5  UNL     1      21.541   3.885  52.731  1.00  0.00     0.169 HD
BRANCH  19  21
HETATM   21  C8  UNL     1      22.536   5.453  51.654  1.00  0.00     0.128 A 
HETATM   22  C9  UNL     1      21.397   5.961  51.044  1.00  0.00     0.050 A 
HETATM   23  C10 UNL     1      21.370   7.136  50.334  1.00  0.00     0.005 A 
HETATM   24  C11 UNL     1      22.569   7.828  50.244  1.00  0.00     0.019 A 
HETATM   25  C12 UNL     1      23.727   7.329  50.854  1.00  0.00     0.119 A 
HETATM   26  N4  UNL     1      23.638   6.169  51.523  1.00  0.00    -0.243 NA
ENDBRANCH  19  21
ENDBRANCH   8  19
BRANCH   1  27
HETATM   27  O1  UNL     1      21.229   0.044  51.481  1.00  0.00    -0.362 OA
BRANCH  27  28
HETATM   28  C1  UNL     1      19.954   0.569  51.175  1.00  0.00     0.283 C 
HETATM   29 CL1  UNL     1      18.662  -0.280  52.069  1.00  0.00    -0.102 Cl
ENDBRANCH  27  28
ENDBRANCH   1  27
TORSDOF 4
ENDMDL
MODEL 6
REMARK VINA RESULT:      -7.8      7.182      8.866
REMARK  4 active torsions:
REMARK  status: ('A' for Active; 'I' for Inactive)
REMARK    1  A    between atoms: C1_2  and  O1_3 
REMARK    2  A    between atoms: O1_3  and  C2_4 
REMARK    3  A    between atoms: C7_11  and  N3_12 
REMARK    4  A    between atoms: N3_12  and  C8_13 
ROOT
HETATM    1  C2  UNL     1      30.543   8.982  47.078  1.00  0.00     0.103 C 
HETATM    2  C3  UNL     1      30.086   8.764  48.391  1.00  0.00     0.082 A 
HETATM    3  C4  UNL     1      30.268   7.289  48.653  1.00  0.00    -0.005 A 
HETATM    4  C5  UNL     1      31.369   7.952  49.154  1.00  0.00     0.258 A 
HETATM    5  N1  UNL     1      32.086   6.820  49.082  1.00  0.00    -0.289 NA
HETATM    6  C6  UNL     1      31.483   5.684  48.612  1.00  0.00     0.077 A 
HETATM    7  N2  UNL     1      30.249   5.295  48.149  1.00  0.00    -0.224 NA
HETATM    8  C7  UNL     1      29.382   6.373  48.156  1.00  0.00     0.135 A 
HETATM    9  C13 UNL     1      32.613   4.784  48.417  1.00  0.00     0.098 C 
HETATM   10  C14 UNL     1      33.472   5.337  47.225  1.00  0.00     0.109 C 
HETATM   11  C15 UNL     1      34.706   4.458  47.241  1.00  0.00     0.193 C 
HETATM   12  O2  UNL     1      35.139   4.449  48.550  1.00  0.00    -0.388 OA
HETATM   13  C16 UNL     1      35.465   5.689  49.030  1.00  0.00     0.187 C 
HETATM   14  C17 UNL     1      34.977   6.865  48.287  1.00  0.00     0.143 C 
HETATM   15  N5  UNL     1      33.774   6.649  47.485  1.00  0.00    -0.404 N 
HETATM   16  C18 UNL     1      33.563   7.772  46.720  1.00  0.00     0.117 C 
HETATM   17  C19 UNL     1      32.502   8.006  45.761  1.00  0.00     0.022 C 
HETATM   18  C20 UNL     1      31.075   7.996  46.116  1.00  0.00     0.044 C 
ENDROOT
BRANCH   8  19
HETATM   19  N3  UNL     1      28.082   6.803  47.848  1.00  0.00    -0.325 N 
HETATM   20  H5  UNL     1      27.870   7.421  47.038  1.00  0.00     0.169 HD
BRANCH  19  21
HETATM   21  C8  UNL     1      27.026   6.353  48.698  1.00  0.00     0.128 A 
HETATM   22  C9  UNL     1      26.786   4.993  48.832  1.00  0.00     0.050 A 
HETATM   23  C10 UNL     1      25.802   4.466  49.633  1.00  0.00     0.005 A 
HETATM   24  C11 UNL     1      25.023   5.377  50.330  1.00  0.00     0.019 A 
HETATM   25  C12 UNL     1      25.252   6.754  50.205  1.00  0.00     0.119 A 
HETATM   26  N4  UNL     1      26.243   7.156  49.394  1.00  0.00    -0.243 NA
ENDBRANCH  19  21
ENDBRANCH   8  19
BRANCH   1  27
HETATM   27  O1  UNL     1      30.514  10.288  46.526  1.00  0.00    -0.362 OA
BRANCH  27  28
HETATM   28  C1  UNL     1      31.047  11.390  47.230  1.00  0.00     0.283 C 
HETATM   29 CL1  UNL     1      32.834  11.390  47.193  1.00  0.00    -0.102 Cl
ENDBRANCH  27  28
ENDBRANCH   1  27
TORSDOF 4
ENDMDL
MODEL 7
REMARK VINA RESULT:      -7.7      3.044      6.892
REMARK  4 active torsions:
REMARK  status: ('A' for Active; 'I' for Inactive)
REMARK    1  A    between atoms: C1_2  and  O1_3 
REMARK    2  A    between atoms: O1_3  and  C2_4 
REMARK    3  A    between atoms: C7_11  and  N3_12 
REMARK    4  A    between atoms: N3_12  and  C8_13 
ROOT
HETATM    1  C2  UNL     1      21.203   1.589  52.068  1.00  0.00     0.103 C 
HETATM    2  C3  UNL     1      21.346   2.877  52.617  1.00  0.00     0.082 A 
HETATM    3  C4  UNL     1      22.272   3.622  51.686  1.00  0.00    -0.005 A 
HETATM    4  C5  UNL     1      20.973   3.926  51.334  1.00  0.00     0.258 A 
HETATM    5  N1  UNL     1      21.385   4.268  50.103  1.00  0.00    -0.289 NA
HETATM    6  C6  UNL     1      22.717   4.175  49.802  1.00  0.00     0.077 A 
HETATM    7  N2  UNL     1      23.886   3.810  50.426  1.00  0.00    -0.224 NA
HETATM    8  C7  UNL     1      23.623   3.417  51.726  1.00  0.00     0.135 A 
HETATM    9  C13 UNL     1      22.726   4.344  48.354  1.00  0.00     0.098 C 
HETATM   10  C14 UNL     1      22.054   3.078  47.715  1.00  0.00     0.109 C 
HETATM   11  C15 UNL     1      21.934   3.443  46.250  1.00  0.00     0.193 C 
HETATM   12  O2  UNL     1      21.366   4.700  46.225  1.00  0.00    -0.388 OA
HETATM   13  C16 UNL     1      20.127   4.755  46.805  1.00  0.00     0.187 C 
HETATM   14  C17 UNL     1      19.728   3.642  47.684  1.00  0.00     0.143 C 
HETATM   15  N5  UNL     1      20.827   2.901  48.302  1.00  0.00    -0.404 N 
HETATM   16  C18 UNL     1      20.299   1.797  48.930  1.00  0.00     0.117 C 
HETATM   17  C19 UNL     1      21.010   0.766  49.658  1.00  0.00     0.022 C 
HETATM   18  C20 UNL     1      21.827   1.036  50.850  1.00  0.00     0.044 C 
ENDROOT
BRANCH   8  19
HETATM   19  N3  UNL     1      24.187   2.922  52.912  1.00  0.00    -0.325 N 
HETATM   20  H5  UNL     1      24.073   3.397  53.832  1.00  0.00     0.169 HD
BRANCH  19  21
HETATM   21  C8  UNL     1      24.943   1.714  52.822  1.00  0.00     0.128 A 
HETATM   22  C9  UNL     1      24.425   0.540  53.353  1.00  0.00     0.050 A 
HETATM   23  C10 UNL     1      25.073  -0.670  53.306  1.00  0.00     0.005 A 
HETATM   24  C11 UNL     1      26.313  -0.681  52.685  1.00  0.00     0.019 A 
HETATM   25  C12 UNL     1      26.849   0.495  52.145  1.00  0.00     0.119 A 
HETATM   26  N4  UNL     1      26.128   1.622  52.247  1.00  0.00    -0.243 NA
ENDBRANCH  19  21
ENDBRANCH   8  19
BRANCH   1  27
HETATM   27  O1  UNL     1      20.375   0.634  52.711  1.00  0.00    -0.362 OA
BRANCH  27  28
HETATM   28  C1  UNL     1      20.609   0.248  54.050  1.00  0.00     0.283 C 
HETATM   29 CL1  UNL     1      21.416  -1.343  54.142  1.00  0.00    -0.102 Cl
ENDBRANCH  27  28
ENDBRANCH   1  27
TORSDOF 4
ENDMDL
MODEL 8
REMARK VINA RESULT:      -7.4      3.035      6.383
REMARK  4 active torsions:
REMARK  status: ('A' for Active; 'I' for Inactive)
REMARK    1  A    between atoms: C1_2  and  O1_3 
REMARK    2  A    between atoms: O1_3  and  C2_4 
REMARK    3  A    between atoms: C7_11  and  N3_12 
REMARK    4  A    between atoms: N3_12  and  C8_13 
ROOT
HETATM    1  C2  UNL     1      23.636   2.065  52.292  1.00  0.00     0.103 C 
HETATM    2  C3  UNL     1      23.845   3.414  52.633  1.00  0.00     0.082 A 
HETATM    3  C4  UNL     1      23.327   4.220  51.467  1.00  0.00    -0.005 A 
HETATM    4  C5  UNL     1      22.326   4.143  52.414  1.00  0.00     0.258 A 
HETATM    5  N1  UNL     1      21.409   4.394  51.468  1.00  0.00    -0.289 NA
HETATM    6  C6  UNL     1      21.824   4.587  50.178  1.00  0.00     0.077 A 
HETATM    7  N2  UNL     1      23.004   4.612  49.474  1.00  0.00    -0.224 NA
HETATM    8  C7  UNL     1      24.066   4.359  50.325  1.00  0.00     0.135 A 
HETATM    9  C13 UNL     1      20.572   4.542  49.433  1.00  0.00     0.098 C 
HETATM   10  C14 UNL     1      20.027   3.071  49.491  1.00  0.00     0.109 C 
HETATM   11  C15 UNL     1      18.648   3.181  48.872  1.00  0.00     0.193 C 
HETATM   12  O2  UNL     1      18.040   4.244  49.505  1.00  0.00    -0.388 OA
HETATM   13  C16 UNL     1      17.912   4.078  50.858  1.00  0.00     0.187 C 
HETATM   14  C17 UNL     1      18.734   3.040  51.505  1.00  0.00     0.143 C 
HETATM   15  N5  UNL     1      19.969   2.687  50.807  1.00  0.00    -0.404 N 
HETATM   16  C18 UNL     1      20.515   1.590  51.431  1.00  0.00     0.117 C 
HETATM   17  C19 UNL     1      21.727   0.880  51.077  1.00  0.00     0.022 C 
HETATM   18  C20 UNL     1      23.055   1.511  51.053  1.00  0.00     0.044 C 
ENDROOT
BRANCH   8  19
HETATM   19  N3  UNL     1      25.457   4.193  50.407  1.00  0.00    -0.325 N 
HETATM   20  H5  UNL     1      25.903   3.446  50.978  1.00  0.00     0.169 HD
BRANCH  19  21
HETATM   21  C8  UNL     1      26.269   5.104  49.664  1.00  0.00     0.128 A 
HETATM   22  C9  UNL     1      27.382   4.630  48.984  1.00  0.00     0.050 A 
HETATM   23  C10 UNL     1      28.216   5.426  48.236  1.00  0.00     0.005 A 
HETATM   24  C11 UNL     1      27.894   6.774  48.181  1.00  0.00     0.019 A 
HETATM   25  C12 UNL     1      26.773   7.267  48.862  1.00  0.00     0.119 A 
HETATM   26  N4  UNL     1      26.028   6.398  49.563  1.00  0.00    -0.243 NA
ENDBRANCH  19  21
ENDBRANCH   8  19
BRANCH   1  27
HETATM   27  O1  UNL     1      24.013   1.040  53.196  1.00  0.00    -0.362 OA
BRANCH  27  28
HETATM   28  C1  UNL     1      25.371   0.796  53.499  1.00  0.00     0.283 C 
HETATM   29 CL1  UNL     1      26.249   0.134  52.091  1.00  0.00    -0.102 Cl
ENDBRANCH  27  28
ENDBRANCH   1  27
TORSDOF 4
ENDMDL
MODEL 9
REMARK VINA RESULT:      -7.3      6.484      9.725
REMARK  4 active torsions:
REMARK  status: ('A' for Active; 'I' for Inactive)
REMARK    1  A    between atoms: C1_2  and  O1_3 
REMARK    2  A    between atoms: O1_3  and  C2_4 
REMARK    3  A    between atoms: C7_11  and  N3_12 
REMARK    4  A    between atoms: N3_12  and  C8_13 
ROOT
HETATM    1  C2  UNL     1      30.980   9.035  48.164  1.00  0.00     0.103 C 
HETATM    2  C3  UNL     1      31.167   8.136  47.097  1.00  0.00     0.082 A 
HETATM    3  C4  UNL     1      30.346   6.916  47.435  1.00  0.00    -0.005 A 
HETATM    4  C5  UNL     1      29.592   7.726  46.610  1.00  0.00     0.258 A 
HETATM    5  N1  UNL     1      28.470   7.148  47.065  1.00  0.00    -0.289 NA
HETATM    6  C6  UNL     1      28.570   6.157  48.004  1.00  0.00     0.077 A 
HETATM    7  N2  UNL     1      29.557   5.496  48.696  1.00  0.00    -0.224 NA
HETATM    8  C7  UNL     1      30.798   5.993  48.337  1.00  0.00     0.135 A 
HETATM    9  C13 UNL     1      27.189   5.993  48.439  1.00  0.00     0.098 C 
HETATM   10  C14 UNL     1      26.772   7.286  49.224  1.00  0.00     0.109 C 
HETATM   11  C15 UNL     1      25.285   7.100  49.450  1.00  0.00     0.193 C 
HETATM   12  O2  UNL     1      24.764   6.755  48.220  1.00  0.00    -0.388 OA
HETATM   13  C16 UNL     1      24.956   7.707  47.256  1.00  0.00     0.187 C 
HETATM   14  C17 UNL     1      25.971   8.745  47.505  1.00  0.00     0.143 C 
HETATM   15  N5  UNL     1      27.038   8.374  48.433  1.00  0.00    -0.404 N 
HETATM   16  C18 UNL     1      27.785   9.498  48.698  1.00  0.00     0.117 C 
HETATM   17  C19 UNL     1      28.932   9.615  49.576  1.00  0.00     0.022 C 
HETATM   18  C20 UNL     1      30.174   8.850  49.388  1.00  0.00     0.044 C 
ENDROOT
BRANCH   8  19
HETATM   19  N3  UNL     1      32.179   5.904  48.564  1.00  0.00    -0.325 N 
HETATM   20  H5  UNL     1      32.687   6.546  49.208  1.00  0.00     0.169 HD
BRANCH  19  21
HETATM   21  C8  UNL     1      32.892   4.878  47.872  1.00  0.00     0.128 A 
HETATM   22  C9  UNL     1      33.990   5.213  47.092  1.00  0.00     0.050 A 
HETATM   23  C10 UNL     1      34.742   4.297  46.398  1.00  0.00     0.005 A 
HETATM   24  C11 UNL     1      34.351   2.971  46.508  1.00  0.00     0.019 A 
HETATM   25  C12 UNL     1      33.245   2.617  47.292  1.00  0.00     0.119 A 
HETATM   26  N4  UNL     1      32.583   3.596  47.927  1.00  0.00    -0.243 NA
ENDBRANCH  19  21
ENDBRANCH   8  19
BRANCH   1  27
HETATM   27  O1  UNL     1      31.620  10.300  48.145  1.00  0.00    -0.362 OA
BRANCH  27  28
HETATM   28  C1  UNL     1      30.991  11.428  47.573  1.00  0.00     0.283 C 
HETATM   29 CL1  UNL     1      30.566  12.641  48.814  1.00  0.00    -0.102 Cl
ENDBRANCH  27  28
ENDBRANCH   1  27
TORSDOF 4
ENDMDL
