MODEL 1
REMARK VINA RESULT:      -8.2      0.000      0.000
REMARK  7 active torsions:
REMARK  status: ('A' for Active; 'I' for Inactive)
REMARK    1  A    between atoms: C3_3  and  C4_5 
REMARK    2  A    between atoms: C5_6  and  C6_7 
REMARK    3  A    between atoms: C6_7  and  C7_8 
REMARK    4  A    between atoms: C7_8  and  C8_9 
REMARK    5  A    between atoms: C11_12  and  N1_13 
REMARK    6  A    between atoms: N1_13  and  C12_14 
REMARK    7  A    between atoms: N4_25  and  N5_26 
ROOT
HETATM    1  C8  UNL     1      22.022   1.781  50.788  1.00  0.00     0.022 C 
HETATM    2  C9  UNL     1      22.948   1.419  51.696  1.00  0.00     0.007 C 
HETATM    3  C10 UNL     1      23.451   1.324  53.075  1.00  0.00     0.107 C 
HETATM    4  C11 UNL     1      23.456  -0.116  53.519  1.00  0.00     0.109 C 
HETATM    5  N2  UNL     1      22.480  -0.893  53.061  1.00  0.00    -0.229 NA
HETATM    6  C18 UNL     1      21.507  -0.277  52.180  1.00  0.00     0.230 C 
HETATM    7  N3  UNL     1      21.128   0.766  52.881  1.00  0.00    -0.262 NA
HETATM    8  C19 UNL     1      20.146   1.718  52.401  1.00  0.00     0.292 C 
HETATM    9  N4  UNL     1      20.766   2.350  51.230  1.00  0.00    -0.298 N 
ENDROOT
BRANCH   4  10
HETATM   10  N1  UNL     1      24.381  -0.707  54.423  1.00  0.00    -0.344 N 
HETATM   11  H14 UNL     1      23.833  -1.250  55.153  1.00  0.00     0.167 HD
BRANCH  10  12
HETATM   12  C12 UNL     1      25.776  -0.508  54.238  1.00  0.00     0.033 A 
HETATM   13  C13 UNL     1      26.273  -1.179  53.114  1.00  0.00     0.032 A 
HETATM   14  C14 UNL     1      27.619  -1.098  52.776  1.00  0.00     0.044 A 
HETATM   15  C15 UNL     1      28.468  -0.351  53.556  1.00  0.00     0.116 A 
HETATM   16  F1  UNL     1      29.791  -0.238  53.272  1.00  0.00    -0.206 F 
HETATM   17  C16 UNL     1      27.977   0.322  54.680  1.00  0.00     0.044 A 
HETATM   18  C17 UNL     1      26.626   0.225  54.997  1.00  0.00     0.032 A 
ENDBRANCH  10  12
ENDBRANCH   4  10
BRANCH   1  19
HETATM   19  C7  UNL     1      21.967   1.647  49.324  1.00  0.00     0.062 C 
BRANCH  19  20
HETATM   20  C6  UNL     1      22.412   2.874  48.592  1.00  0.00     0.033 C 
BRANCH  20  21
HETATM   21  C5  UNL     1      23.787   3.299  48.906  1.00  0.00    -0.025 C 
HETATM   22  C4  UNL     1      24.723   3.965  49.521  1.00  0.00     0.015 C 
BRANCH  22  23
HETATM   23  C3  UNL     1      26.136   4.225  49.656  1.00  0.00     0.006 C 
HETATM   24  C2  UNL     1      26.734   3.297  50.382  1.00  0.00    -0.012 C 
HETATM   25  C1  UNL     1      26.462   2.040  51.133  1.00  0.00     0.037 C 
HETATM   26 BR1  UNL     1      26.627   5.816  48.738  1.00  0.00    -0.051 Br
ENDBRANCH  22  23
ENDBRANCH  20  21
ENDBRANCH  19  20
ENDBRANCH   1  19
BRANCH   9  27
HETATM   27  N5  UNL     1      19.993   3.372  50.764  1.00  0.00    -0.241 NA
HETATM   28  C20 UNL     1      18.768   3.615  51.465  1.00  0.00     0.133 C 
HETATM   29  H22 UNL     1      19.817   3.359  49.749  1.00  0.00     0.146 HD
ENDBRANCH   9  27
TORSDOF 7
ENDMDL
MODEL 2
REMARK VINA RESULT:      -8.1      2.430      3.287
REMARK  7 active torsions:
REMARK  status: ('A' for Active; 'I' for Inactive)
REMARK    1  A    between atoms: C3_3  and  C4_5 
REMARK    2  A    between atoms: C5_6  and  C6_7 
REMARK    3  A    between atoms: C6_7  and  C7_8 
REMARK    4  A    between atoms: C7_8  and  C8_9 
REMARK    5  A    between atoms: C11_12  and  N1_13 
REMARK    6  A    between atoms: N1_13  and  C12_14 
REMARK    7  A    between atoms: N4_25  and  N5_26 
ROOT
HETATM    1  C8  UNL     1      24.334   4.153  51.236  1.00  0.00     0.022 C 
HETATM    2  C9  UNL     1      24.867   3.248  52.077  1.00  0.00     0.007 C 
HETATM    3  C10 UNL     1      24.895   2.515  53.352  1.00  0.00     0.107 C 
HETATM    4  C11 UNL     1      24.551   1.067  53.116  1.00  0.00     0.109 C 
HETATM    5  N2  UNL     1      23.664   0.804  52.162  1.00  0.00    -0.229 NA
HETATM    6  C18 UNL     1      23.116   1.938  51.443  1.00  0.00     0.230 C 
HETATM    7  N3  UNL     1      22.694   2.702  52.424  1.00  0.00    -0.262 NA
HETATM    8  C19 UNL     1      22.061   3.986  52.199  1.00  0.00     0.292 C 
HETATM    9  N4  UNL     1      23.100   4.824  51.589  1.00  0.00    -0.298 N 
ENDROOT
BRANCH   4  10
HETATM   10  N1  UNL     1      25.052  -0.041  53.854  1.00  0.00    -0.344 N 
HETATM   11  H14 UNL     1      24.247  -0.471  54.396  1.00  0.00     0.167 HD
BRANCH  10  12
HETATM   12  C12 UNL     1      26.428  -0.383  53.770  1.00  0.00     0.033 A 
HETATM   13  C13 UNL     1      27.206   0.264  54.737  1.00  0.00     0.032 A 
HETATM   14  C14 UNL     1      28.578   0.050  54.806  1.00  0.00     0.044 A 
HETATM   15  C15 UNL     1      29.174  -0.807  53.913  1.00  0.00     0.116 A 
HETATM   16  F1  UNL     1      30.509  -1.052  53.936  1.00  0.00    -0.206 F 
HETATM   17  C16 UNL     1      28.402  -1.458  52.944  1.00  0.00     0.044 A 
HETATM   18  C17 UNL     1      27.031  -1.226  52.896  1.00  0.00     0.032 A 
ENDBRANCH  10  12
ENDBRANCH   4  10
BRANCH   1  19
HETATM   19  C7  UNL     1      24.719   4.597  49.887  1.00  0.00     0.062 C 
BRANCH  19  20
HETATM   20  C6  UNL     1      25.959   3.939  49.370  1.00  0.00     0.033 C 
BRANCH  20  21
HETATM   21  C5  UNL     1      27.009   4.880  48.941  1.00  0.00    -0.025 C 
HETATM   22  C4  UNL     1      28.119   5.259  48.375  1.00  0.00     0.015 C 
BRANCH  22  23
HETATM   23  C3  UNL     1      29.011   6.349  48.063  1.00  0.00     0.006 C 
HETATM   24  C2  UNL     1      28.356   7.391  47.583  1.00  0.00    -0.012 C 
HETATM   25  C1  UNL     1      26.984   7.856  47.239  1.00  0.00     0.037 C 
HETATM   26 BR1  UNL     1      30.814   5.889  48.457  1.00  0.00    -0.051 Br
ENDBRANCH  22  23
ENDBRANCH  20  21
ENDBRANCH  19  20
ENDBRANCH   1  19
BRANCH   9  27
HETATM   27  N5  UNL     1      22.669   6.110  51.454  1.00  0.00    -0.241 NA
HETATM   28  C20 UNL     1      21.429   6.298  50.761  1.00  0.00     0.133 C 
HETATM   29  H22 UNL     1      23.372   6.771  51.092  1.00  0.00     0.146 HD
ENDBRANCH   9  27
TORSDOF 7
ENDMDL
MODEL 3
REMARK VINA RESULT:      -7.8      2.834      4.307
REMARK  7 active torsions:
REMARK  status: ('A' for Active; 'I' for Inactive)
REMARK    1  A    between atoms: C3_3  and  C4_5 
REMARK    2  A    between atoms: C5_6  and  C6_7 
REMARK    3  A    between atoms: C6_7  and  C7_8 
REMARK    4  A    between atoms: C7_8  and  C8_9 
REMARK    5  A    between atoms: C11_12  and  N1_13 
REMARK    6  A    between atoms: N1_13  and  C12_14 
REMARK    7  A    between atoms: N4_25  and  N5_26 
ROOT
HETATM    1  C8  UNL     1      23.370   2.954  50.331  1.00  0.00     0.022 C 
HETATM    2  C9  UNL     1      24.110   1.984  50.901  1.00  0.00     0.007 C 
HETATM    3  C10 UNL     1      25.133   1.515  51.849  1.00  0.00     0.107 C 
HETATM    4  C11 UNL     1      24.483   0.701  52.938  1.00  0.00     0.109 C 
HETATM    5  N2  UNL     1      23.267   1.072  53.327  1.00  0.00    -0.229 NA
HETATM    6  C18 UNL     1      22.687   2.223  52.662  1.00  0.00     0.230 C 
HETATM    7  N3  UNL     1      23.633   3.122  52.803  1.00  0.00    -0.262 NA
HETATM    8  C19 UNL     1      23.517   4.469  52.282  1.00  0.00     0.292 C 
HETATM    9  N4  UNL     1      23.464   4.313  50.823  1.00  0.00    -0.298 N 
ENDROOT
BRANCH   4  10
HETATM   10  N1  UNL     1      25.072  -0.397  53.623  1.00  0.00    -0.344 N 
HETATM   11  H14 UNL     1      24.296  -1.057  53.923  1.00  0.00     0.167 HD
BRANCH  10  12
HETATM   12  C12 UNL     1      26.482  -0.452  53.793  1.00  0.00     0.033 A 
HETATM   13  C13 UNL     1      27.096  -1.360  52.923  1.00  0.00     0.032 A 
HETATM   14  C14 UNL     1      28.474  -1.546  52.946  1.00  0.00     0.044 A 
HETATM   15  C15 UNL     1      29.238  -0.829  53.835  1.00  0.00     0.116 A 
HETATM   16  F1  UNL     1      30.586  -0.972  53.901  1.00  0.00    -0.206 F 
HETATM   17  C16 UNL     1      28.629   0.081  54.707  1.00  0.00     0.044 A 
HETATM   18  C17 UNL     1      27.249   0.249  54.664  1.00  0.00     0.032 A 
ENDBRANCH  10  12
ENDBRANCH   4  10
BRANCH   1  19
HETATM   19  C7  UNL     1      22.343   2.924  49.278  1.00  0.00     0.062 C 
BRANCH  19  20
HETATM   20  C6  UNL     1      21.895   1.544  48.915  1.00  0.00     0.033 C 
BRANCH  20  21
HETATM   21  C5  UNL     1      20.737   1.063  49.690  1.00  0.00    -0.025 C 
HETATM   22  C4  UNL     1      20.097   0.611  50.732  1.00  0.00     0.015 C 
BRANCH  22  23
HETATM   23  C3  UNL     1      18.839   0.177  51.286  1.00  0.00     0.006 C 
HETATM   24  C2  UNL     1      18.984  -0.296  52.511  1.00  0.00    -0.012 C 
HETATM   25  C1  UNL     1      20.015  -0.548  53.556  1.00  0.00     0.037 C 
HETATM   26 BR1  UNL     1      17.420   0.442  50.047  1.00  0.00    -0.051 Br
ENDBRANCH  22  23
ENDBRANCH  20  21
ENDBRANCH  19  20
ENDBRANCH   1  19
BRANCH   9  27
HETATM   27  N5  UNL     1      23.493   5.526  50.203  1.00  0.00    -0.241 NA
HETATM   28  C20 UNL     1      24.098   6.600  50.933  1.00  0.00     0.133 C 
HETATM   29  H22 UNL     1      22.594   5.837  49.808  1.00  0.00     0.146 HD
ENDBRANCH   9  27
TORSDOF 7
ENDMDL
MODEL 4
REMARK VINA RESULT:      -7.8      3.131      4.655
REMARK  7 active torsions:
REMARK  status: ('A' for Active; 'I' for Inactive)
REMARK    1  A    between atoms: C3_3  and  C4_5 
REMARK    2  A    between atoms: C5_6  and  C6_7 
REMARK    3  A    between atoms: C6_7  and  C7_8 
REMARK    4  A    between atoms: C7_8  and  C8_9 
REMARK    5  A    between atoms: C11_12  and  N1_13 
REMARK    6  A    between atoms: N1_13  and  C12_14 
REMARK    7  A    between atoms: N4_25  and  N5_26 
ROOT
HETATM    1  C8  UNL     1      22.751   3.067  50.057  1.00  0.00     0.022 C 
HETATM    2  C9  UNL     1      23.944   2.646  50.520  1.00  0.00     0.007 C 
HETATM    3  C10 UNL     1      25.334   2.882  50.937  1.00  0.00     0.107 C 
HETATM    4  C11 UNL     1      25.463   2.674  52.424  1.00  0.00     0.109 C 
HETATM    5  N2  UNL     1      24.424   3.024  53.176  1.00  0.00    -0.229 NA
HETATM    6  C18 UNL     1      23.270   3.571  52.489  1.00  0.00     0.230 C 
HETATM    7  N3  UNL     1      23.810   4.531  51.774  1.00  0.00    -0.262 NA
HETATM    8  C19 UNL     1      23.035   5.379  50.891  1.00  0.00     0.292 C 
HETATM    9  N4  UNL     1      22.519   4.482  49.851  1.00  0.00    -0.298 N 
ENDROOT
BRANCH   4  10
HETATM   10  N1  UNL     1      26.614   2.184  53.102  1.00  0.00    -0.344 N 
HETATM   11  H14 UNL     1      27.064   2.994  53.620  1.00  0.00     0.167 HD
BRANCH  10  12
HETATM   12  C12 UNL     1      26.963   0.811  52.999  1.00  0.00     0.033 A 
HETATM   13  C13 UNL     1      28.265   0.550  53.443  1.00  0.00     0.032 A 
HETATM   14  C14 UNL     1      28.780  -0.741  53.416  1.00  0.00     0.044 A 
HETATM   15  C15 UNL     1      28.000  -1.770  52.948  1.00  0.00     0.116 A 
HETATM   16  F1  UNL     1      28.453  -3.049  52.900  1.00  0.00    -0.206 F 
HETATM   17  C16 UNL     1      26.698  -1.516  52.504  1.00  0.00     0.044 A 
HETATM   18  C17 UNL     1      26.206  -0.215  52.541  1.00  0.00     0.032 A 
ENDBRANCH  10  12
ENDBRANCH   4  10
BRANCH   1  19
HETATM   19  C7  UNL     1      21.499   2.355  49.759  1.00  0.00     0.062 C 
BRANCH  19  20
HETATM   20  C6  UNL     1      21.632   0.865  49.795  1.00  0.00     0.033 C 
BRANCH  20  21
HETATM   21  C5  UNL     1      21.149   0.246  51.042  1.00  0.00    -0.025 C 
HETATM   22  C4  UNL     1      21.040   0.073  52.329  1.00  0.00     0.015 C 
BRANCH  22  23
HETATM   23  C3  UNL     1      20.441  -0.679  53.404  1.00  0.00     0.006 C 
HETATM   24  C2  UNL     1      21.337  -1.035  54.307  1.00  0.00    -0.012 C 
HETATM   25  C1  UNL     1      22.789  -0.933  54.622  1.00  0.00     0.037 C 
HETATM   26 BR1  UNL     1      18.570  -0.888  53.130  1.00  0.00    -0.051 Br
ENDBRANCH  22  23
ENDBRANCH  20  21
ENDBRANCH  19  20
ENDBRANCH   1  19
BRANCH   9  27
HETATM   27  N5  UNL     1      21.882   5.186  48.873  1.00  0.00    -0.241 NA
HETATM   28  C20 UNL     1      22.544   5.255  47.604  1.00  0.00     0.133 C 
HETATM   29  H22 UNL     1      21.562   6.126  49.149  1.00  0.00     0.146 HD
ENDBRANCH   9  27
TORSDOF 7
ENDMDL
MODEL 5
REMARK VINA RESULT:      -7.2      2.462      3.292
REMARK  7 active torsions:
REMARK  status: ('A' for Active; 'I' for Inactive)
REMARK    1  A    between atoms: C3_3  and  C4_5 
REMARK    2  A    between atoms: C5_6  and  C6_7 
REMARK    3  A    between atoms: C6_7  and  C7_8 
REMARK    4  A    between atoms: C7_8  and  C8_9 
REMARK    5  A    between atoms: C11_12  and  N1_13 
REMARK    6  A    between atoms: N1_13  and  C12_14 
REMARK    7  A    between atoms: N4_25  and  N5_26 
ROOT
HETATM    1  C8  UNL     1      23.064   4.289  51.586  1.00  0.00     0.022 C 
HETATM    2  C9  UNL     1      23.958   3.861  52.497  1.00  0.00     0.007 C 
HETATM    3  C10 UNL     1      24.581   2.809  53.314  1.00  0.00     0.107 C 
HETATM    4  C11 UNL     1      25.987   2.554  52.834  1.00  0.00     0.109 C 
HETATM    5  N2  UNL     1      26.210   2.670  51.529  1.00  0.00    -0.229 NA
HETATM    6  C18 UNL     1      25.078   3.029  50.697  1.00  0.00     0.230 C 
HETATM    7  N3  UNL     1      24.187   2.131  51.049  1.00  0.00    -0.262 NA
HETATM    8  C19 UNL     1      22.855   2.085  50.481  1.00  0.00     0.292 C 
HETATM    9  N4  UNL     1      22.212   3.332  50.910  1.00  0.00    -0.298 N 
ENDROOT
BRANCH   4  10
HETATM   10  N1  UNL     1      27.086   2.155  53.643  1.00  0.00    -0.344 N 
HETATM   11  H14 UNL     1      27.349   2.968  54.273  1.00  0.00     0.167 HD
BRANCH  10  12
HETATM   12  C12 UNL     1      27.625   0.847  53.508  1.00  0.00     0.033 A 
HETATM   13  C13 UNL     1      28.995   0.796  53.789  1.00  0.00     0.032 A 
HETATM   14  C14 UNL     1      29.693  -0.404  53.708  1.00  0.00     0.044 A 
HETATM   15  C15 UNL     1      29.028  -1.550  53.348  1.00  0.00     0.116 A 
HETATM   16  F1  UNL     1      29.661  -2.747  53.253  1.00  0.00    -0.206 F 
HETATM   17  C16 UNL     1      27.658  -1.506  53.067  1.00  0.00     0.044 A 
HETATM   18  C17 UNL     1      26.982  -0.293  53.155  1.00  0.00     0.032 A 
ENDBRANCH  10  12
ENDBRANCH   4  10
BRANCH   1  19
HETATM   19  C7  UNL     1      22.786   5.619  51.022  1.00  0.00     0.062 C 
BRANCH  19  20
HETATM   20  C6  UNL     1      23.828   6.641  51.353  1.00  0.00     0.033 C 
BRANCH  20  21
HETATM   21  C5  UNL     1      24.830   6.846  50.292  1.00  0.00    -0.025 C 
HETATM   22  C4  UNL     1      25.340   6.768  49.096  1.00  0.00     0.015 C 
BRANCH  22  23
HETATM   23  C3  UNL     1      26.450   7.081  48.229  1.00  0.00     0.006 C 
HETATM   24  C2  UNL     1      27.353   6.116  48.226  1.00  0.00    -0.012 C 
HETATM   25  C1  UNL     1      27.641   4.779  48.816  1.00  0.00     0.037 C 
HETATM   26 BR1  UNL     1      26.212   8.777  47.402  1.00  0.00    -0.051 Br
ENDBRANCH  22  23
ENDBRANCH  20  21
ENDBRANCH  19  20
ENDBRANCH   1  19
BRANCH   9  27
HETATM   27  N5  UNL     1      20.896   3.348  50.554  1.00  0.00    -0.241 NA
HETATM   28  C20 UNL     1      19.972   2.805  51.505  1.00  0.00     0.133 C 
HETATM   29  H22 UNL     1      20.692   2.972  49.617  1.00  0.00     0.146 HD
ENDBRANCH   9  27
TORSDOF 7
ENDMDL
MODEL 6
REMARK VINA RESULT:      -7.2      3.091      5.179
REMARK  7 active torsions:
REMARK  status: ('A' for Active; 'I' for Inactive)
REMARK    1  A    between atoms: C3_3  and  C4_5 
REMARK    2  A    between atoms: C5_6  and  C6_7 
REMARK    3  A    between atoms: C6_7  and  C7_8 
REMARK    4  A    between atoms: C7_8  and  C8_9 
REMARK    5  A    between atoms: C11_12  and  N1_13 
REMARK    6  A    between atoms: N1_13  and  C12_14 
REMARK    7  A    between atoms: N4_25  and  N5_26 
ROOT
HETATM    1  C8  UNL     1      24.479   4.642  50.122  1.00  0.00     0.022 C 
HETATM    2  C9  UNL     1      23.602   4.116  50.998  1.00  0.00     0.007 C 
HETATM    3  C10 UNL     1      22.246   3.955  51.543  1.00  0.00     0.107 C 
HETATM    4  C11 UNL     1      21.747   2.560  51.268  1.00  0.00     0.109 C 
HETATM    5  N2  UNL     1      22.129   1.996  50.126  1.00  0.00    -0.229 NA
HETATM    6  C18 UNL     1      22.987   2.781  49.259  1.00  0.00     0.230 C 
HETATM    7  N3  UNL     1      22.308   3.900  49.148  1.00  0.00    -0.262 NA
HETATM    8  C19 UNL     1      22.778   5.025  48.366  1.00  0.00     0.292 C 
HETATM    9  N4  UNL     1      24.000   5.478  49.040  1.00  0.00    -0.298 N 
ENDROOT
BRANCH   4  10
HETATM   10  N1  UNL     1      20.867   1.809  52.095  1.00  0.00    -0.344 N 
HETATM   11  H14 UNL     1      19.884   2.189  51.966  1.00  0.00     0.167 HD
BRANCH  10  12
HETATM   12  C12 UNL     1      21.378   0.757  52.901  1.00  0.00     0.033 A 
HETATM   13  C13 UNL     1      20.387  -0.146  53.304  1.00  0.00     0.032 A 
HETATM   14  C14 UNL     1      20.704  -1.242  54.099  1.00  0.00     0.044 A 
HETATM   15  C15 UNL     1      22.006  -1.437  54.492  1.00  0.00     0.116 A 
HETATM   16  F1  UNL     1      22.370  -2.490  55.268  1.00  0.00    -0.206 F 
HETATM   17  C16 UNL     1      23.002  -0.539  54.092  1.00  0.00     0.044 A 
HETATM   18  C17 UNL     1      22.658   0.550  53.296  1.00  0.00     0.032 A 
ENDBRANCH  10  12
ENDBRANCH   4  10
BRANCH   1  19
HETATM   19  C7  UNL     1      25.933   4.483  49.961  1.00  0.00     0.062 C 
BRANCH  19  20
HETATM   20  C6  UNL     1      26.340   3.116  49.506  1.00  0.00     0.033 C 
BRANCH  20  21
HETATM   21  C5  UNL     1      26.721   2.205  50.601  1.00  0.00    -0.025 C 
HETATM   22  C4  UNL     1      26.609   1.602  51.750  1.00  0.00     0.015 C 
BRANCH  22  23
HETATM   23  C3  UNL     1      27.174   0.659  52.684  1.00  0.00     0.006 C 
HETATM   24  C2  UNL     1      28.081   1.226  53.459  1.00  0.00    -0.012 C 
HETATM   25  C1  UNL     1      28.749   2.531  53.722  1.00  0.00     0.037 C 
HETATM   26 BR1  UNL     1      26.405  -1.066  52.459  1.00  0.00    -0.051 Br
ENDBRANCH  22  23
ENDBRANCH  20  21
ENDBRANCH  19  20
ENDBRANCH   1  19
BRANCH   9  27
HETATM   27  N5  UNL     1      24.468   6.628  48.478  1.00  0.00    -0.241 NA
HETATM   28  C20 UNL     1      24.429   7.801  49.299  1.00  0.00     0.133 C 
HETATM   29  H22 UNL     1      24.088   6.845  47.545  1.00  0.00     0.146 HD
ENDBRANCH   9  27
TORSDOF 7
ENDMDL
MODEL 7
REMARK VINA RESULT:      -7.1      3.724      6.564
REMARK  7 active torsions:
REMARK  status: ('A' for Active; 'I' for Inactive)
REMARK    1  A    between atoms: C3_3  and  C4_5 
REMARK    2  A    between atoms: C5_6  and  C6_7 
REMARK    3  A    between atoms: C6_7  and  C7_8 
REMARK    4  A    between atoms: C7_8  and  C8_9 
REMARK    5  A    between atoms: C11_12  and  N1_13 
REMARK    6  A    between atoms: N1_13  and  C12_14 
REMARK    7  A    between atoms: N4_25  and  N5_26 
ROOT
HETATM    1  C8  UNL     1      23.598   3.036  51.763  1.00  0.00     0.022 C 
HETATM    2  C9  UNL     1      24.104   3.609  50.654  1.00  0.00     0.007 C 
HETATM    3  C10 UNL     1      23.972   4.407  49.426  1.00  0.00     0.107 C 
HETATM    4  C11 UNL     1      24.686   5.723  49.593  1.00  0.00     0.109 C 
HETATM    5  N2  UNL     1      24.670   6.271  50.805  1.00  0.00    -0.229 NA
HETATM    6  C18 UNL     1      23.966   5.545  51.844  1.00  0.00     0.230 C 
HETATM    7  N3  UNL     1      22.793   5.346  51.289  1.00  0.00    -0.262 NA
HETATM    8  C19 UNL     1      21.721   4.636  51.957  1.00  0.00     0.292 C 
HETATM    9  N4  UNL     1      22.214   3.264  52.122  1.00  0.00    -0.298 N 
ENDROOT
BRANCH   4  10
HETATM   10  N1  UNL     1      25.335   6.458  48.562  1.00  0.00    -0.344 N 
HETATM   11  H14 UNL     1      24.610   7.068  48.083  1.00  0.00     0.167 HD
BRANCH  10  12
HETATM   12  C12 UNL     1      26.728   6.288  48.342  1.00  0.00     0.033 A 
HETATM   13  C13 UNL     1      27.338   7.437  47.825  1.00  0.00     0.032 A 
HETATM   14  C14 UNL     1      28.700   7.455  47.546  1.00  0.00     0.044 A 
HETATM   15  C15 UNL     1      29.453   6.330  47.781  1.00  0.00     0.116 A 
HETATM   16  F1  UNL     1      30.785   6.293  47.527  1.00  0.00    -0.206 F 
HETATM   17  C16 UNL     1      28.849   5.178  48.298  1.00  0.00     0.044 A 
HETATM   18  C17 UNL     1      27.484   5.186  48.569  1.00  0.00     0.032 A 
ENDBRANCH  10  12
ENDBRANCH   4  10
BRANCH   1  19
HETATM   19  C7  UNL     1      24.212   2.222  52.824  1.00  0.00     0.062 C 
BRANCH  19  20
HETATM   20  C6  UNL     1      24.653   0.868  52.361  1.00  0.00     0.033 C 
BRANCH  20  21
HETATM   21  C5  UNL     1      26.064   0.562  52.654  1.00  0.00    -0.025 C 
HETATM   22  C4  UNL     1      27.068   0.067  53.320  1.00  0.00     0.015 C 
BRANCH  22  23
HETATM   23  C3  UNL     1      28.497  -0.115  53.402  1.00  0.00     0.006 C 
HETATM   24  C2  UNL     1      29.123   1.033  53.592  1.00  0.00    -0.012 C 
HETATM   25  C1  UNL     1      28.873   2.492  53.758  1.00  0.00     0.037 C 
HETATM   26 BR1  UNL     1      28.964  -1.948  53.204  1.00  0.00    -0.051 Br
ENDBRANCH  22  23
ENDBRANCH  20  21
ENDBRANCH  19  20
ENDBRANCH   1  19
BRANCH   9  27
HETATM   27  N5  UNL     1      21.237   2.453  52.617  1.00  0.00    -0.241 NA
HETATM   28  C20 UNL     1      20.549   1.629  51.668  1.00  0.00     0.133 C 
HETATM   29  H22 UNL     1      20.554   2.917  53.233  1.00  0.00     0.146 HD
ENDBRANCH   9  27
TORSDOF 7
ENDMDL
MODEL 8
REMARK VINA RESULT:      -7.1      3.745      6.340
REMARK  7 active torsions:
REMARK  status: ('A' for Active; 'I' for Inactive)
REMARK    1  A    between atoms: C3_3  and  C4_5 
REMARK    2  A    between atoms: C5_6  and  C6_7 
REMARK    3  A    between atoms: C6_7  and  C7_8 
REMARK    4  A    between atoms: C7_8  and  C8_9 
REMARK    5  A    between atoms: C11_12  and  N1_13 
REMARK    6  A    between atoms: N1_13  and  C12_14 
REMARK    7  A    between atoms: N4_25  and  N5_26 
ROOT
HETATM    1  C8  UNL     1      25.156   3.262  50.751  1.00  0.00     0.022 C 
HETATM    2  C9  UNL     1      23.974   2.666  50.504  1.00  0.00     0.007 C 
HETATM    3  C10 UNL     1      22.961   1.629  50.756  1.00  0.00     0.107 C 
HETATM    4  C11 UNL     1      21.734   2.252  51.369  1.00  0.00     0.109 C 
HETATM    5  N2  UNL     1      21.923   3.279  52.191  1.00  0.00    -0.229 NA
HETATM    6  C18 UNL     1      23.293   3.697  52.417  1.00  0.00     0.230 C 
HETATM    7  N3  UNL     1      23.866   2.569  52.767  1.00  0.00    -0.262 NA
HETATM    8  C19 UNL     1      25.275   2.474  53.093  1.00  0.00     0.292 C 
HETATM    9  N4  UNL     1      25.980   2.797  51.847  1.00  0.00    -0.298 N 
ENDROOT
BRANCH   4  10
HETATM   10  N1  UNL     1      20.394   1.812  51.185  1.00  0.00    -0.344 N 
HETATM   11  H14 UNL     1      19.950   2.404  50.424  1.00  0.00     0.167 HD
BRANCH  10  12
HETATM   12  C12 UNL     1      19.887   0.743  51.971  1.00  0.00     0.033 A 
HETATM   13  C13 UNL     1      18.618   0.322  51.558  1.00  0.00     0.032 A 
HETATM   14  C14 UNL     1      17.965  -0.717  52.212  1.00  0.00     0.044 A 
HETATM   15  C15 UNL     1      18.574  -1.334  53.276  1.00  0.00     0.116 A 
HETATM   16  F1  UNL     1      17.982  -2.353  53.951  1.00  0.00    -0.206 F 
HETATM   17  C16 UNL     1      19.844  -0.919  53.695  1.00  0.00     0.044 A 
HETATM   18  C17 UNL     1      20.476   0.123  53.023  1.00  0.00     0.032 A 
ENDBRANCH  10  12
ENDBRANCH   4  10
BRANCH   1  19
HETATM   19  C7  UNL     1      25.820   4.428  50.149  1.00  0.00     0.062 C 
BRANCH  19  20
HETATM   20  C6  UNL     1      26.650   4.094  48.949  1.00  0.00     0.033 C 
BRANCH  20  21
HETATM   21  C5  UNL     1      27.757   5.033  48.701  1.00  0.00    -0.025 C 
HETATM   22  C4  UNL     1      28.899   5.438  48.221  1.00  0.00     0.015 C 
BRANCH  22  23
HETATM   23  C3  UNL     1      29.855   6.513  48.112  1.00  0.00     0.006 C 
HETATM   24  C2  UNL     1      29.383   7.513  47.389  1.00  0.00    -0.012 C 
HETATM   25  C1  UNL     1      28.178   7.940  46.623  1.00  0.00     0.037 C 
HETATM   26 BR1  UNL     1      31.456   6.099  49.051  1.00  0.00    -0.051 Br
ENDBRANCH  22  23
ENDBRANCH  20  21
ENDBRANCH  19  20
ENDBRANCH   1  19
BRANCH   9  27
HETATM   27  N5  UNL     1      27.323   2.607  51.985  1.00  0.00    -0.241 NA
HETATM   28  C20 UNL     1      27.771   2.134  53.261  1.00  0.00     0.133 C 
HETATM   29  H22 UNL     1      27.909   3.398  51.682  1.00  0.00     0.146 HD
ENDBRANCH   9  27
TORSDOF 7
ENDMDL
MODEL 9
REMARK VINA RESULT:      -7.1      3.461      6.238
REMARK  7 active torsions:
REMARK  status: ('A' for Active; 'I' for Inactive)
REMARK    1  A    between atoms: C3_3  and  C4_5 
REMARK    2  A    between atoms: C5_6  and  C6_7 
REMARK    3  A    between atoms: C6_7  and  C7_8 
REMARK    4  A    between atoms: C7_8  and  C8_9 
REMARK    5  A    between atoms: C11_12  and  N1_13 
REMARK    6  A    between atoms: N1_13  and  C12_14 
REMARK    7  A    between atoms: N4_25  and  N5_26 
ROOT
HETATM    1  C8  UNL     1      24.605   4.409  50.482  1.00  0.00     0.022 C 
HETATM    2  C9  UNL     1      23.572   3.957  51.218  1.00  0.00     0.007 C 
HETATM    3  C10 UNL     1      22.450   4.158  52.147  1.00  0.00     0.107 C 
HETATM    4  C11 UNL     1      21.145   3.918  51.431  1.00  0.00     0.109 C 
HETATM    5  N2  UNL     1      21.084   4.272  50.151  1.00  0.00    -0.229 NA
HETATM    6  C18 UNL     1      22.279   4.854  49.572  1.00  0.00     0.230 C 
HETATM    7  N3  UNL     1      22.550   5.818  50.422  1.00  0.00    -0.262 NA
HETATM    8  C19 UNL     1      23.691   6.699  50.268  1.00  0.00     0.292 C 
HETATM    9  N4  UNL     1      24.866   5.832  50.409  1.00  0.00    -0.298 N 
ENDROOT
BRANCH   4  10
HETATM   10  N1  UNL     1      19.959   3.392  52.012  1.00  0.00    -0.344 N 
HETATM   11  H14 UNL     1      19.201   4.133  51.949  1.00  0.00     0.167 HD
BRANCH  10  12
HETATM   12  C12 UNL     1      19.955   2.076  52.546  1.00  0.00     0.033 A 
HETATM   13  C13 UNL     1      19.125   1.205  51.831  1.00  0.00     0.032 A 
HETATM   14  C14 UNL     1      18.997  -0.127  52.209  1.00  0.00     0.044 A 
HETATM   15  C15 UNL     1      19.695  -0.590  53.297  1.00  0.00     0.116 A 
HETATM   16  F1  UNL     1      19.606  -1.881  53.710  1.00  0.00    -0.206 F 
HETATM   17  C16 UNL     1      20.527   0.275  54.016  1.00  0.00     0.044 A 
HETATM   18  C17 UNL     1      20.638   1.603  53.617  1.00  0.00     0.032 A 
ENDBRANCH  10  12
ENDBRANCH   4  10
BRANCH   1  19
HETATM   19  C7  UNL     1      25.565   3.728  49.600  1.00  0.00     0.062 C 
BRANCH  19  20
HETATM   20  C6  UNL     1      26.756   3.178  50.320  1.00  0.00     0.033 C 
BRANCH  20  21
HETATM   21  C5  UNL     1      26.453   2.040  51.206  1.00  0.00    -0.025 C 
HETATM   22  C4  UNL     1      26.428   1.363  52.319  1.00  0.00     0.015 C 
BRANCH  22  23
HETATM   23  C3  UNL     1      26.032   0.148  52.990  1.00  0.00     0.006 C 
HETATM   24  C2  UNL     1      27.078  -0.589  53.319  1.00  0.00    -0.012 C 
HETATM   25  C1  UNL     1      28.565  -0.614  53.242  1.00  0.00     0.037 C 
HETATM   26 BR1  UNL     1      24.140   0.048  53.157  1.00  0.00    -0.051 Br
ENDBRANCH  22  23
ENDBRANCH  20  21
ENDBRANCH  19  20
ENDBRANCH   1  19
BRANCH   9  27
HETATM   27  N5  UNL     1      26.014   6.568  50.423  1.00  0.00    -0.241 NA
HETATM   28  C20 UNL     1      26.275   7.363  49.260  1.00  0.00     0.133 C 
HETATM   29  H22 UNL     1      26.863   6.049  50.687  1.00  0.00     0.146 HD
ENDBRANCH   9  27
TORSDOF 7
ENDMDL
