MODEL 1
REMARK VINA RESULT:      -8.0      0.000      0.000
REMARK  5 active torsions:
REMARK  status: ('A' for Active; 'I' for Inactive)
REMARK    1  A    between atoms: O1_2  and  C2_3 
REMARK    2  A    between atoms: C10_12  and  N2_13 
REMARK    3  A    between atoms: N2_13  and  C11_14 
REMARK    4  A    between atoms: C11_14  and  C12_15 
REMARK    5  A    between atoms: C13_16  and  C14_17 
ROOT
HETATM    1  C2  UNL     1      20.183  -0.584  53.524  1.00  0.00     0.069 A 
HETATM    2  C3  UNL     1      20.705  -1.635  54.248  1.00  0.00     0.039 A 
HETATM    3  C4  UNL     1      22.058  -1.626  54.516  1.00  0.00     0.040 A 
HETATM    4  C5  UNL     1      22.838  -0.574  54.055  1.00  0.00     0.086 A 
HETATM    5  C6  UNL     1      22.341   0.488  53.331  1.00  0.00    -0.004 A 
HETATM    6  C7  UNL     1      20.972   0.455  53.073  1.00  0.00     0.048 A 
HETATM    7  C8  UNL     1      22.875   1.705  52.723  1.00  0.00     0.161 C 
HETATM    8  N1  UNL     1      24.280   1.942  52.962  1.00  0.00    -0.379 N 
HETATM    9  C9  UNL     1      25.361   1.062  53.223  1.00  0.00     0.128 A 
HETATM   10  C10 UNL     1      26.535   1.580  52.724  1.00  0.00     0.156 A 
HETATM   11  N3  UNL     1      27.608   0.805  52.943  1.00  0.00    -0.222 NA
HETATM   12  C15 UNL     1      27.526  -0.369  53.591  1.00  0.00     0.238 A 
HETATM   13  N4  UNL     1      26.389  -0.873  54.074  1.00  0.00    -0.215 NA
HETATM   14  C16 UNL     1      25.262  -0.157  53.898  1.00  0.00     0.202 A 
HETATM   15  O2  UNL     1      24.147  -0.780  54.441  1.00  0.00    -0.289 OA
HETATM   16  H9  UNL     1      24.605   2.948  52.950  1.00  0.00     0.160 HD
ENDROOT
BRANCH  10  17
HETATM   17  N2  UNL     1      26.646   2.813  52.025  1.00  0.00    -0.369 N 
HETATM   18  H10 UNL     1      26.729   3.787  52.318  1.00  0.00     0.161 HD
BRANCH  17  19
HETATM   19  C11 UNL     1      26.633   2.719  50.577  1.00  0.00     0.148 C 
BRANCH  19  20
HETATM   20  C12 UNL     1      25.573   3.496  49.939  1.00  0.00    -0.009 C 
HETATM   21  C13 UNL     1      25.652   4.610  49.240  1.00  0.00     0.002 C 
BRANCH  21  22
HETATM   22  C14 UNL     1      26.893   5.365  48.926  1.00  0.00     0.249 C 
HETATM   23  F1  UNL     1      27.836   4.566  48.303  1.00  0.00    -0.251 F 
ENDBRANCH  21  22
ENDBRANCH  19  20
ENDBRANCH  17  19
ENDBRANCH  10  17
BRANCH   1  24
HETATM   24  O1  UNL     1      18.808  -0.547  53.224  1.00  0.00    -0.356 OA
HETATM   25  C1  UNL     1      17.998  -1.691  53.426  1.00  0.00     0.210 C 
ENDBRANCH   1  24
TORSDOF 5
ENDMDL
MODEL 2
REMARK VINA RESULT:      -7.8      5.234      9.037
REMARK  5 active torsions:
REMARK  status: ('A' for Active; 'I' for Inactive)
REMARK    1  A    between atoms: O1_2  and  C2_3 
REMARK    2  A    between atoms: C10_12  and  N2_13 
REMARK    3  A    between atoms: N2_13  and  C11_14 
REMARK    4  A    between atoms: C11_14  and  C12_15 
REMARK    5  A    between atoms: C13_16  and  C14_17 
ROOT
HETATM    1  C2  UNL     1      24.915  -0.314  53.958  1.00  0.00     0.069 A 
HETATM    2  C3  UNL     1      24.891   0.667  52.989  1.00  0.00     0.039 A 
HETATM    3  C4  UNL     1      23.665   1.048  52.486  1.00  0.00     0.040 A 
HETATM    4  C5  UNL     1      22.512   0.442  52.963  1.00  0.00     0.086 A 
HETATM    5  C6  UNL     1      22.509  -0.540  53.931  1.00  0.00    -0.004 A 
HETATM    6  C7  UNL     1      23.759  -0.908  54.423  1.00  0.00     0.048 A 
HETATM    7  C8  UNL     1      21.507  -1.348  54.624  1.00  0.00     0.161 C 
HETATM    8  N1  UNL     1      20.135  -1.040  54.291  1.00  0.00    -0.379 N 
HETATM    9  C9  UNL     1      19.540  -0.495  53.125  1.00  0.00     0.128 A 
HETATM   10  C10 UNL     1      18.264  -0.987  52.961  1.00  0.00     0.156 A 
HETATM   11  N3  UNL     1      17.632  -0.506  51.878  1.00  0.00    -0.222 NA
HETATM   12  C15 UNL     1      18.207   0.372  51.041  1.00  0.00     0.238 A 
HETATM   13  N4  UNL     1      19.444   0.848  51.198  1.00  0.00    -0.215 NA
HETATM   14  C16 UNL     1      20.149   0.419  52.261  1.00  0.00     0.202 A 
HETATM   15  O2  UNL     1      21.417   0.980  52.320  1.00  0.00    -0.289 OA
HETATM   16  H9  UNL     1      19.405  -1.242  55.029  1.00  0.00     0.160 HD
ENDROOT
BRANCH  10  17
HETATM   17  N2  UNL     1      17.639  -1.926  53.824  1.00  0.00    -0.369 N 
HETATM   18  H10 UNL     1      17.659  -2.082  54.833  1.00  0.00     0.161 HD
BRANCH  17  19
HETATM   19  C11 UNL     1      16.781  -2.903  53.179  1.00  0.00     0.148 C 
BRANCH  19  20
HETATM   20  C12 UNL     1      17.065  -4.285  53.556  1.00  0.00    -0.009 C 
HETATM   21  C13 UNL     1      16.245  -5.224  53.984  1.00  0.00     0.002 C 
BRANCH  21  22
HETATM   22  C14 UNL     1      14.780  -5.085  54.192  1.00  0.00     0.249 C 
HETATM   23  F1  UNL     1      14.458  -5.007  55.536  1.00  0.00    -0.251 F 
ENDBRANCH  21  22
ENDBRANCH  19  20
ENDBRANCH  17  19
ENDBRANCH  10  17
BRANCH   1  24
HETATM   24  O1  UNL     1      26.141  -0.739  54.503  1.00  0.00    -0.356 OA
HETATM   25  C1  UNL     1      27.253   0.137  54.537  1.00  0.00     0.210 C 
ENDBRANCH   1  24
TORSDOF 5
ENDMDL
MODEL 3
REMARK VINA RESULT:      -7.6      3.134      5.289
REMARK  5 active torsions:
REMARK  status: ('A' for Active; 'I' for Inactive)
REMARK    1  A    between atoms: O1_2  and  C2_3 
REMARK    2  A    between atoms: C10_12  and  N2_13 
REMARK    3  A    between atoms: N2_13  and  C11_14 
REMARK    4  A    between atoms: C11_14  and  C12_15 
REMARK    5  A    between atoms: C13_16  and  C14_17 
ROOT
HETATM    1  C2  UNL     1      26.739  -0.685  53.125  1.00  0.00     0.069 A 
HETATM    2  C3  UNL     1      25.438  -0.984  53.470  1.00  0.00     0.039 A 
HETATM    3  C4  UNL     1      24.454  -0.081  53.123  1.00  0.00     0.040 A 
HETATM    4  C5  UNL     1      24.800   1.081  52.448  1.00  0.00     0.086 A 
HETATM    5  C6  UNL     1      26.092   1.403  52.092  1.00  0.00    -0.004 A 
HETATM    6  C7  UNL     1      27.067   0.476  52.453  1.00  0.00     0.048 A 
HETATM    7  C8  UNL     1      26.764   2.503  51.403  1.00  0.00     0.161 C 
HETATM    8  N1  UNL     1      25.886   3.527  50.885  1.00  0.00    -0.379 N 
HETATM    9  C9  UNL     1      24.601   3.971  51.289  1.00  0.00     0.128 A 
HETATM   10  C10 UNL     1      24.444   5.310  51.010  1.00  0.00     0.156 A 
HETATM   11  N3  UNL     1      23.244   5.801  51.357  1.00  0.00    -0.222 NA
HETATM   12  C15 UNL     1      22.294   5.041  51.925  1.00  0.00     0.238 A 
HETATM   13  N4  UNL     1      22.445   3.743  52.198  1.00  0.00    -0.215 NA
HETATM   14  C16 UNL     1      23.621   3.170  51.881  1.00  0.00     0.202 A 
HETATM   15  O2  UNL     1      23.661   1.822  52.210  1.00  0.00    -0.289 OA
HETATM   16  H9  UNL     1      26.227   4.071  50.044  1.00  0.00     0.160 HD
ENDROOT
BRANCH  10  17
HETATM   17  N2  UNL     1      25.438   6.138  50.421  1.00  0.00    -0.369 N 
HETATM   18  H10 UNL     1      26.238   6.654  50.789  1.00  0.00     0.161 HD
BRANCH  17  19
HETATM   19  C11 UNL     1      25.329   6.331  48.986  1.00  0.00     0.148 C 
BRANCH  19  20
HETATM   20  C12 UNL     1      26.499   6.962  48.380  1.00  0.00    -0.009 C 
HETATM   21  C13 UNL     1      27.703   6.470  48.169  1.00  0.00     0.002 C 
BRANCH  21  22
HETATM   22  C14 UNL     1      28.168   5.101  48.515  1.00  0.00     0.249 C 
HETATM   23  F1  UNL     1      29.328   4.768  47.838  1.00  0.00    -0.251 F 
ENDBRANCH  21  22
ENDBRANCH  19  20
ENDBRANCH  17  19
ENDBRANCH  10  17
BRANCH   1  24
HETATM   24  O1  UNL     1      27.779  -1.573  53.456  1.00  0.00    -0.356 OA
HETATM   25  C1  UNL     1      29.125  -1.133  53.458  1.00  0.00     0.210 C 
ENDBRANCH   1  24
TORSDOF 5
ENDMDL
MODEL 4
REMARK VINA RESULT:      -7.3      3.558      6.046
REMARK  5 active torsions:
REMARK  status: ('A' for Active; 'I' for Inactive)
REMARK    1  A    between atoms: O1_2  and  C2_3 
REMARK    2  A    between atoms: C10_12  and  N2_13 
REMARK    3  A    between atoms: N2_13  and  C11_14 
REMARK    4  A    between atoms: C11_14  and  C12_15 
REMARK    5  A    between atoms: C13_16  and  C14_17 
ROOT
HETATM    1  C2  UNL     1      27.496  -0.283  53.554  1.00  0.00     0.069 A 
HETATM    2  C3  UNL     1      27.983   0.985  53.797  1.00  0.00     0.039 A 
HETATM    3  C4  UNL     1      27.094   2.038  53.744  1.00  0.00     0.040 A 
HETATM    4  C5  UNL     1      25.760   1.793  53.452  1.00  0.00     0.086 A 
HETATM    5  C6  UNL     1      25.249   0.537  53.207  1.00  0.00    -0.004 A 
HETATM    6  C7  UNL     1      26.166  -0.511  53.266  1.00  0.00     0.048 A 
HETATM    7  C8  UNL     1      23.944  -0.038  52.883  1.00  0.00     0.161 C 
HETATM    8  N1  UNL     1      22.850   0.906  52.859  1.00  0.00    -0.379 N 
HETATM    9  C9  UNL     1      22.802   2.299  52.597  1.00  0.00     0.128 A 
HETATM   10  C10 UNL     1      21.598   2.640  52.024  1.00  0.00     0.156 A 
HETATM   11  N3  UNL     1      21.475   3.950  51.755  1.00  0.00    -0.222 NA
HETATM   12  C15 UNL     1      22.449   4.833  52.027  1.00  0.00     0.238 A 
HETATM   13  N4  UNL     1      23.618   4.504  52.582  1.00  0.00    -0.215 NA
HETATM   14  C16 UNL     1      23.823   3.209  52.885  1.00  0.00     0.202 A 
HETATM   15  O2  UNL     1      25.070   2.987  53.455  1.00  0.00    -0.289 OA
HETATM   16  H9  UNL     1      21.886   0.528  53.073  1.00  0.00     0.160 HD
ENDROOT
BRANCH  10  17
HETATM   17  N2  UNL     1      20.557   1.723  51.715  1.00  0.00    -0.369 N 
HETATM   18  H10 UNL     1      20.072   1.000  52.246  1.00  0.00     0.161 HD
BRANCH  17  19
HETATM   19  C11 UNL     1      20.046   1.783  50.358  1.00  0.00     0.148 C 
BRANCH  19  20
HETATM   20  C12 UNL     1      20.787   0.959  49.405  1.00  0.00    -0.009 C 
HETATM   21  C13 UNL     1      21.746   1.301  48.570  1.00  0.00     0.002 C 
BRANCH  21  22
HETATM   22  C14 UNL     1      22.321   2.661  48.396  1.00  0.00     0.249 C 
HETATM   23  F1  UNL     1      23.419   2.861  49.214  1.00  0.00    -0.251 F 
ENDBRANCH  21  22
ENDBRANCH  19  20
ENDBRANCH  17  19
ENDBRANCH  10  17
BRANCH   1  24
HETATM   24  O1  UNL     1      28.362  -1.392  53.597  1.00  0.00    -0.356 OA
HETATM   25  C1  UNL     1      29.765  -1.205  53.635  1.00  0.00     0.210 C 
ENDBRANCH   1  24
TORSDOF 5
ENDMDL
MODEL 5
REMARK VINA RESULT:      -7.2      3.236      4.792
REMARK  5 active torsions:
REMARK  status: ('A' for Active; 'I' for Inactive)
REMARK    1  A    between atoms: O1_2  and  C2_3 
REMARK    2  A    between atoms: C10_12  and  N2_13 
REMARK    3  A    between atoms: N2_13  and  C11_14 
REMARK    4  A    between atoms: C11_14  and  C12_15 
REMARK    5  A    between atoms: C13_16  and  C14_17 
ROOT
HETATM    1  C2  UNL     1      17.247  -0.131  50.557  1.00  0.00     0.069 A 
HETATM    2  C3  UNL     1      16.801  -0.732  51.716  1.00  0.00     0.039 A 
HETATM    3  C4  UNL     1      17.692  -0.861  52.760  1.00  0.00     0.040 A 
HETATM    4  C5  UNL     1      18.989  -0.391  52.614  1.00  0.00     0.086 A 
HETATM    5  C6  UNL     1      19.459   0.213  51.467  1.00  0.00    -0.004 A 
HETATM    6  C7  UNL     1      18.540   0.332  50.427  1.00  0.00     0.048 A 
HETATM    7  C8  UNL     1      20.720   0.796  51.011  1.00  0.00     0.161 C 
HETATM    8  N1  UNL     1      21.772   0.829  52.000  1.00  0.00    -0.379 N 
HETATM    9  C9  UNL     1      22.039   0.014  53.131  1.00  0.00     0.128 A 
HETATM   10  C10 UNL     1      23.395  -0.057  53.363  1.00  0.00     0.156 A 
HETATM   11  N3  UNL     1      23.726  -0.805  54.427  1.00  0.00    -0.222 NA
HETATM   12  C15 UNL     1      22.805  -1.423  55.185  1.00  0.00     0.238 A 
HETATM   13  N4  UNL     1      21.491  -1.356  54.960  1.00  0.00    -0.215 NA
HETATM   14  C16 UNL     1      21.072  -0.624  53.912  1.00  0.00     0.202 A 
HETATM   15  O2  UNL     1      19.690  -0.628  53.778  1.00  0.00    -0.289 OA
HETATM   16  H9  UNL     1      22.500   1.590  51.902  1.00  0.00     0.160 HD
ENDROOT
BRANCH  10  17
HETATM   17  N2  UNL     1      24.389   0.576  52.569  1.00  0.00    -0.369 N 
HETATM   18  H10 UNL     1      24.369   1.085  51.684  1.00  0.00     0.161 HD
BRANCH  17  19
HETATM   19  C11 UNL     1      25.745   0.504  53.080  1.00  0.00     0.148 C 
BRANCH  19  20
HETATM   20  C12 UNL     1      26.519  -0.620  52.559  1.00  0.00    -0.009 C 
HETATM   21  C13 UNL     1      27.734  -1.021  52.876  1.00  0.00     0.002 C 
BRANCH  21  22
HETATM   22  C14 UNL     1      28.634  -0.395  53.879  1.00  0.00     0.249 C 
HETATM   23  F1  UNL     1      29.807  -1.113  54.033  1.00  0.00    -0.251 F 
ENDBRANCH  21  22
ENDBRANCH  19  20
ENDBRANCH  17  19
ENDBRANCH  10  17
BRANCH   1  24
HETATM   24  O1  UNL     1      16.376   0.024  49.462  1.00  0.00    -0.356 OA
HETATM   25  C1  UNL     1      15.873  -1.109  48.778  1.00  0.00     0.210 C 
ENDBRANCH   1  24
TORSDOF 5
ENDMDL
MODEL 6
REMARK VINA RESULT:      -7.2      3.584      7.164
REMARK  5 active torsions:
REMARK  status: ('A' for Active; 'I' for Inactive)
REMARK    1  A    between atoms: O1_2  and  C2_3 
REMARK    2  A    between atoms: C10_12  and  N2_13 
REMARK    3  A    between atoms: N2_13  and  C11_14 
REMARK    4  A    between atoms: C11_14  and  C12_15 
REMARK    5  A    between atoms: C13_16  and  C14_17 
ROOT
HETATM    1  C2  UNL     1      28.640   0.329  53.654  1.00  0.00     0.069 A 
HETATM    2  C3  UNL     1      28.728   1.700  53.533  1.00  0.00     0.039 A 
HETATM    3  C4  UNL     1      27.553   2.415  53.432  1.00  0.00     0.040 A 
HETATM    4  C5  UNL     1      26.339   1.743  53.453  1.00  0.00     0.086 A 
HETATM    5  C6  UNL     1      26.225   0.374  53.573  1.00  0.00    -0.004 A 
HETATM    6  C7  UNL     1      27.425  -0.326  53.674  1.00  0.00     0.048 A 
HETATM    7  C8  UNL     1      25.139  -0.603  53.626  1.00  0.00     0.161 C 
HETATM    8  N1  UNL     1      23.809  -0.040  53.614  1.00  0.00    -0.379 N 
HETATM    9  C9  UNL     1      23.294   1.171  53.084  1.00  0.00     0.128 A 
HETATM   10  C10 UNL     1      21.985   1.007  52.689  1.00  0.00     0.156 A 
HETATM   11  N3  UNL     1      21.426   2.117  52.183  1.00  0.00    -0.222 NA
HETATM   12  C15 UNL     1      22.097   3.276  52.079  1.00  0.00     0.238 A 
HETATM   13  N4  UNL     1      23.366   3.437  52.460  1.00  0.00    -0.215 NA
HETATM   14  C16 UNL     1      24.003   2.371  52.980  1.00  0.00     0.202 A 
HETATM   15  O2  UNL     1      25.313   2.658  53.339  1.00  0.00    -0.289 OA
HETATM   16  H9  UNL     1      23.044  -0.604  54.079  1.00  0.00     0.160 HD
ENDROOT
BRANCH  10  17
HETATM   17  N2  UNL     1      21.258  -0.211  52.777  1.00  0.00    -0.369 N 
HETATM   18  H10 UNL     1      21.349  -1.123  52.328  1.00  0.00     0.161 HD
BRANCH  17  19
HETATM   19  C11 UNL     1      20.124  -0.204  53.683  1.00  0.00     0.148 C 
BRANCH  19  20
HETATM   20  C12 UNL     1      18.962  -0.938  53.188  1.00  0.00    -0.009 C 
HETATM   21  C13 UNL     1      18.123  -0.627  52.220  1.00  0.00     0.002 C 
BRANCH  21  22
HETATM   22  C14 UNL     1      18.169   0.594  51.373  1.00  0.00     0.249 C 
HETATM   23  F1  UNL     1      19.107   0.480  50.362  1.00  0.00    -0.251 F 
ENDBRANCH  21  22
ENDBRANCH  19  20
ENDBRANCH  17  19
ENDBRANCH  10  17
BRANCH   1  24
HETATM   24  O1  UNL     1      29.810  -0.447  53.760  1.00  0.00    -0.356 OA
HETATM   25  C1  UNL     1      29.773  -1.840  53.511  1.00  0.00     0.210 C 
ENDBRANCH   1  24
TORSDOF 5
ENDMDL
MODEL 7
REMARK VINA RESULT:      -7.1      3.602      7.063
REMARK  5 active torsions:
REMARK  status: ('A' for Active; 'I' for Inactive)
REMARK    1  A    between atoms: O1_2  and  C2_3 
REMARK    2  A    between atoms: C10_12  and  N2_13 
REMARK    3  A    between atoms: N2_13  and  C11_14 
REMARK    4  A    between atoms: C11_14  and  C12_15 
REMARK    5  A    between atoms: C13_16  and  C14_17 
ROOT
HETATM    1  C2  UNL     1      28.421   0.245  53.878  1.00  0.00     0.069 A 
HETATM    2  C3  UNL     1      28.748   1.516  53.453  1.00  0.00     0.039 A 
HETATM    3  C4  UNL     1      27.757   2.276  52.868  1.00  0.00     0.040 A 
HETATM    4  C5  UNL     1      26.482   1.745  52.726  1.00  0.00     0.086 A 
HETATM    5  C6  UNL     1      26.131   0.478  53.142  1.00  0.00    -0.004 A 
HETATM    6  C7  UNL     1      27.149  -0.269  53.730  1.00  0.00     0.048 A 
HETATM    7  C8  UNL     1      24.924  -0.347  53.139  1.00  0.00     0.161 C 
HETATM    8  N1  UNL     1      23.739   0.305  52.632  1.00  0.00    -0.379 N 
HETATM    9  C9  UNL     1      23.560   1.362  51.703  1.00  0.00     0.128 A 
HETATM   10  C10 UNL     1      22.372   1.210  51.024  1.00  0.00     0.156 A 
HETATM   11  N3  UNL     1      22.127   2.182  50.131  1.00  0.00    -0.222 NA
HETATM   12  C15 UNL     1      22.977   3.203  49.930  1.00  0.00     0.238 A 
HETATM   13  N4  UNL     1      24.129   3.351  50.587  1.00  0.00    -0.215 NA
HETATM   14  C16 UNL     1      24.451   2.419  51.503  1.00  0.00     0.202 A 
HETATM   15  O2  UNL     1      25.668   2.678  52.120  1.00  0.00    -0.289 OA
HETATM   16  H9  UNL     1      22.808  -0.039  52.998  1.00  0.00     0.160 HD
ENDROOT
BRANCH  10  17
HETATM   17  N2  UNL     1      21.463   0.133  51.209  1.00  0.00    -0.369 N 
HETATM   18  H10 UNL     1      21.487  -0.860  50.977  1.00  0.00     0.161 HD
BRANCH  17  19
HETATM   19  C11 UNL     1      20.208   0.471  51.855  1.00  0.00     0.148 C 
BRANCH  19  20
HETATM   20  C12 UNL     1      20.339   0.808  53.271  1.00  0.00    -0.009 C 
HETATM   21  C13 UNL     1      20.660   0.039  54.291  1.00  0.00     0.002 C 
BRANCH  21  22
HETATM   22  C14 UNL     1      20.977  -1.412  54.234  1.00  0.00     0.249 C 
HETATM   23  F1  UNL     1      22.102  -1.721  54.979  1.00  0.00    -0.251 F 
ENDBRANCH  21  22
ENDBRANCH  19  20
ENDBRANCH  17  19
ENDBRANCH  10  17
BRANCH   1  24
HETATM   24  O1  UNL     1      29.398  -0.570  54.482  1.00  0.00    -0.356 OA
HETATM   25  C1  UNL     1      30.133  -1.501  53.709  1.00  0.00     0.210 C 
ENDBRANCH   1  24
TORSDOF 5
ENDMDL
MODEL 8
REMARK VINA RESULT:      -7.0      3.867      7.866
REMARK  5 active torsions:
REMARK  status: ('A' for Active; 'I' for Inactive)
REMARK    1  A    between atoms: O1_2  and  C2_3 
REMARK    2  A    between atoms: C10_12  and  N2_13 
REMARK    3  A    between atoms: N2_13  and  C11_14 
REMARK    4  A    between atoms: C11_14  and  C12_15 
REMARK    5  A    between atoms: C13_16  and  C14_17 
ROOT
HETATM    1  C2  UNL     1      26.366   6.922  48.101  1.00  0.00     0.069 A 
HETATM    2  C3  UNL     1      27.608   6.322  48.079  1.00  0.00     0.039 A 
HETATM    3  C4  UNL     1      27.748   5.105  48.712  1.00  0.00     0.040 A 
HETATM    4  C5  UNL     1      26.652   4.531  49.341  1.00  0.00     0.086 A 
HETATM    5  C6  UNL     1      25.402   5.109  49.376  1.00  0.00    -0.004 A 
HETATM    6  C7  UNL     1      25.285   6.338  48.730  1.00  0.00     0.048 A 
HETATM    7  C8  UNL     1      24.091   4.778  49.932  1.00  0.00     0.161 C 
HETATM    8  N1  UNL     1      24.008   3.487  50.575  1.00  0.00    -0.379 N 
HETATM    9  C9  UNL     1      24.983   2.681  51.218  1.00  0.00     0.128 A 
HETATM   10  C10 UNL     1      24.406   1.938  52.224  1.00  0.00     0.156 A 
HETATM   11  N3  UNL     1      25.268   1.141  52.874  1.00  0.00    -0.222 NA
HETATM   12  C15 UNL     1      26.573   1.086  52.559  1.00  0.00     0.238 A 
HETATM   13  N4  UNL     1      27.133   1.806  51.585  1.00  0.00    -0.215 NA
HETATM   14  C16 UNL     1      26.338   2.633  50.881  1.00  0.00     0.202 A 
HETATM   15  O2  UNL     1      27.030   3.327  49.898  1.00  0.00    -0.289 OA
HETATM   16  H9  UNL     1      23.060   3.018  50.589  1.00  0.00     0.160 HD
ENDROOT
BRANCH  10  17
HETATM   17  N2  UNL     1      23.032   1.988  52.584  1.00  0.00    -0.369 N 
HETATM   18  H10 UNL     1      22.402   2.740  52.867  1.00  0.00     0.161 HD
BRANCH  17  19
HETATM   19  C11 UNL     1      22.331   0.718  52.573  1.00  0.00     0.148 C 
BRANCH  19  20
HETATM   20  C12 UNL     1      21.325   0.583  53.624  1.00  0.00    -0.009 C 
HETATM   21  C13 UNL     1      21.217  -0.327  54.570  1.00  0.00     0.002 C 
BRANCH  21  22
HETATM   22  C14 UNL     1      22.133  -1.476  54.796  1.00  0.00     0.249 C 
HETATM   23  F1  UNL     1      23.063  -1.202  55.785  1.00  0.00    -0.251 F 
ENDBRANCH  21  22
ENDBRANCH  19  20
ENDBRANCH  17  19
ENDBRANCH  10  17
BRANCH   1  24
HETATM   24  O1  UNL     1      26.171   8.165  47.470  1.00  0.00    -0.356 OA
HETATM   25  C1  UNL     1      25.289   9.122  48.027  1.00  0.00     0.210 C 
ENDBRANCH   1  24
TORSDOF 5
ENDMDL
MODEL 9
REMARK VINA RESULT:      -7.0      2.934      5.790
REMARK  5 active torsions:
REMARK  status: ('A' for Active; 'I' for Inactive)
REMARK    1  A    between atoms: O1_2  and  C2_3 
REMARK    2  A    between atoms: C10_12  and  N2_13 
REMARK    3  A    between atoms: N2_13  and  C11_14 
REMARK    4  A    between atoms: C11_14  and  C12_15 
REMARK    5  A    between atoms: C13_16  and  C14_17 
ROOT
HETATM    1  C2  UNL     1      26.896   1.005  54.267  1.00  0.00     0.069 A 
HETATM    2  C3  UNL     1      26.516  -0.184  54.853  1.00  0.00     0.039 A 
HETATM    3  C4  UNL     1      25.256  -0.669  54.571  1.00  0.00     0.040 A 
HETATM    4  C5  UNL     1      24.424   0.044  53.719  1.00  0.00     0.086 A 
HETATM    5  C6  UNL     1      24.780   1.234  53.121  1.00  0.00    -0.004 A 
HETATM    6  C7  UNL     1      26.057   1.703  53.422  1.00  0.00     0.048 A 
HETATM    7  C8  UNL     1      24.161   2.195  52.211  1.00  0.00     0.161 C 
HETATM    8  N1  UNL     1      22.850   1.824  51.729  1.00  0.00    -0.379 N 
HETATM    9  C9  UNL     1      21.828   1.013  52.285  1.00  0.00     0.128 A 
HETATM   10  C10 UNL     1      20.588   1.457  51.884  1.00  0.00     0.156 A 
HETATM   11  N3  UNL     1      19.567   0.730  52.364  1.00  0.00    -0.222 NA
HETATM   12  C15 UNL     1      19.756  -0.332  53.164  1.00  0.00     0.238 A 
HETATM   13  N4  UNL     1      20.957  -0.763  53.556  1.00  0.00    -0.215 NA
HETATM   14  C16 UNL     1      22.038  -0.090  53.117  1.00  0.00     0.202 A 
HETATM   15  O2  UNL     1      23.227  -0.629  53.588  1.00  0.00    -0.289 OA
HETATM   16  H9  UNL     1      22.559   2.207  50.787  1.00  0.00     0.160 HD
ENDROOT
BRANCH  10  17
HETATM   17  N2  UNL     1      20.361   2.584  51.048  1.00  0.00    -0.369 N 
HETATM   18  H10 UNL     1      20.461   3.592  51.178  1.00  0.00     0.161 HD
BRANCH  17  19
HETATM   19  C11 UNL     1      19.871   2.293  49.714  1.00  0.00     0.148 C 
BRANCH  19  20
HETATM   20  C12 UNL     1      20.683   1.325  48.979  1.00  0.00    -0.009 C 
HETATM   21  C13 UNL     1      21.794   1.510  48.295  1.00  0.00     0.002 C 
BRANCH  21  22
HETATM   22  C14 UNL     1      22.506   2.801  48.103  1.00  0.00     0.249 C 
HETATM   23  F1  UNL     1      23.751   2.793  48.708  1.00  0.00    -0.251 F 
ENDBRANCH  21  22
ENDBRANCH  19  20
ENDBRANCH  17  19
ENDBRANCH  10  17
BRANCH   1  24
HETATM   24  O1  UNL     1      28.172   1.542  54.523  1.00  0.00    -0.356 OA
HETATM   25  C1  UNL     1      28.753   2.470  53.625  1.00  0.00     0.210 C 
ENDBRANCH   1  24
TORSDOF 5
ENDMDL
