MODEL 1
REMARK VINA RESULT:      -7.4      0.000      0.000
REMARK  7 active torsions:
REMARK  status: ('A' for Active; 'I' for Inactive)
REMARK    1  A    between atoms: O1_2  and  C2_3 
REMARK    2  A    between atoms: C2_3  and  C3_4 
REMARK    3  A    between atoms: C6_7  and  N1_8 
REMARK    4  A    between atoms: N1_8  and  C7_9 
REMARK    5  A    between atoms: C11_15  and  O2_16 
REMARK    6  A    between atoms: C13_18  and  O3_19 
REMARK    7  A    between atoms: C18_24  and  O4_25 
ROOT
HETATM    1  C7  UNL     1      26.000   2.399  51.295  1.00  0.00     0.142 A 
HETATM    2  N2  UNL     1      27.251   2.365  51.761  1.00  0.00    -0.224 NA
HETATM    3  C8  UNL     1      27.695   1.638  52.791  1.00  0.00     0.236 A 
HETATM    4  N3  UNL     1      26.812   0.839  53.457  1.00  0.00    -0.241 NA
HETATM    5  C9  UNL     1      25.510   0.817  53.043  1.00  0.00     0.075 A 
HETATM    6  C10 UNL     1      24.667  -0.006  53.754  1.00  0.00     0.072 A 
HETATM    7  C11 UNL     1      23.337  -0.084  53.402  1.00  0.00     0.103 A 
HETATM    8  C13 UNL     1      22.892   0.672  52.337  1.00  0.00     0.102 A 
HETATM    9  C15 UNL     1      23.806   1.470  51.679  1.00  0.00     0.057 A 
HETATM   10  C16 UNL     1      25.134   1.599  51.970  1.00  0.00     0.042 A 
ENDROOT
BRANCH   1  11
HETATM   11  N1  UNL     1      25.547   3.174  50.206  1.00  0.00    -0.340 N 
HETATM   12  H8  UNL     1      24.714   2.909  49.648  1.00  0.00     0.167 HD
BRANCH  11  13
HETATM   13  C6  UNL     1      26.096   4.371  49.702  1.00  0.00     0.036 A 
HETATM   14  C5  UNL     1      27.242   4.402  48.944  1.00  0.00     0.030 A 
HETATM   15  C4  UNL     1      27.814   5.542  48.422  1.00  0.00     0.014 A 
HETATM   16  C3  UNL     1      27.225   6.768  48.654  1.00  0.00    -0.001 A 
HETATM   17  C18 UNL     1      26.075   6.789  49.407  1.00  0.00     0.078 A 
HETATM   18  C17 UNL     1      25.564   5.626  49.893  1.00  0.00     0.066 A 
BRANCH  16  19
HETATM   19  C2  UNL     1      27.791   8.032  48.119  1.00  0.00     0.208 C 
BRANCH  19  20
HETATM   20  O1  UNL     1      28.886   8.354  48.934  1.00  0.00    -0.391 OA
HETATM   21  C1  UNL     1      28.766   9.636  49.448  1.00  0.00     0.201 C 
ENDBRANCH  19  20
ENDBRANCH  16  19
BRANCH  17  22
HETATM   22  O4  UNL     1      25.450   7.999  49.664  1.00  0.00    -0.355 OA
HETATM   23  C19 UNL     1      24.267   8.145  50.411  1.00  0.00     0.210 C 
ENDBRANCH  17  22
ENDBRANCH  11  13
ENDBRANCH   1  11
BRANCH   8  24
HETATM   24  O3  UNL     1      21.555   0.592  51.983  1.00  0.00    -0.353 OA
HETATM   25  C14 UNL     1      20.603   1.528  52.450  1.00  0.00     0.210 C 
ENDBRANCH   8  24
BRANCH   7  26
HETATM   26  O2  UNL     1      22.438  -0.894  54.079  1.00  0.00    -0.353 OA
HETATM   27  C12 UNL     1      22.772  -1.467  55.330  1.00  0.00     0.210 C 
ENDBRANCH   7  26
TORSDOF 7
ENDMDL
MODEL 2
REMARK VINA RESULT:      -7.3      3.954      7.262
REMARK  7 active torsions:
REMARK  status: ('A' for Active; 'I' for Inactive)
REMARK    1  A    between atoms: O1_2  and  C2_3 
REMARK    2  A    between atoms: C2_3  and  C3_4 
REMARK    3  A    between atoms: C6_7  and  N1_8 
REMARK    4  A    between atoms: N1_8  and  C7_9 
REMARK    5  A    between atoms: C11_15  and  O2_16 
REMARK    6  A    between atoms: C13_18  and  O3_19 
REMARK    7  A    between atoms: C18_24  and  O4_25 
ROOT
HETATM    1  C7  UNL     1      24.434   2.686  52.121  1.00  0.00     0.142 A 
HETATM    2  N2  UNL     1      24.862   3.440  51.105  1.00  0.00    -0.224 NA
HETATM    3  C8  UNL     1      26.069   3.388  50.533  1.00  0.00     0.236 A 
HETATM    4  N3  UNL     1      26.980   2.490  51.007  1.00  0.00    -0.241 NA
HETATM    5  C9  UNL     1      26.620   1.680  52.047  1.00  0.00     0.075 A 
HETATM    6  C10 UNL     1      27.581   0.797  52.482  1.00  0.00     0.072 A 
HETATM    7  C11 UNL     1      27.298  -0.054  53.529  1.00  0.00     0.103 A 
HETATM    8  C13 UNL     1      26.048   0.010  54.110  1.00  0.00     0.102 A 
HETATM    9  C15 UNL     1      25.145   0.926  53.611  1.00  0.00     0.057 A 
HETATM   10  C16 UNL     1      25.353   1.798  52.581  1.00  0.00     0.042 A 
ENDROOT
BRANCH   1  11
HETATM   11  N1  UNL     1      23.155   2.754  52.715  1.00  0.00    -0.340 N 
HETATM   12  H8  UNL     1      22.978   3.287  53.587  1.00  0.00     0.167 HD
BRANCH  11  13
HETATM   13  C6  UNL     1      21.957   2.156  52.273  1.00  0.00     0.036 A 
HETATM   14  C5  UNL     1      21.910   0.888  51.742  1.00  0.00     0.030 A 
HETATM   15  C4  UNL     1      20.767   0.256  51.303  1.00  0.00     0.014 A 
HETATM   16  C3  UNL     1      19.554   0.909  51.384  1.00  0.00    -0.001 A 
HETATM   17  C18 UNL     1      19.548   2.180  51.907  1.00  0.00     0.078 A 
HETATM   18  C17 UNL     1      20.714   2.745  52.321  1.00  0.00     0.066 A 
BRANCH  16  19
HETATM   19  C2  UNL     1      18.287   0.283  50.929  1.00  0.00     0.208 C 
BRANCH  19  20
HETATM   20  O1  UNL     1      18.010  -0.756  51.829  1.00  0.00    -0.391 OA
HETATM   21  C1  UNL     1      16.791  -0.560  52.458  1.00  0.00     0.201 C 
ENDBRANCH  19  20
ENDBRANCH  16  19
BRANCH  17  22
HETATM   22  O4  UNL     1      18.352   2.872  52.006  1.00  0.00    -0.355 OA
HETATM   23  C19 UNL     1      18.002   3.983  51.216  1.00  0.00     0.210 C 
ENDBRANCH  17  22
ENDBRANCH  11  13
ENDBRANCH   1  11
BRANCH   8  24
HETATM   24  O3  UNL     1      25.765  -0.845  55.162  1.00  0.00    -0.353 OA
HETATM   25  C14 UNL     1      24.440  -1.223  55.481  1.00  0.00     0.210 C 
ENDBRANCH   8  24
BRANCH   7  26
HETATM   26  O2  UNL     1      28.224  -0.966  54.013  1.00  0.00    -0.353 OA
HETATM   27  C12 UNL     1      29.614  -0.733  53.881  1.00  0.00     0.210 C 
ENDBRANCH   7  26
TORSDOF 7
ENDMDL
MODEL 3
REMARK VINA RESULT:      -7.3      1.140      2.089
REMARK  7 active torsions:
REMARK  status: ('A' for Active; 'I' for Inactive)
REMARK    1  A    between atoms: O1_2  and  C2_3 
REMARK    2  A    between atoms: C2_3  and  C3_4 
REMARK    3  A    between atoms: C6_7  and  N1_8 
REMARK    4  A    between atoms: N1_8  and  C7_9 
REMARK    5  A    between atoms: C11_15  and  O2_16 
REMARK    6  A    between atoms: C13_18  and  O3_19 
REMARK    7  A    between atoms: C18_24  and  O4_25 
ROOT
HETATM    1  C7  UNL     1      26.077   2.576  50.988  1.00  0.00     0.142 A 
HETATM    2  N2  UNL     1      27.229   2.523  51.662  1.00  0.00    -0.224 NA
HETATM    3  C8  UNL     1      27.448   1.872  52.809  1.00  0.00     0.236 A 
HETATM    4  N3  UNL     1      26.417   1.181  53.376  1.00  0.00    -0.241 NA
HETATM    5  C9  UNL     1      25.204   1.185  52.749  1.00  0.00     0.075 A 
HETATM    6  C10 UNL     1      24.204   0.472  53.370  1.00  0.00     0.072 A 
HETATM    7  C11 UNL     1      22.949   0.427  52.802  1.00  0.00     0.103 A 
HETATM    8  C13 UNL     1      22.736   1.105  51.619  1.00  0.00     0.102 A 
HETATM    9  C15 UNL     1      23.795   1.794  51.065  1.00  0.00     0.057 A 
HETATM   10  C16 UNL     1      25.062   1.883  51.567  1.00  0.00     0.042 A 
ENDROOT
BRANCH   1  11
HETATM   11  N1  UNL     1      25.862   3.270  49.778  1.00  0.00    -0.340 N 
HETATM   12  H8  UNL     1      25.258   2.892  49.024  1.00  0.00     0.167 HD
BRANCH  11  13
HETATM   13  C6  UNL     1      26.384   4.520  49.387  1.00  0.00     0.036 A 
HETATM   14  C5  UNL     1      25.735   5.707  49.631  1.00  0.00     0.030 A 
HETATM   15  C4  UNL     1      26.206   6.953  49.277  1.00  0.00     0.014 A 
HETATM   16  C3  UNL     1      27.417   7.064  48.626  1.00  0.00    -0.001 A 
HETATM   17  C18 UNL     1      28.106   5.904  48.360  1.00  0.00     0.078 A 
HETATM   18  C17 UNL     1      27.583   4.707  48.737  1.00  0.00     0.066 A 
BRANCH  16  19
HETATM   19  C2  UNL     1      27.979   8.377  48.219  1.00  0.00     0.208 C 
BRANCH  19  20
HETATM   20  O1  UNL     1      28.467   8.981  49.387  1.00  0.00    -0.391 OA
HETATM   21  C1  UNL     1      29.802   9.329  49.248  1.00  0.00     0.201 C 
ENDBRANCH  19  20
ENDBRANCH  16  19
BRANCH  17  22
HETATM   22  O4  UNL     1      29.327   5.970  47.708  1.00  0.00    -0.355 OA
HETATM   23  C19 UNL     1      30.575   5.759  48.323  1.00  0.00     0.210 C 
ENDBRANCH  17  22
ENDBRANCH  11  13
ENDBRANCH   1  11
BRANCH   8  24
HETATM   24  O3  UNL     1      21.474   1.059  51.050  1.00  0.00    -0.353 OA
HETATM   25  C14 UNL     1      21.290   0.955  49.652  1.00  0.00     0.210 C 
ENDBRANCH   8  24
BRANCH   7  26
HETATM   26  O2  UNL     1      21.900  -0.273  53.380  1.00  0.00    -0.353 OA
HETATM   27  C12 UNL     1      22.119  -1.140  54.477  1.00  0.00     0.210 C 
ENDBRANCH   7  26
TORSDOF 7
ENDMDL
MODEL 4
REMARK VINA RESULT:      -7.3      4.020      7.605
REMARK  7 active torsions:
REMARK  status: ('A' for Active; 'I' for Inactive)
REMARK    1  A    between atoms: O1_2  and  C2_3 
REMARK    2  A    between atoms: C2_3  and  C3_4 
REMARK    3  A    between atoms: C6_7  and  N1_8 
REMARK    4  A    between atoms: N1_8  and  C7_9 
REMARK    5  A    between atoms: C11_15  and  O2_16 
REMARK    6  A    between atoms: C13_18  and  O3_19 
REMARK    7  A    between atoms: C18_24  and  O4_25 
ROOT
HETATM    1  C7  UNL     1      24.450   2.695  52.122  1.00  0.00     0.142 A 
HETATM    2  N2  UNL     1      24.882   3.424  51.090  1.00  0.00    -0.224 NA
HETATM    3  C8  UNL     1      26.092   3.361  50.526  1.00  0.00     0.236 A 
HETATM    4  N3  UNL     1      27.002   2.476  51.027  1.00  0.00    -0.241 NA
HETATM    5  C9  UNL     1      26.639   1.693  52.085  1.00  0.00     0.075 A 
HETATM    6  C10 UNL     1      27.599   0.823  52.547  1.00  0.00     0.072 A 
HETATM    7  C11 UNL     1      27.313  -0.002  53.614  1.00  0.00     0.103 A 
HETATM    8  C13 UNL     1      26.060   0.074  54.187  1.00  0.00     0.102 A 
HETATM    9  C15 UNL     1      25.157   0.975  53.660  1.00  0.00     0.057 A 
HETATM   10  C16 UNL     1      25.368   1.821  52.609  1.00  0.00     0.042 A 
ENDROOT
BRANCH   1  11
HETATM   11  N1  UNL     1      23.168   2.775  52.707  1.00  0.00    -0.340 N 
HETATM   12  H8  UNL     1      22.958   3.420  53.492  1.00  0.00     0.167 HD
BRANCH  11  13
HETATM   13  C6  UNL     1      22.008   2.049  52.366  1.00  0.00     0.036 A 
HETATM   14  C5  UNL     1      21.251   2.336  51.255  1.00  0.00     0.030 A 
HETATM   15  C4  UNL     1      20.116   1.654  50.873  1.00  0.00     0.014 A 
HETATM   16  C3  UNL     1      19.669   0.594  51.636  1.00  0.00    -0.001 A 
HETATM   17  C18 UNL     1      20.393   0.268  52.758  1.00  0.00     0.078 A 
HETATM   18  C17 UNL     1      21.504   0.984  53.077  1.00  0.00     0.066 A 
BRANCH  16  19
HETATM   19  C2  UNL     1      18.455  -0.181  51.278  1.00  0.00     0.208 C 
BRANCH  19  20
HETATM   20  O1  UNL     1      17.371   0.480  51.874  1.00  0.00    -0.391 OA
HETATM   21  C1  UNL     1      16.480  -0.424  52.431  1.00  0.00     0.201 C 
ENDBRANCH  19  20
ENDBRANCH  16  19
BRANCH  17  22
HETATM   22  O4  UNL     1      19.980  -0.789  53.553  1.00  0.00    -0.355 OA
HETATM   23  C19 UNL     1      20.842  -1.619  54.293  1.00  0.00     0.210 C 
ENDBRANCH  17  22
ENDBRANCH  11  13
ENDBRANCH   1  11
BRANCH   8  24
HETATM   24  O3  UNL     1      25.773  -0.756  55.259  1.00  0.00    -0.353 OA
HETATM   25  C14 UNL     1      24.464  -1.231  55.504  1.00  0.00     0.210 C 
ENDBRANCH   8  24
BRANCH   7  26
HETATM   26  O2  UNL     1      28.238  -0.899  54.125  1.00  0.00    -0.353 OA
HETATM   27  C12 UNL     1      29.624  -0.727  53.896  1.00  0.00     0.210 C 
ENDBRANCH   7  26
TORSDOF 7
ENDMDL
MODEL 5
REMARK VINA RESULT:      -7.2      4.422      6.369
REMARK  7 active torsions:
REMARK  status: ('A' for Active; 'I' for Inactive)
REMARK    1  A    between atoms: O1_2  and  C2_3 
REMARK    2  A    between atoms: C2_3  and  C3_4 
REMARK    3  A    between atoms: C6_7  and  N1_8 
REMARK    4  A    between atoms: N1_8  and  C7_9 
REMARK    5  A    between atoms: C11_15  and  O2_16 
REMARK    6  A    between atoms: C13_18  and  O3_19 
REMARK    7  A    between atoms: C18_24  and  O4_25 
ROOT
HETATM    1  C7  UNL     1      23.983   2.732  51.296  1.00  0.00     0.142 A 
HETATM    2  N2  UNL     1      24.218   3.119  50.040  1.00  0.00    -0.224 NA
HETATM    3  C8  UNL     1      23.455   2.858  48.973  1.00  0.00     0.236 A 
HETATM    4  N3  UNL     1      22.317   2.125  49.147  1.00  0.00    -0.241 NA
HETATM    5  C9  UNL     1      22.005   1.690  50.403  1.00  0.00     0.075 A 
HETATM    6  C10 UNL     1      20.846   0.955  50.514  1.00  0.00     0.072 A 
HETATM    7  C11 UNL     1      20.462   0.476  51.748  1.00  0.00     0.103 A 
HETATM    8  C13 UNL     1      21.258   0.753  52.840  1.00  0.00     0.102 A 
HETATM    9  C15 UNL     1      22.403   1.497  52.638  1.00  0.00     0.057 A 
HETATM   10  C16 UNL     1      22.847   2.004  51.451  1.00  0.00     0.042 A 
ENDROOT
BRANCH   1  11
HETATM   11  N1  UNL     1      24.800   3.015  52.411  1.00  0.00    -0.340 N 
HETATM   12  H8  UNL     1      24.690   3.881  52.971  1.00  0.00     0.167 HD
BRANCH  11  13
HETATM   13  C6  UNL     1      25.848   2.236  52.944  1.00  0.00     0.036 A 
HETATM   14  C5  UNL     1      27.164   2.415  52.587  1.00  0.00     0.030 A 
HETATM   15  C4  UNL     1      28.223   1.686  53.082  1.00  0.00     0.014 A 
HETATM   16  C3  UNL     1      27.992   0.691  54.009  1.00  0.00    -0.001 A 
HETATM   17  C18 UNL     1      26.692   0.473  54.398  1.00  0.00     0.078 A 
HETATM   18  C17 UNL     1      25.693   1.228  53.868  1.00  0.00     0.066 A 
BRANCH  16  19
HETATM   19  C2  UNL     1      29.090  -0.128  54.581  1.00  0.00     0.208 C 
BRANCH  19  20
HETATM   20  O1  UNL     1      29.763  -0.706  53.495  1.00  0.00    -0.391 OA
HETATM   21  C1  UNL     1      29.376  -2.024  53.311  1.00  0.00     0.201 C 
ENDBRANCH  19  20
ENDBRANCH  16  19
BRANCH  17  22
HETATM   22  O4  UNL     1      26.414  -0.518  55.326  1.00  0.00    -0.355 OA
HETATM   23  C19 UNL     1      25.120  -0.892  55.734  1.00  0.00     0.210 C 
ENDBRANCH  17  22
ENDBRANCH  11  13
ENDBRANCH   1  11
BRANCH   8  24
HETATM   24  O3  UNL     1      20.870   0.271  54.080  1.00  0.00    -0.353 OA
HETATM   25  C14 UNL     1      21.544  -0.801  54.707  1.00  0.00     0.210 C 
ENDBRANCH   8  24
BRANCH   7  26
HETATM   26  O2  UNL     1      19.306  -0.270  51.924  1.00  0.00    -0.353 OA
HETATM   27  C12 UNL     1      18.112   0.063  51.242  1.00  0.00     0.210 C 
ENDBRANCH   7  26
TORSDOF 7
ENDMDL
MODEL 6
REMARK VINA RESULT:      -7.2      4.831      8.616
REMARK  7 active torsions:
REMARK  status: ('A' for Active; 'I' for Inactive)
REMARK    1  A    between atoms: O1_2  and  C2_3 
REMARK    2  A    between atoms: C2_3  and  C3_4 
REMARK    3  A    between atoms: C6_7  and  N1_8 
REMARK    4  A    between atoms: N1_8  and  C7_9 
REMARK    5  A    between atoms: C11_15  and  O2_16 
REMARK    6  A    between atoms: C13_18  and  O3_19 
REMARK    7  A    between atoms: C18_24  and  O4_25 
ROOT
HETATM    1  C7  UNL     1      22.631   1.583  52.154  1.00  0.00     0.142 A 
HETATM    2  N2  UNL     1      22.190   2.840  52.047  1.00  0.00    -0.224 NA
HETATM    3  C8  UNL     1      22.825   3.941  52.460  1.00  0.00     0.236 A 
HETATM    4  N3  UNL     1      24.046   3.808  53.055  1.00  0.00    -0.241 NA
HETATM    5  C9  UNL     1      24.569   2.555  53.203  1.00  0.00     0.075 A 
HETATM    6  C10 UNL     1      25.801   2.485  53.810  1.00  0.00     0.072 A 
HETATM    7  C11 UNL     1      26.397   1.257  54.000  1.00  0.00     0.103 A 
HETATM    8  C13 UNL     1      25.730   0.128  53.568  1.00  0.00     0.102 A 
HETATM    9  C15 UNL     1      24.498   0.289  52.968  1.00  0.00     0.057 A 
HETATM   10  C16 UNL     1      23.847   1.469  52.748  1.00  0.00     0.042 A 
ENDROOT
BRANCH   1  11
HETATM   11  N1  UNL     1      21.947   0.430  51.713  1.00  0.00    -0.340 N 
HETATM   12  H8  UNL     1      22.418  -0.317  51.168  1.00  0.00     0.167 HD
BRANCH  11  13
HETATM   13  C6  UNL     1      20.593   0.092  51.911  1.00  0.00     0.036 A 
HETATM   14  C5  UNL     1      20.138  -0.516  53.057  1.00  0.00     0.030 A 
HETATM   15  C4  UNL     1      18.826  -0.860  53.302  1.00  0.00     0.014 A 
HETATM   16  C3  UNL     1      17.862  -0.590  52.353  1.00  0.00    -0.001 A 
HETATM   17  C18 UNL     1      18.267   0.018  51.189  1.00  0.00     0.078 A 
HETATM   18  C17 UNL     1      19.579   0.329  51.011  1.00  0.00     0.066 A 
BRANCH  16  19
HETATM   19  C2  UNL     1      16.432  -0.934  52.558  1.00  0.00     0.208 C 
BRANCH  19  20
HETATM   20  O1  UNL     1      15.830   0.192  53.137  1.00  0.00    -0.391 OA
HETATM   21  C1  UNL     1      14.506   0.309  52.742  1.00  0.00     0.201 C 
ENDBRANCH  19  20
ENDBRANCH  16  19
BRANCH  17  22
HETATM   22  O4  UNL     1      17.332   0.307  50.208  1.00  0.00    -0.355 OA
HETATM   23  C19 UNL     1      17.100   1.588  49.675  1.00  0.00     0.210 C 
ENDBRANCH  17  22
ENDBRANCH  11  13
ENDBRANCH   1  11
BRANCH   8  24
HETATM   24  O3  UNL     1      26.330  -1.106  53.759  1.00  0.00    -0.353 OA
HETATM   25  C14 UNL     1      26.889  -1.838  52.686  1.00  0.00     0.210 C 
ENDBRANCH   8  24
BRANCH   7  26
HETATM   26  O2  UNL     1      27.637   1.121  54.606  1.00  0.00    -0.353 OA
HETATM   27  C12 UNL     1      28.832   1.327  53.876  1.00  0.00     0.210 C 
ENDBRANCH   7  26
TORSDOF 7
ENDMDL
MODEL 7
REMARK VINA RESULT:      -7.0      1.879      2.981
REMARK  7 active torsions:
REMARK  status: ('A' for Active; 'I' for Inactive)
REMARK    1  A    between atoms: O1_2  and  C2_3 
REMARK    2  A    between atoms: C2_3  and  C3_4 
REMARK    3  A    between atoms: C6_7  and  N1_8 
REMARK    4  A    between atoms: N1_8  and  C7_9 
REMARK    5  A    between atoms: C11_15  and  O2_16 
REMARK    6  A    between atoms: C13_18  and  O3_19 
REMARK    7  A    between atoms: C18_24  and  O4_25 
ROOT
HETATM    1  C7  UNL     1      25.184   2.867  50.421  1.00  0.00     0.142 A 
HETATM    2  N2  UNL     1      23.929   3.305  50.284  1.00  0.00    -0.224 NA
HETATM    3  C8  UNL     1      22.880   2.954  51.035  1.00  0.00     0.236 A 
HETATM    4  N3  UNL     1      23.071   2.063  52.050  1.00  0.00    -0.241 NA
HETATM    5  C9  UNL     1      24.326   1.566  52.257  1.00  0.00     0.075 A 
HETATM    6  C10 UNL     1      24.455   0.671  53.294  1.00  0.00     0.072 A 
HETATM    7  C11 UNL     1      25.689   0.120  53.567  1.00  0.00     0.103 A 
HETATM    8  C13 UNL     1      26.763   0.491  52.784  1.00  0.00     0.102 A 
HETATM    9  C15 UNL     1      26.545   1.396  51.765  1.00  0.00     0.057 A 
HETATM   10  C16 UNL     1      25.355   1.980  51.436  1.00  0.00     0.042 A 
ENDROOT
BRANCH   1  11
HETATM   11  N1  UNL     1      26.281   3.247  49.619  1.00  0.00    -0.340 N 
HETATM   12  H8  UNL     1      26.943   2.553  49.224  1.00  0.00     0.167 HD
BRANCH  11  13
HETATM   13  C6  UNL     1      26.663   4.546  49.225  1.00  0.00     0.036 A 
HETATM   14  C5  UNL     1      27.862   4.813  48.608  1.00  0.00     0.030 A 
HETATM   15  C4  UNL     1      28.280   6.061  48.198  1.00  0.00     0.014 A 
HETATM   16  C3  UNL     1      27.463   7.154  48.403  1.00  0.00    -0.001 A 
HETATM   17  C18 UNL     1      26.253   6.938  49.018  1.00  0.00     0.078 A 
HETATM   18  C17 UNL     1      25.903   5.680  49.398  1.00  0.00     0.066 A 
BRANCH  16  19
HETATM   19  C2  UNL     1      27.855   8.523  47.984  1.00  0.00     0.208 C 
BRANCH  19  20
HETATM   20  O1  UNL     1      28.888   8.923  48.843  1.00  0.00    -0.391 OA
HETATM   21  C1  UNL     1      28.848  10.290  49.071  1.00  0.00     0.201 C 
ENDBRANCH  19  20
ENDBRANCH  16  19
BRANCH  17  22
HETATM   22  O4  UNL     1      25.402   8.008  49.244  1.00  0.00    -0.355 OA
HETATM   23  C19 UNL     1      24.549   8.131  50.357  1.00  0.00     0.210 C 
ENDBRANCH  17  22
ENDBRANCH  11  13
ENDBRANCH   1  11
BRANCH   8  24
HETATM   24  O3  UNL     1      28.003  -0.062  53.060  1.00  0.00    -0.353 OA
HETATM   25  C14 UNL     1      29.004   0.658  53.751  1.00  0.00     0.210 C 
ENDBRANCH   8  24
BRANCH   7  26
HETATM   26  O2  UNL     1      25.882  -0.787  54.597  1.00  0.00    -0.353 OA
HETATM   27  C12 UNL     1      24.830  -1.122  55.482  1.00  0.00     0.210 C 
ENDBRANCH   7  26
TORSDOF 7
ENDMDL
MODEL 8
REMARK VINA RESULT:      -6.8      2.855      4.125
REMARK  7 active torsions:
REMARK  status: ('A' for Active; 'I' for Inactive)
REMARK    1  A    between atoms: O1_2  and  C2_3 
REMARK    2  A    between atoms: C2_3  and  C3_4 
REMARK    3  A    between atoms: C6_7  and  N1_8 
REMARK    4  A    between atoms: N1_8  and  C7_9 
REMARK    5  A    between atoms: C11_15  and  O2_16 
REMARK    6  A    between atoms: C13_18  and  O3_19 
REMARK    7  A    between atoms: C18_24  and  O4_25 
ROOT
HETATM    1  C7  UNL     1      24.077   2.249  52.885  1.00  0.00     0.142 A 
HETATM    2  N2  UNL     1      22.860   1.698  52.878  1.00  0.00    -0.224 NA
HETATM    3  C8  UNL     1      22.576   0.401  53.028  1.00  0.00     0.236 A 
HETATM    4  N3  UNL     1      23.604  -0.478  53.207  1.00  0.00    -0.241 NA
HETATM    5  C9  UNL     1      24.882   0.006  53.226  1.00  0.00     0.075 A 
HETATM    6  C10 UNL     1      25.876  -0.928  53.408  1.00  0.00     0.072 A 
HETATM    7  C11 UNL     1      27.193  -0.522  53.437  1.00  0.00     0.103 A 
HETATM    8  C13 UNL     1      27.472   0.820  53.281  1.00  0.00     0.102 A 
HETATM    9  C15 UNL     1      26.414   1.688  53.104  1.00  0.00     0.057 A 
HETATM   10  C16 UNL     1      25.089   1.361  53.064  1.00  0.00     0.042 A 
ENDROOT
BRANCH   1  11
HETATM   11  N1  UNL     1      24.360   3.622  52.725  1.00  0.00    -0.340 N 
HETATM   12  H8  UNL     1      24.666   4.220  53.515  1.00  0.00     0.167 HD
BRANCH  11  13
HETATM   13  C6  UNL     1      24.288   4.394  51.546  1.00  0.00     0.036 A 
HETATM   14  C5  UNL     1      24.982   4.074  50.404  1.00  0.00     0.030 A 
HETATM   15  C4  UNL     1      24.941   4.789  49.227  1.00  0.00     0.014 A 
HETATM   16  C3  UNL     1      24.155   5.919  49.144  1.00  0.00    -0.001 A 
HETATM   17  C18 UNL     1      23.440   6.282  50.261  1.00  0.00     0.078 A 
HETATM   18  C17 UNL     1      23.528   5.531  51.391  1.00  0.00     0.066 A 
BRANCH  16  19
HETATM   19  C2  UNL     1      24.066   6.732  47.904  1.00  0.00     0.208 C 
BRANCH  19  20
HETATM   20  O1  UNL     1      25.358   7.214  47.651  1.00  0.00    -0.391 OA
HETATM   21  C1  UNL     1      25.552   8.456  48.235  1.00  0.00     0.201 C 
ENDBRANCH  19  20
ENDBRANCH  16  19
BRANCH  17  22
HETATM   22  O4  UNL     1      22.638   7.411  50.222  1.00  0.00    -0.355 OA
HETATM   23  C19 UNL     1      21.304   7.461  50.668  1.00  0.00     0.210 C 
ENDBRANCH  17  22
ENDBRANCH  11  13
ENDBRANCH   1  11
BRANCH   8  24
HETATM   24  O3  UNL     1      28.796   1.227  53.311  1.00  0.00    -0.353 OA
HETATM   25  C14 UNL     1      29.331   1.944  54.405  1.00  0.00     0.210 C 
ENDBRANCH   8  24
BRANCH   7  26
HETATM   26  O2  UNL     1      28.238  -1.415  53.617  1.00  0.00    -0.353 OA
HETATM   27  C12 UNL     1      28.279  -2.643  52.913  1.00  0.00     0.210 C 
ENDBRANCH   7  26
TORSDOF 7
ENDMDL
MODEL 9
REMARK VINA RESULT:      -6.7      2.170      3.637
REMARK  7 active torsions:
REMARK  status: ('A' for Active; 'I' for Inactive)
REMARK    1  A    between atoms: O1_2  and  C2_3 
REMARK    2  A    between atoms: C2_3  and  C3_4 
REMARK    3  A    between atoms: C6_7  and  N1_8 
REMARK    4  A    between atoms: N1_8  and  C7_9 
REMARK    5  A    between atoms: C11_15  and  O2_16 
REMARK    6  A    between atoms: C13_18  and  O3_19 
REMARK    7  A    between atoms: C18_24  and  O4_25 
ROOT
HETATM    1  C7  UNL     1      25.451   2.902  50.243  1.00  0.00     0.142 A 
HETATM    2  N2  UNL     1      24.211   3.328  49.988  1.00  0.00    -0.224 NA
HETATM    3  C8  UNL     1      23.092   2.920  50.595  1.00  0.00     0.236 A 
HETATM    4  N3  UNL     1      23.185   1.977  51.576  1.00  0.00    -0.241 NA
HETATM    5  C9  UNL     1      24.420   1.487  51.896  1.00  0.00     0.075 A 
HETATM    6  C10 UNL     1      24.450   0.537  52.891  1.00  0.00     0.072 A 
HETATM    7  C11 UNL     1      25.657  -0.009  53.273  1.00  0.00     0.103 A 
HETATM    8  C13 UNL     1      26.804   0.421  52.638  1.00  0.00     0.102 A 
HETATM    9  C15 UNL     1      26.683   1.378  51.652  1.00  0.00     0.057 A 
HETATM   10  C16 UNL     1      25.526   1.963  51.221  1.00  0.00     0.042 A 
ENDROOT
BRANCH   1  11
HETATM   11  N1  UNL     1      26.623   3.342  49.592  1.00  0.00    -0.340 N 
HETATM   12  H8  UNL     1      27.443   2.723  49.452  1.00  0.00     0.167 HD
BRANCH  11  13
HETATM   13  C6  UNL     1      26.890   4.615  49.046  1.00  0.00     0.036 A 
HETATM   14  C5  UNL     1      25.940   5.606  48.971  1.00  0.00     0.030 A 
HETATM   15  C4  UNL     1      26.151   6.866  48.455  1.00  0.00     0.014 A 
HETATM   16  C3  UNL     1      27.396   7.202  47.964  1.00  0.00    -0.001 A 
HETATM   17  C18 UNL     1      28.380   6.244  48.016  1.00  0.00     0.078 A 
HETATM   18  C17 UNL     1      28.103   5.019  48.539  1.00  0.00     0.066 A 
BRANCH  16  19
HETATM   19  C2  UNL     1      27.687   8.542  47.396  1.00  0.00     0.208 C 
BRANCH  19  20
HETATM   20  O1  UNL     1      27.961   9.385  48.483  1.00  0.00    -0.391 OA
HETATM   21  C1  UNL     1      27.149  10.509  48.459  1.00  0.00     0.201 C 
ENDBRANCH  19  20
ENDBRANCH  16  19
BRANCH  17  22
HETATM   22  O4  UNL     1      29.645   6.538  47.534  1.00  0.00    -0.355 OA
HETATM   23  C19 UNL     1      30.796   5.766  47.780  1.00  0.00     0.210 C 
ENDBRANCH  17  22
ENDBRANCH  11  13
ENDBRANCH   1  11
BRANCH   8  24
HETATM   24  O3  UNL     1      28.017  -0.128  53.023  1.00  0.00    -0.353 OA
HETATM   25  C14 UNL     1      28.938   0.585  53.825  1.00  0.00     0.210 C 
ENDBRANCH   8  24
BRANCH   7  26
HETATM   26  O2  UNL     1      25.753  -0.970  54.268  1.00  0.00    -0.353 OA
HETATM   27  C12 UNL     1      25.574  -0.629  55.630  1.00  0.00     0.210 C 
ENDBRANCH   7  26
TORSDOF 7
ENDMDL
