MODEL 1
REMARK VINA RESULT:      -8.4      0.000      0.000
REMARK  7 active torsions:
REMARK  status: ('A' for Active; 'I' for Inactive)
REMARK    1  A    between atoms: O1_2  and  C2_3 
REMARK    2  A    between atoms: C5_6  and  O2_7 
REMARK    3  A    between atoms: O2_7  and  C6_8 
REMARK    4  A    between atoms: C9_11  and  N1_12 
REMARK       I    between atoms: N1_12  and  C10_13 
REMARK       I    between atoms: C10_13  and  N2_15 
REMARK    5  A    between atoms: N2_15  and  C11_16 
REMARK    6  A    between atoms: C14_19  and  C15_20 
REMARK    7  A    between atoms: C21_29  and  O4_30 
ROOT
HETATM    1  C6  UNL     1      22.446   1.369  50.746  1.00  0.00     0.069 A 
HETATM    2  C7  UNL     1      21.935   1.775  49.543  1.00  0.00     0.039 A 
HETATM    3  C8  UNL     1      20.636   1.518  49.168  1.00  0.00     0.032 A 
HETATM    4  C9  UNL     1      19.777   0.826  50.003  1.00  0.00     0.036 A 
HETATM    5  C18 UNL     1      20.264   0.400  51.230  1.00  0.00     0.032 A 
HETATM    6  C19 UNL     1      21.584   0.672  51.590  1.00  0.00     0.039 A 
ENDROOT
BRANCH   4   7
HETATM    7  N1  UNL     1      18.439   0.572  49.591  1.00  0.00    -0.309 N 
HETATM    8  C10 UNL     1      17.381   1.145  50.366  1.00  0.00     0.325 C 
HETATM    9  O3  UNL     1      17.737   1.842  51.368  1.00  0.00    -0.247 OA
HETATM   10  N2  UNL     1      15.962   1.034  50.155  1.00  0.00    -0.309 N 
HETATM   11  H11 UNL     1      15.738   0.441  49.307  1.00  0.00     0.170 HD
HETATM   12  H10 UNL     1      18.093   0.010  48.778  1.00  0.00     0.170 HD
BRANCH  10  13
HETATM   13  C11 UNL     1      15.153   1.737  51.121  1.00  0.00     0.036 A 
HETATM   14  C12 UNL     1      14.632   1.176  52.269  1.00  0.00     0.030 A 
HETATM   15  C13 UNL     1      13.875   1.974  53.101  1.00  0.00     0.018 A 
HETATM   16  C14 UNL     1      13.625   3.303  52.822  1.00  0.00     0.048 A 
HETATM   17  C16 UNL     1      14.142   3.893  51.664  1.00  0.00     0.018 A 
HETATM   18  C17 UNL     1      14.897   3.082  50.843  1.00  0.00     0.030 A 
BRANCH  16  19
HETATM   19  C15 UNL     1      12.812   4.159  53.719  1.00  0.00     0.417 C 
HETATM   20  F1  UNL     1      11.879   3.401  54.426  1.00  0.00    -0.166 F 
HETATM   21  F2  UNL     1      13.593   4.768  54.695  1.00  0.00    -0.166 F 
HETATM   22  F3  UNL     1      12.157   5.156  53.044  1.00  0.00    -0.166 F 
ENDBRANCH  16  19
ENDBRANCH  10  13
ENDBRANCH   4   7
BRANCH   1  23
HETATM   23  O2  UNL     1      23.673   1.504  51.325  1.00  0.00    -0.342 OA
BRANCH  23  24
HETATM   24  C5  UNL     1      23.986   1.403  52.695  1.00  0.00     0.158 A 
HETATM   25  C4  UNL     1      24.710   2.605  53.217  1.00  0.00     0.066 A 
HETATM   26  C3  UNL     1      25.974   2.189  53.868  1.00  0.00     0.015 A 
HETATM   27  C2  UNL     1      26.633   1.069  54.113  1.00  0.00     0.097 A 
HETATM   28  C21 UNL     1      25.922  -0.101  53.600  1.00  0.00     0.100 A 
HETATM   29  C20 UNL     1      24.778   0.191  53.003  1.00  0.00     0.045 A 
BRANCH  27  30
HETATM   30  O1  UNL     1      27.839   0.826  54.751  1.00  0.00    -0.353 OA
HETATM   31  C1  UNL     1      29.074   0.788  54.106  1.00  0.00     0.210 C 
ENDBRANCH  27  30
BRANCH  28  32
HETATM   32  O4  UNL     1      26.310  -1.430  53.674  1.00  0.00    -0.353 OA
HETATM   33  C22 UNL     1      27.000  -2.058  52.615  1.00  0.00     0.210 C 
ENDBRANCH  28  32
ENDBRANCH  23  24
ENDBRANCH   1  23
TORSDOF 7
ENDMDL
MODEL 2
REMARK VINA RESULT:      -8.3      9.459     12.885
REMARK  7 active torsions:
REMARK  status: ('A' for Active; 'I' for Inactive)
REMARK    1  A    between atoms: O1_2  and  C2_3 
REMARK    2  A    between atoms: C5_6  and  O2_7 
REMARK    3  A    between atoms: O2_7  and  C6_8 
REMARK    4  A    between atoms: C9_11  and  N1_12 
REMARK       I    between atoms: N1_12  and  C10_13 
REMARK       I    between atoms: C10_13  and  N2_15 
REMARK    5  A    between atoms: N2_15  and  C11_16 
REMARK    6  A    between atoms: C14_19  and  C15_20 
REMARK    7  A    between atoms: C21_29  and  O4_30 
ROOT
HETATM    1  C6  UNL     1      24.774   3.252  50.190  1.00  0.00     0.069 A 
HETATM    2  C7  UNL     1      24.257   4.478  49.867  1.00  0.00     0.039 A 
HETATM    3  C8  UNL     1      25.006   5.458  49.258  1.00  0.00     0.032 A 
HETATM    4  C9  UNL     1      26.335   5.247  48.942  1.00  0.00     0.036 A 
HETATM    5  C18 UNL     1      26.892   4.016  49.256  1.00  0.00     0.032 A 
HETATM    6  C19 UNL     1      26.115   3.036  49.873  1.00  0.00     0.039 A 
ENDROOT
BRANCH   4   7
HETATM    7  N1  UNL     1      27.088   6.278  48.315  1.00  0.00    -0.309 N 
HETATM    8  C10 UNL     1      28.512   6.134  48.271  1.00  0.00     0.325 C 
HETATM    9  O3  UNL     1      28.983   5.081  48.806  1.00  0.00    -0.247 OA
HETATM   10  N2  UNL     1      29.480   7.031  47.699  1.00  0.00    -0.309 N 
HETATM   11  H11 UNL     1      29.020   7.885  47.274  1.00  0.00     0.170 HD
HETATM   12  H10 UNL     1      26.752   7.160  47.860  1.00  0.00     0.170 HD
BRANCH  10  13
HETATM   13  C11 UNL     1      30.849   6.594  47.819  1.00  0.00     0.036 A 
HETATM   14  C12 UNL     1      31.417   5.570  47.088  1.00  0.00     0.030 A 
HETATM   15  C13 UNL     1      32.742   5.263  47.311  1.00  0.00     0.018 A 
HETATM   16  C14 UNL     1      33.511   5.941  48.237  1.00  0.00     0.048 A 
HETATM   17  C16 UNL     1      32.957   6.982  48.990  1.00  0.00     0.018 A 
HETATM   18  C17 UNL     1      31.632   7.277  48.754  1.00  0.00     0.030 A 
BRANCH  16  19
HETATM   19  C15 UNL     1      34.936   5.609  48.475  1.00  0.00     0.417 C 
HETATM   20  F1  UNL     1      35.362   4.587  47.628  1.00  0.00    -0.166 F 
HETATM   21  F2  UNL     1      35.769   6.685  48.185  1.00  0.00    -0.166 F 
HETATM   22  F3  UNL     1      35.182   5.245  49.773  1.00  0.00    -0.166 F 
ENDBRANCH  16  19
ENDBRANCH  10  13
ENDBRANCH   4   7
BRANCH   1  23
HETATM   23  O2  UNL     1      24.241   2.147  50.783  1.00  0.00    -0.342 OA
BRANCH  23  24
HETATM   24  C5  UNL     1      24.171   1.867  52.162  1.00  0.00     0.158 A 
HETATM   25  C4  UNL     1      24.823   2.919  53.004  1.00  0.00     0.066 A 
HETATM   26  C3  UNL     1      25.831   2.298  53.894  1.00  0.00     0.015 A 
HETATM   27  C2  UNL     1      26.310   1.092  54.149  1.00  0.00     0.097 A 
HETATM   28  C21 UNL     1      25.670   0.069  53.323  1.00  0.00     0.100 A 
HETATM   29  C20 UNL     1      24.753   0.549  52.499  1.00  0.00     0.045 A 
BRANCH  27  30
HETATM   30  O1  UNL     1      27.280   0.650  55.035  1.00  0.00    -0.353 OA
HETATM   31  C1  UNL     1      28.631   0.520  54.718  1.00  0.00     0.210 C 
ENDBRANCH  27  30
BRANCH  28  32
HETATM   32  O4  UNL     1      25.918  -1.295  53.318  1.00  0.00    -0.353 OA
HETATM   33  C22 UNL     1      26.878  -1.868  52.457  1.00  0.00     0.210 C 
ENDBRANCH  28  32
ENDBRANCH  23  24
ENDBRANCH   1  23
TORSDOF 7
ENDMDL
MODEL 3
REMARK VINA RESULT:      -8.2      8.137     11.198
REMARK  7 active torsions:
REMARK  status: ('A' for Active; 'I' for Inactive)
REMARK    1  A    between atoms: O1_2  and  C2_3 
REMARK    2  A    between atoms: C5_6  and  O2_7 
REMARK    3  A    between atoms: O2_7  and  C6_8 
REMARK    4  A    between atoms: C9_11  and  N1_12 
REMARK       I    between atoms: N1_12  and  C10_13 
REMARK       I    between atoms: C10_13  and  N2_15 
REMARK    5  A    between atoms: N2_15  and  C11_16 
REMARK    6  A    between atoms: C14_19  and  C15_20 
REMARK    7  A    between atoms: C21_29  and  O4_30 
ROOT
HETATM    1  C6  UNL     1      24.186   7.051  48.904  1.00  0.00     0.069 A 
HETATM    2  C7  UNL     1      23.759   5.788  48.593  1.00  0.00     0.039 A 
HETATM    3  C8  UNL     1      23.492   4.841  49.555  1.00  0.00     0.032 A 
HETATM    4  C9  UNL     1      23.646   5.127  50.899  1.00  0.00     0.036 A 
HETATM    5  C18 UNL     1      24.078   6.398  51.249  1.00  0.00     0.032 A 
HETATM    6  C19 UNL     1      24.343   7.343  50.258  1.00  0.00     0.039 A 
ENDROOT
BRANCH   4   7
HETATM    7  N1  UNL     1      23.364   4.130  51.873  1.00  0.00    -0.309 N 
HETATM    8  C10 UNL     1      24.373   3.147  52.134  1.00  0.00     0.325 C 
HETATM    9  O3  UNL     1      25.446   3.255  51.460  1.00  0.00    -0.247 OA
HETATM   10  N2  UNL     1      24.326   2.049  53.063  1.00  0.00    -0.309 N 
HETATM   11  H11 UNL     1      23.407   2.018  53.587  1.00  0.00     0.170 HD
HETATM   12  H10 UNL     1      22.503   3.996  52.454  1.00  0.00     0.170 HD
BRANCH  10  13
HETATM   13  C11 UNL     1      25.515   1.233  53.089  1.00  0.00     0.036 A 
HETATM   14  C12 UNL     1      25.712   0.102  52.321  1.00  0.00     0.030 A 
HETATM   15  C13 UNL     1      26.904  -0.579  52.453  1.00  0.00     0.018 A 
HETATM   16  C14 UNL     1      27.896  -0.168  53.322  1.00  0.00     0.048 A 
HETATM   17  C16 UNL     1      27.719   0.974  54.110  1.00  0.00     0.018 A 
HETATM   18  C17 UNL     1      26.523   1.643  53.966  1.00  0.00     0.030 A 
BRANCH  16  19
HETATM   19  C15 UNL     1      29.177  -0.901  53.461  1.00  0.00     0.417 C 
HETATM   20  F1  UNL     1      29.598  -0.927  54.790  1.00  0.00    -0.166 F 
HETATM   21  F2  UNL     1      29.045  -2.238  53.101  1.00  0.00    -0.166 F 
HETATM   22  F3  UNL     1      30.175  -0.370  52.687  1.00  0.00    -0.166 F 
ENDBRANCH  16  19
ENDBRANCH  10  13
ENDBRANCH   4   7
BRANCH   1  23
HETATM   23  O2  UNL     1      24.508   8.135  48.144  1.00  0.00    -0.342 OA
BRANCH  23  24
HETATM   24  C5  UNL     1      25.772   8.464  47.615  1.00  0.00     0.158 A 
HETATM   25  C4  UNL     1      26.757   7.341  47.720  1.00  0.00     0.066 A 
HETATM   26  C3  UNL     1      27.979   7.808  48.416  1.00  0.00     0.015 A 
HETATM   27  C2  UNL     1      28.437   8.921  48.962  1.00  0.00     0.097 A 
HETATM   28  C21 UNL     1      27.470  10.014  48.857  1.00  0.00     0.100 A 
HETATM   29  C20 UNL     1      26.348   9.673  48.244  1.00  0.00     0.045 A 
BRANCH  27  30
HETATM   30  O1  UNL     1      29.634   9.218  49.594  1.00  0.00    -0.353 OA
HETATM   31  C1  UNL     1      30.862   8.652  49.255  1.00  0.00     0.210 C 
ENDBRANCH  27  30
BRANCH  28  32
HETATM   32  O4  UNL     1      27.606  11.315  49.315  1.00  0.00    -0.353 OA
HETATM   33  C22 UNL     1      28.290  12.294  48.564  1.00  0.00     0.210 C 
ENDBRANCH  28  32
ENDBRANCH  23  24
ENDBRANCH   1  23
TORSDOF 7
ENDMDL
MODEL 4
REMARK VINA RESULT:      -8.2      1.361      2.280
REMARK  7 active torsions:
REMARK  status: ('A' for Active; 'I' for Inactive)
REMARK    1  A    between atoms: O1_2  and  C2_3 
REMARK    2  A    between atoms: C5_6  and  O2_7 
REMARK    3  A    between atoms: O2_7  and  C6_8 
REMARK    4  A    between atoms: C9_11  and  N1_12 
REMARK       I    between atoms: N1_12  and  C10_13 
REMARK       I    between atoms: C10_13  and  N2_15 
REMARK    5  A    between atoms: N2_15  and  C11_16 
REMARK    6  A    between atoms: C14_19  and  C15_20 
REMARK    7  A    between atoms: C21_29  and  O4_30 
ROOT
HETATM    1  C6  UNL     1      23.524   2.117  52.265  1.00  0.00     0.069 A 
HETATM    2  C7  UNL     1      22.805   1.065  52.766  1.00  0.00     0.039 A 
HETATM    3  C8  UNL     1      21.621   0.645  52.205  1.00  0.00     0.032 A 
HETATM    4  C9  UNL     1      21.095   1.278  51.094  1.00  0.00     0.036 A 
HETATM    5  C18 UNL     1      21.798   2.348  50.560  1.00  0.00     0.032 A 
HETATM    6  C19 UNL     1      22.997   2.757  51.144  1.00  0.00     0.039 A 
ENDROOT
BRANCH   4   7
HETATM    7  N1  UNL     1      19.868   0.826  50.534  1.00  0.00    -0.309 N 
HETATM    8  C10 UNL     1      18.658   1.444  50.988  1.00  0.00     0.325 C 
HETATM    9  O3  UNL     1      18.792   2.356  51.864  1.00  0.00    -0.247 OA
HETATM   10  N2  UNL     1      17.308   1.164  50.578  1.00  0.00    -0.309 N 
HETATM   11  H11 UNL     1      17.271   0.396  49.851  1.00  0.00     0.170 HD
HETATM   12  H10 UNL     1      19.703   0.084  49.814  1.00  0.00     0.170 HD
BRANCH  10  13
HETATM   13  C11 UNL     1      16.303   1.969  51.229  1.00  0.00     0.036 A 
HETATM   14  C12 UNL     1      16.116   3.320  51.015  1.00  0.00     0.030 A 
HETATM   15  C13 UNL     1      15.112   3.960  51.712  1.00  0.00     0.018 A 
HETATM   16  C14 UNL     1      14.298   3.296  52.608  1.00  0.00     0.048 A 
HETATM   17  C16 UNL     1      14.470   1.927  52.842  1.00  0.00     0.018 A 
HETATM   18  C17 UNL     1      15.477   1.303  52.137  1.00  0.00     0.030 A 
BRANCH  16  19
HETATM   19  C15 UNL     1      13.219   3.985  53.355  1.00  0.00     0.417 C 
HETATM   20  F1  UNL     1      12.331   3.068  53.916  1.00  0.00    -0.166 F 
HETATM   21  F2  UNL     1      13.720   4.704  54.435  1.00  0.00    -0.166 F 
HETATM   22  F3  UNL     1      12.517   4.865  52.573  1.00  0.00    -0.166 F 
ENDBRANCH  16  19
ENDBRANCH  10  13
ENDBRANCH   4   7
BRANCH   1  23
HETATM   23  O2  UNL     1      24.695   2.703  52.640  1.00  0.00    -0.342 OA
BRANCH  23  24
HETATM   24  C5  UNL     1      25.937   2.072  52.852  1.00  0.00     0.158 A 
HETATM   25  C4  UNL     1      26.472   1.411  51.620  1.00  0.00     0.066 A 
HETATM   26  C3  UNL     1      26.772  -0.013  51.902  1.00  0.00     0.015 A 
HETATM   27  C2  UNL     1      26.699  -0.851  52.922  1.00  0.00     0.097 A 
HETATM   28  C21 UNL     1      26.174  -0.200  54.122  1.00  0.00     0.100 A 
HETATM   29  C20 UNL     1      25.883   1.079  53.949  1.00  0.00     0.045 A 
BRANCH  27  30
HETATM   30  O1  UNL     1      27.024  -2.193  53.043  1.00  0.00    -0.353 OA
HETATM   31  C1  UNL     1      28.319  -2.699  52.935  1.00  0.00     0.210 C 
ENDBRANCH  27  30
BRANCH  28  32
HETATM   32  O4  UNL     1      25.962  -0.765  55.370  1.00  0.00    -0.353 OA
HETATM   33  C22 UNL     1      24.674  -1.157  55.793  1.00  0.00     0.210 C 
ENDBRANCH  28  32
ENDBRANCH  23  24
ENDBRANCH   1  23
TORSDOF 7
ENDMDL
MODEL 5
REMARK VINA RESULT:      -8.1      1.910      2.231
REMARK  7 active torsions:
REMARK  status: ('A' for Active; 'I' for Inactive)
REMARK    1  A    between atoms: O1_2  and  C2_3 
REMARK    2  A    between atoms: C5_6  and  O2_7 
REMARK    3  A    between atoms: O2_7  and  C6_8 
REMARK    4  A    between atoms: C9_11  and  N1_12 
REMARK       I    between atoms: N1_12  and  C10_13 
REMARK       I    between atoms: C10_13  and  N2_15 
REMARK    5  A    between atoms: N2_15  and  C11_16 
REMARK    6  A    between atoms: C14_19  and  C15_20 
REMARK    7  A    between atoms: C21_29  and  O4_30 
ROOT
HETATM    1  C6  UNL     1      22.754   1.655  51.232  1.00  0.00     0.069 A 
HETATM    2  C7  UNL     1      22.130   1.732  50.016  1.00  0.00     0.039 A 
HETATM    3  C8  UNL     1      21.087   2.595  49.774  1.00  0.00     0.032 A 
HETATM    4  C9  UNL     1      20.614   3.436  50.764  1.00  0.00     0.036 A 
HETATM    5  C18 UNL     1      21.222   3.383  52.010  1.00  0.00     0.032 A 
HETATM    6  C19 UNL     1      22.279   2.501  52.233  1.00  0.00     0.039 A 
ENDROOT
BRANCH   4   7
HETATM    7  N1  UNL     1      19.532   4.318  50.489  1.00  0.00    -0.309 N 
HETATM    8  C10 UNL     1      18.243   3.979  51.013  1.00  0.00     0.325 C 
HETATM    9  O3  UNL     1      18.180   2.903  51.688  1.00  0.00    -0.247 OA
HETATM   10  N2  UNL     1      17.007   4.702  50.873  1.00  0.00    -0.309 N 
HETATM   11  H11 UNL     1      17.132   5.584  50.301  1.00  0.00     0.170 HD
HETATM   12  H10 UNL     1      19.529   5.212  49.944  1.00  0.00     0.170 HD
BRANCH  10  13
HETATM   13  C11 UNL     1      15.876   4.091  51.526  1.00  0.00     0.036 A 
HETATM   14  C12 UNL     1      15.132   3.051  51.005  1.00  0.00     0.030 A 
HETATM   15  C13 UNL     1      14.075   2.567  51.746  1.00  0.00     0.018 A 
HETATM   16  C14 UNL     1      13.740   3.087  52.981  1.00  0.00     0.048 A 
HETATM   17  C16 UNL     1      14.479   4.141  53.529  1.00  0.00     0.018 A 
HETATM   18  C17 UNL     1      15.532   4.613  52.776  1.00  0.00     0.030 A 
BRANCH  16  19
HETATM   19  C15 UNL     1      12.603   2.564  53.776  1.00  0.00     0.417 C 
HETATM   20  F1  UNL     1      12.845   1.258  54.199  1.00  0.00    -0.166 F 
HETATM   21  F2  UNL     1      12.419   3.292  54.947  1.00  0.00    -0.166 F 
HETATM   22  F3  UNL     1      11.419   2.599  53.087  1.00  0.00    -0.166 F 
ENDBRANCH  16  19
ENDBRANCH  10  13
ENDBRANCH   4   7
BRANCH   1  23
HETATM   23  O2  UNL     1      23.784   0.896  51.700  1.00  0.00    -0.342 OA
BRANCH  23  24
HETATM   24  C5  UNL     1      24.867   1.321  52.494  1.00  0.00     0.158 A 
HETATM   25  C4  UNL     1      26.164   1.343  51.746  1.00  0.00     0.066 A 
HETATM   26  C3  UNL     1      27.177   0.540  52.470  1.00  0.00     0.015 A 
HETATM   27  C2  UNL     1      27.255  -0.181  53.576  1.00  0.00     0.097 A 
HETATM   28  C21 UNL     1      25.985  -0.199  54.301  1.00  0.00     0.100 A 
HETATM   29  C20 UNL     1      25.027   0.500  53.714  1.00  0.00     0.045 A 
BRANCH  27  30
HETATM   30  O1  UNL     1      28.298  -0.895  54.144  1.00  0.00    -0.353 OA
HETATM   31  C1  UNL     1      29.633  -0.769  53.764  1.00  0.00     0.210 C 
ENDBRANCH  27  30
BRANCH  28  32
HETATM   32  O4  UNL     1      25.697  -0.848  55.492  1.00  0.00    -0.353 OA
HETATM   33  C22 UNL     1      24.399  -1.319  55.781  1.00  0.00     0.210 C 
ENDBRANCH  28  32
ENDBRANCH  23  24
ENDBRANCH   1  23
TORSDOF 7
ENDMDL
MODEL 6
REMARK VINA RESULT:      -8.0      9.159     13.117
REMARK  7 active torsions:
REMARK  status: ('A' for Active; 'I' for Inactive)
REMARK    1  A    between atoms: O1_2  and  C2_3 
REMARK    2  A    between atoms: C5_6  and  O2_7 
REMARK    3  A    between atoms: O2_7  and  C6_8 
REMARK    4  A    between atoms: C9_11  and  N1_12 
REMARK       I    between atoms: N1_12  and  C10_13 
REMARK       I    between atoms: C10_13  and  N2_15 
REMARK    5  A    between atoms: N2_15  and  C11_16 
REMARK    6  A    between atoms: C14_19  and  C15_20 
REMARK    7  A    between atoms: C21_29  and  O4_30 
ROOT
HETATM    1  C6  UNL     1      24.639   4.370  50.633  1.00  0.00     0.069 A 
HETATM    2  C7  UNL     1      24.712   5.736  50.662  1.00  0.00     0.039 A 
HETATM    3  C8  UNL     1      25.590   6.446  49.875  1.00  0.00     0.032 A 
HETATM    4  C9  UNL     1      26.451   5.800  49.008  1.00  0.00     0.036 A 
HETATM    5  C18 UNL     1      26.403   4.415  48.953  1.00  0.00     0.032 A 
HETATM    6  C19 UNL     1      25.505   3.715  49.759  1.00  0.00     0.039 A 
ENDROOT
BRANCH   4   7
HETATM    7  N1  UNL     1      27.350   6.557  48.206  1.00  0.00    -0.309 N 
HETATM    8  C10 UNL     1      28.718   6.135  48.157  1.00  0.00     0.325 C 
HETATM    9  O3  UNL     1      29.010   5.106  48.844  1.00  0.00    -0.247 OA
HETATM   10  N2  UNL     1      29.806   6.729  47.427  1.00  0.00    -0.309 N 
HETATM   11  H11 UNL     1      29.494   7.579  46.880  1.00  0.00     0.170 HD
HETATM   12  H10 UNL     1      27.163   7.406  47.623  1.00  0.00     0.170 HD
BRANCH  10  13
HETATM   13  C11 UNL     1      31.074   6.058  47.587  1.00  0.00     0.036 A 
HETATM   14  C12 UNL     1      32.210   6.636  48.118  1.00  0.00     0.030 A 
HETATM   15  C13 UNL     1      33.352   5.871  48.210  1.00  0.00     0.018 A 
HETATM   16  C14 UNL     1      33.394   4.556  47.789  1.00  0.00     0.048 A 
HETATM   17  C16 UNL     1      32.256   3.949  47.247  1.00  0.00     0.018 A 
HETATM   18  C17 UNL     1      31.123   4.728  47.163  1.00  0.00     0.030 A 
BRANCH  16  19
HETATM   19  C15 UNL     1      34.624   3.734  47.889  1.00  0.00     0.417 C 
HETATM   20  F1  UNL     1      35.473   4.219  48.882  1.00  0.00    -0.166 F 
HETATM   21  F2  UNL     1      34.338   2.427  48.269  1.00  0.00    -0.166 F 
HETATM   22  F3  UNL     1      35.312   3.670  46.705  1.00  0.00    -0.166 F 
ENDBRANCH  16  19
ENDBRANCH  10  13
ENDBRANCH   4   7
BRANCH   1  23
HETATM   23  O2  UNL     1      23.868   3.467  51.303  1.00  0.00    -0.342 OA
BRANCH  23  24
HETATM   24  C5  UNL     1      23.774   2.082  51.067  1.00  0.00     0.158 A 
HETATM   25  C4  UNL     1      22.377   1.637  50.762  1.00  0.00     0.066 A 
HETATM   26  C3  UNL     1      21.984   0.546  51.685  1.00  0.00     0.015 A 
HETATM   27  C2  UNL     1      22.512  -0.134  52.688  1.00  0.00     0.097 A 
HETATM   28  C21 UNL     1      23.876   0.306  52.982  1.00  0.00     0.100 A 
HETATM   29  C20 UNL     1      24.301   1.282  52.195  1.00  0.00     0.045 A 
BRANCH  27  30
HETATM   30  O1  UNL     1      22.012  -1.156  53.479  1.00  0.00    -0.353 OA
HETATM   31  C1  UNL     1      21.492  -0.974  54.760  1.00  0.00     0.210 C 
ENDBRANCH  27  30
BRANCH  28  32
HETATM   32  O4  UNL     1      24.732  -0.176  53.959  1.00  0.00    -0.353 OA
HETATM   33  C22 UNL     1      26.127  -0.232  53.758  1.00  0.00     0.210 C 
ENDBRANCH  28  32
ENDBRANCH  23  24
ENDBRANCH   1  23
TORSDOF 7
ENDMDL
MODEL 7
REMARK VINA RESULT:      -8.0      6.491     11.349
REMARK  7 active torsions:
REMARK  status: ('A' for Active; 'I' for Inactive)
REMARK    1  A    between atoms: O1_2  and  C2_3 
REMARK    2  A    between atoms: C5_6  and  O2_7 
REMARK    3  A    between atoms: O2_7  and  C6_8 
REMARK    4  A    between atoms: C9_11  and  N1_12 
REMARK       I    between atoms: N1_12  and  C10_13 
REMARK       I    between atoms: C10_13  and  N2_15 
REMARK    5  A    between atoms: N2_15  and  C11_16 
REMARK    6  A    between atoms: C14_19  and  C15_20 
REMARK    7  A    between atoms: C21_29  and  O4_30 
ROOT
HETATM    1  C6  UNL     1      18.748  -0.205  52.172  1.00  0.00     0.069 A 
HETATM    2  C7  UNL     1      19.425   0.156  53.305  1.00  0.00     0.039 A 
HETATM    3  C8  UNL     1      20.480   1.040  53.285  1.00  0.00     0.032 A 
HETATM    4  C9  UNL     1      20.909   1.610  52.101  1.00  0.00     0.036 A 
HETATM    5  C18 UNL     1      20.244   1.266  50.933  1.00  0.00     0.032 A 
HETATM    6  C19 UNL     1      19.178   0.368  50.976  1.00  0.00     0.039 A 
ENDROOT
BRANCH   4   7
HETATM    7  N1  UNL     1      22.003   2.520  52.107  1.00  0.00    -0.309 N 
HETATM    8  C10 UNL     1      23.314   1.986  52.320  1.00  0.00     0.325 C 
HETATM    9  O3  UNL     1      23.385   0.728  52.487  1.00  0.00    -0.247 OA
HETATM   10  N2  UNL     1      24.566   2.695  52.369  1.00  0.00    -0.309 N 
HETATM   11  H11 UNL     1      24.434   3.735  52.225  1.00  0.00     0.170 HD
HETATM   12  H10 UNL     1      22.000   3.559  51.975  1.00  0.00     0.170 HD
BRANCH  10  13
HETATM   13  C11 UNL     1      25.720   1.860  52.601  1.00  0.00     0.036 A 
HETATM   14  C12 UNL     1      26.324   1.067  51.646  1.00  0.00     0.030 A 
HETATM   15  C13 UNL     1      27.423   0.321  52.015  1.00  0.00     0.018 A 
HETATM   16  C14 UNL     1      27.932   0.343  53.298  1.00  0.00     0.048 A 
HETATM   17  C16 UNL     1      27.336   1.138  54.284  1.00  0.00     0.018 A 
HETATM   18  C17 UNL     1      26.239   1.877  53.898  1.00  0.00     0.030 A 
BRANCH  16  19
HETATM   19  C15 UNL     1      29.115  -0.460  53.692  1.00  0.00     0.417 C 
HETATM   20  F1  UNL     1      29.082  -1.724  53.105  1.00  0.00    -0.166 F 
HETATM   21  F2  UNL     1      30.298   0.114  53.241  1.00  0.00    -0.166 F 
HETATM   22  F3  UNL     1      29.225  -0.602  55.051  1.00  0.00    -0.166 F 
ENDBRANCH  16  19
ENDBRANCH  10  13
ENDBRANCH   4   7
BRANCH   1  23
HETATM   23  O2  UNL     1      17.696  -1.042  51.946  1.00  0.00    -0.342 OA
BRANCH  23  24
HETATM   24  C5  UNL     1      16.906  -1.700  52.909  1.00  0.00     0.158 A 
HETATM   25  C4  UNL     1      17.611  -2.854  53.552  1.00  0.00     0.066 A 
HETATM   26  C3  UNL     1      16.790  -4.080  53.422  1.00  0.00     0.015 A 
HETATM   27  C2  UNL     1      15.627  -4.437  52.904  1.00  0.00     0.097 A 
HETATM   28  C21 UNL     1      14.944  -3.306  52.277  1.00  0.00     0.100 A 
HETATM   29  C20 UNL     1      15.617  -2.169  52.353  1.00  0.00     0.045 A 
BRANCH  27  30
HETATM   30  O1  UNL     1      14.969  -5.656  52.857  1.00  0.00    -0.353 OA
HETATM   31  C1  UNL     1      14.071  -6.100  53.826  1.00  0.00     0.210 C 
ENDBRANCH  27  30
BRANCH  28  32
HETATM   32  O4  UNL     1      13.714  -3.305  51.638  1.00  0.00    -0.353 OA
HETATM   33  C22 UNL     1      13.594  -3.611  50.265  1.00  0.00     0.210 C 
ENDBRANCH  28  32
ENDBRANCH  23  24
ENDBRANCH   1  23
TORSDOF 7
ENDMDL
MODEL 8
REMARK VINA RESULT:      -7.9      6.807     10.421
REMARK  7 active torsions:
REMARK  status: ('A' for Active; 'I' for Inactive)
REMARK    1  A    between atoms: O1_2  and  C2_3 
REMARK    2  A    between atoms: C5_6  and  O2_7 
REMARK    3  A    between atoms: O2_7  and  C6_8 
REMARK    4  A    between atoms: C9_11  and  N1_12 
REMARK       I    between atoms: N1_12  and  C10_13 
REMARK       I    between atoms: C10_13  and  N2_15 
REMARK    5  A    between atoms: N2_15  and  C11_16 
REMARK    6  A    between atoms: C14_19  and  C15_20 
REMARK    7  A    between atoms: C21_29  and  O4_30 
ROOT
HETATM    1  C6  UNL     1      20.199   2.489  50.185  1.00  0.00     0.069 A 
HETATM    2  C7  UNL     1      20.604   3.029  51.375  1.00  0.00     0.039 A 
HETATM    3  C8  UNL     1      21.150   2.268  52.384  1.00  0.00     0.032 A 
HETATM    4  C9  UNL     1      21.314   0.904  52.237  1.00  0.00     0.036 A 
HETATM    5  C18 UNL     1      20.914   0.323  51.042  1.00  0.00     0.032 A 
HETATM    6  C19 UNL     1      20.363   1.113  50.033  1.00  0.00     0.039 A 
ENDROOT
BRANCH   4   7
HETATM    7  N1  UNL     1      21.880   0.139  53.295  1.00  0.00    -0.309 N 
HETATM    8  C10 UNL     1      23.305  -0.001  53.332  1.00  0.00     0.325 C 
HETATM    9  O3  UNL     1      23.947   0.580  52.401  1.00  0.00    -0.247 OA
HETATM   10  N2  UNL     1      24.104  -0.717  54.290  1.00  0.00    -0.309 N 
HETATM   11  H11 UNL     1      23.507  -1.175  55.034  1.00  0.00     0.170 HD
HETATM   12  H10 UNL     1      21.400  -0.356  54.084  1.00  0.00     0.170 HD
BRANCH  10  13
HETATM   13  C11 UNL     1      25.525  -0.664  54.046  1.00  0.00     0.036 A 
HETATM   14  C12 UNL     1      26.171  -1.308  53.010  1.00  0.00     0.030 A 
HETATM   15  C13 UNL     1      27.538  -1.166  52.902  1.00  0.00     0.018 A 
HETATM   16  C14 UNL     1      28.273  -0.407  53.791  1.00  0.00     0.048 A 
HETATM   17  C16 UNL     1      27.641   0.254  54.850  1.00  0.00     0.018 A 
HETATM   18  C17 UNL     1      26.274   0.102  54.943  1.00  0.00     0.030 A 
BRANCH  16  19
HETATM   19  C15 UNL     1      29.743  -0.255  53.673  1.00  0.00     0.417 C 
HETATM   20  F1  UNL     1      30.129  -0.130  52.339  1.00  0.00    -0.166 F 
HETATM   21  F2  UNL     1      30.189   0.910  54.285  1.00  0.00    -0.166 F 
HETATM   22  F3  UNL     1      30.427  -1.299  54.239  1.00  0.00    -0.166 F 
ENDBRANCH  16  19
ENDBRANCH  10  13
ENDBRANCH   4   7
BRANCH   1  23
HETATM   23  O2  UNL     1      19.642   3.028  49.063  1.00  0.00    -0.342 OA
BRANCH  23  24
HETATM   24  C5  UNL     1      20.273   3.844  48.104  1.00  0.00     0.158 A 
HETATM   25  C4  UNL     1      21.527   3.236  47.556  1.00  0.00     0.066 A 
HETATM   26  C3  UNL     1      22.657   4.181  47.717  1.00  0.00     0.015 A 
HETATM   27  C2  UNL     1      22.865   5.393  48.202  1.00  0.00     0.097 A 
HETATM   28  C21 UNL     1      21.638   5.981  48.736  1.00  0.00     0.100 A 
HETATM   29  C20 UNL     1      20.580   5.194  48.628  1.00  0.00     0.045 A 
BRANCH  27  30
HETATM   30  O1  UNL     1      24.008   6.172  48.286  1.00  0.00    -0.353 OA
HETATM   31  C1  UNL     1      25.172   5.789  48.950  1.00  0.00     0.210 C 
ENDBRANCH  27  30
BRANCH  28  32
HETATM   32  O4  UNL     1      21.478   7.228  49.320  1.00  0.00    -0.353 OA
HETATM   33  C22 UNL     1      21.706   7.434  50.697  1.00  0.00     0.210 C 
ENDBRANCH  28  32
ENDBRANCH  23  24
ENDBRANCH   1  23
TORSDOF 7
ENDMDL
MODEL 9
REMARK VINA RESULT:      -7.8      1.838      2.633
REMARK  7 active torsions:
REMARK  status: ('A' for Active; 'I' for Inactive)
REMARK    1  A    between atoms: O1_2  and  C2_3 
REMARK    2  A    between atoms: C5_6  and  O2_7 
REMARK    3  A    between atoms: O2_7  and  C6_8 
REMARK    4  A    between atoms: C9_11  and  N1_12 
REMARK       I    between atoms: N1_12  and  C10_13 
REMARK       I    between atoms: C10_13  and  N2_15 
REMARK    5  A    between atoms: N2_15  and  C11_16 
REMARK    6  A    between atoms: C14_19  and  C15_20 
REMARK    7  A    between atoms: C21_29  and  O4_30 
ROOT
HETATM    1  C6  UNL     1      21.292   0.421  52.874  1.00  0.00     0.069 A 
HETATM    2  C7  UNL     1      20.827   1.002  51.725  1.00  0.00     0.039 A 
HETATM    3  C8  UNL     1      19.595   0.700  51.191  1.00  0.00     0.032 A 
HETATM    4  C9  UNL     1      18.761  -0.219  51.800  1.00  0.00     0.036 A 
HETATM    5  C18 UNL     1      19.201  -0.827  52.966  1.00  0.00     0.032 A 
HETATM    6  C19 UNL     1      20.453  -0.506  53.490  1.00  0.00     0.039 A 
ENDROOT
BRANCH   4   7
HETATM    7  N1  UNL     1      17.493  -0.515  51.226  1.00  0.00    -0.309 N 
HETATM    8  C10 UNL     1      16.332   0.054  51.841  1.00  0.00     0.325 C 
HETATM    9  O3  UNL     1      16.541   0.785  52.860  1.00  0.00    -0.247 OA
HETATM   10  N2  UNL     1      14.955  -0.096  51.451  1.00  0.00    -0.309 N 
HETATM   11  H11 UNL     1      14.854  -0.716  50.599  1.00  0.00     0.170 HD
HETATM   12  H10 UNL     1      17.266  -1.106  50.391  1.00  0.00     0.170 HD
BRANCH  10  13
HETATM   13  C11 UNL     1      14.014   0.614  52.283  1.00  0.00     0.036 A 
HETATM   14  C12 UNL     1      13.566   1.898  52.048  1.00  0.00     0.030 A 
HETATM   15  C13 UNL     1      12.664   2.449  52.934  1.00  0.00     0.018 A 
HETATM   16  C14 UNL     1      12.200   1.761  54.037  1.00  0.00     0.048 A 
HETATM   17  C16 UNL     1      12.640   0.458  54.297  1.00  0.00     0.018 A 
HETATM   18  C17 UNL     1      13.542  -0.077  53.402  1.00  0.00     0.030 A 
BRANCH  16  19
HETATM   19  C15 UNL     1      11.229   2.355  54.988  1.00  0.00     0.417 C 
HETATM   20  F1  UNL     1       9.948   1.845  54.780  1.00  0.00    -0.166 F 
HETATM   21  F2  UNL     1      11.535   2.029  56.304  1.00  0.00    -0.166 F 
HETATM   22  F3  UNL     1      11.184   3.722  54.908  1.00  0.00    -0.166 F 
ENDBRANCH  16  19
ENDBRANCH  10  13
ENDBRANCH   4   7
BRANCH   1  23
HETATM   23  O2  UNL     1      22.450   0.557  53.579  1.00  0.00    -0.342 OA
BRANCH  23  24
HETATM   24  C5  UNL     1      23.666  -0.121  53.363  1.00  0.00     0.158 A 
HETATM   25  C4  UNL     1      24.126  -0.890  54.562  1.00  0.00     0.066 A 
HETATM   26  C3  UNL     1      25.506  -0.489  54.920  1.00  0.00     0.015 A 
HETATM   27  C2  UNL     1      26.433   0.347  54.483  1.00  0.00     0.097 A 
HETATM   28  C21 UNL     1      25.978   1.097  53.312  1.00  0.00     0.100 A 
HETATM   29  C20 UNL     1      24.749   0.791  52.930  1.00  0.00     0.045 A 
BRANCH  27  30
HETATM   30  O1  UNL     1      27.716   0.623  54.930  1.00  0.00    -0.353 OA
HETATM   31  C1  UNL     1      28.857  -0.058  54.508  1.00  0.00     0.210 C 
ENDBRANCH  27  30
BRANCH  28  32
HETATM   32  O4  UNL     1      26.677   2.053  52.593  1.00  0.00    -0.353 OA
HETATM   33  C22 UNL     1      26.217   2.519  51.343  1.00  0.00     0.210 C 
ENDBRANCH  28  32
ENDBRANCH  23  24
ENDBRANCH   1  23
TORSDOF 7
ENDMDL
