MODEL 1
REMARK VINA RESULT:      -6.4      0.000      0.000
REMARK  12 active torsions:
REMARK  status: ('A' for Active; 'I' for Inactive)
REMARK    1  A    between atoms: C3_3  and  C4_4 
REMARK    2  A    between atoms: C4_4  and  C5_5 
REMARK    3  A    between atoms: C5_5  and  C6_6 
REMARK    4  A    between atoms: C6_6  and  C7_7 
REMARK    5  A    between atoms: C7_7  and  O1_8 
REMARK    6  A    between atoms: C9_12  and  N3_13 
REMARK    7  A    between atoms: N3_13  and  C10_14 
REMARK    8  A    between atoms: C10_14  and  C11_15 
REMARK    9  A    between atoms: C12_16  and  C13_18 
REMARK   10  A    between atoms: C13_18  and  O2_19 
REMARK   11  A    between atoms: O2_19  and  C14_20 
REMARK   12  A    between atoms: C15_21  and  C16_22 
ROOT
HETATM    1  C1  UNL     1      26.578   2.010  50.940  1.00  0.00     0.055 C 
HETATM    2  C2  UNL     1      25.706   3.207  50.813  1.00  0.00     0.013 A 
HETATM    3  C3  UNL     1      25.916   4.257  49.942  1.00  0.00     0.075 A 
HETATM    4  N1  UNL     1      25.094   5.315  49.870  1.00  0.00    -0.241 NA
HETATM    5  C8  UNL     1      24.020   5.360  50.677  1.00  0.00     0.235 A 
HETATM    6  N2  UNL     1      23.804   4.350  51.526  1.00  0.00    -0.224 NA
HETATM    7  C9  UNL     1      24.596   3.270  51.637  1.00  0.00     0.133 A 
ENDROOT
BRANCH   7   8
HETATM    8  N3  UNL     1      24.308   2.245  52.551  1.00  0.00    -0.371 N 
HETATM    9  H10 UNL     1      24.689   2.307  53.531  1.00  0.00     0.161 HD
BRANCH   8  10
HETATM   10  C10 UNL     1      23.508   1.108  52.187  1.00  0.00     0.150 C 
BRANCH  10  11
HETATM   11  C11 UNL     1      23.114   0.352  53.395  1.00  0.00     0.014 C 
HETATM   12  C12 UNL     1      23.836  -0.536  54.103  1.00  0.00     0.033 C 
HETATM   13 CL1  UNL     1      23.316  -1.410  55.541  1.00  0.00    -0.087 Cl
BRANCH  12  14
HETATM   14  C13 UNL     1      25.231  -0.987  53.844  1.00  0.00     0.225 C 
BRANCH  14  15
HETATM   15  O2  UNL     1      26.119  -0.479  54.840  1.00  0.00    -0.358 OA
BRANCH  15  16
HETATM   16  C14 UNL     1      27.078   0.465  54.502  1.00  0.00     0.133 C 
HETATM   17  C15 UNL     1      28.405   0.519  54.574  1.00  0.00     0.028 C 
BRANCH  17  18
HETATM   18  C16 UNL     1      29.133   1.731  54.104  1.00  0.00     0.251 C 
HETATM   19  F1  UNL     1      28.260   2.768  53.842  1.00  0.00    -0.251 F 
ENDBRANCH  17  18
ENDBRANCH  15  16
ENDBRANCH  14  15
ENDBRANCH  12  14
ENDBRANCH  10  11
ENDBRANCH   8  10
ENDBRANCH   7   8
BRANCH   3  20
HETATM   20  C4  UNL     1      27.081   4.173  49.091  1.00  0.00     0.083 C 
BRANCH  20  21
HETATM   21  C5  UNL     1      27.652   5.290  48.731  1.00  0.00    -0.145 C 
BRANCH  21  22
HETATM   22  C6  UNL     1      28.213   6.313  48.118  1.00  0.00     0.097 C 
BRANCH  22  23
HETATM   23  C7  UNL     1      27.754   7.669  48.476  1.00  0.00     0.181 C 
BRANCH  23  24
HETATM   24  O1  UNL     1      27.264   7.570  49.799  1.00  0.00    -0.400 OA
HETATM   25  H8  UNL     1      27.075   6.592  49.928  1.00  0.00     0.209 HD
ENDBRANCH  23  24
ENDBRANCH  22  23
ENDBRANCH  21  22
ENDBRANCH  20  21
ENDBRANCH   3  20
TORSDOF 12
ENDMDL
MODEL 2
REMARK VINA RESULT:      -6.2      3.049      6.076
REMARK  12 active torsions:
REMARK  status: ('A' for Active; 'I' for Inactive)
REMARK    1  A    between atoms: C3_3  and  C4_4 
REMARK    2  A    between atoms: C4_4  and  C5_5 
REMARK    3  A    between atoms: C5_5  and  C6_6 
REMARK    4  A    between atoms: C6_6  and  C7_7 
REMARK    5  A    between atoms: C7_7  and  O1_8 
REMARK    6  A    between atoms: C9_12  and  N3_13 
REMARK    7  A    between atoms: N3_13  and  C10_14 
REMARK    8  A    between atoms: C10_14  and  C11_15 
REMARK    9  A    between atoms: C12_16  and  C13_18 
REMARK   10  A    between atoms: C13_18  and  O2_19 
REMARK   11  A    between atoms: O2_19  and  C14_20 
REMARK   12  A    between atoms: C15_21  and  C16_22 
ROOT
HETATM    1  C1  UNL     1      26.053   1.420  51.606  1.00  0.00     0.055 C 
HETATM    2  C2  UNL     1      25.580   0.540  52.707  1.00  0.00     0.013 A 
HETATM    3  C3  UNL     1      26.307  -0.487  53.275  1.00  0.00     0.075 A 
HETATM    4  N1  UNL     1      25.830  -1.250  54.270  1.00  0.00    -0.241 NA
HETATM    5  C8  UNL     1      24.593  -1.010  54.736  1.00  0.00     0.235 A 
HETATM    6  N2  UNL     1      23.876  -0.019  54.196  1.00  0.00    -0.224 NA
HETATM    7  C9  UNL     1      24.308   0.773  53.201  1.00  0.00     0.133 A 
ENDROOT
BRANCH   7   8
HETATM    8  N3  UNL     1      23.502   1.798  52.680  1.00  0.00    -0.371 N 
HETATM    9  H10 UNL     1      23.828   2.797  52.751  1.00  0.00     0.161 HD
BRANCH   8  10
HETATM   10  C10 UNL     1      22.240   1.522  52.050  1.00  0.00     0.150 C 
BRANCH  10  11
HETATM   11  C11 UNL     1      22.397   1.499  50.580  1.00  0.00     0.014 C 
HETATM   12  C12 UNL     1      22.613   2.530  49.742  1.00  0.00     0.033 C 
HETATM   13 CL1  UNL     1      22.795   2.446  47.992  1.00  0.00    -0.087 Cl
BRANCH  12  14
HETATM   14  C13 UNL     1      22.750   3.971  50.089  1.00  0.00     0.225 C 
BRANCH  14  15
HETATM   15  O2  UNL     1      23.915   4.191  50.884  1.00  0.00    -0.358 OA
BRANCH  15  16
HETATM   16  C14 UNL     1      25.063   4.717  50.309  1.00  0.00     0.133 C 
HETATM   17  C15 UNL     1      25.613   4.660  49.100  1.00  0.00     0.028 C 
BRANCH  17  18
HETATM   18  C16 UNL     1      26.895   5.369  48.826  1.00  0.00     0.251 C 
HETATM   19  F1  UNL     1      27.876   4.485  48.418  1.00  0.00    -0.251 F 
ENDBRANCH  17  18
ENDBRANCH  15  16
ENDBRANCH  14  15
ENDBRANCH  12  14
ENDBRANCH  10  11
ENDBRANCH   8  10
ENDBRANCH   7   8
BRANCH   3  20
HETATM   20  C4  UNL     1      27.633  -0.713  52.747  1.00  0.00     0.083 C 
BRANCH  20  21
HETATM   21  C5  UNL     1      28.646  -0.248  53.427  1.00  0.00    -0.145 C 
BRANCH  21  22
HETATM   22  C6  UNL     1      29.550   0.463  54.069  1.00  0.00     0.097 C 
BRANCH  22  23
HETATM   23  C7  UNL     1      29.232   1.871  54.375  1.00  0.00     0.181 C 
BRANCH  23  24
HETATM   24  O1  UNL     1      29.115   2.518  53.123  1.00  0.00    -0.400 OA
HETATM   25  H8  UNL     1      30.058   2.753  52.869  1.00  0.00     0.209 HD
ENDBRANCH  23  24
ENDBRANCH  22  23
ENDBRANCH  21  22
ENDBRANCH  20  21
ENDBRANCH   3  20
TORSDOF 12
ENDMDL
MODEL 3
REMARK VINA RESULT:      -6.1      3.125      6.796
REMARK  12 active torsions:
REMARK  status: ('A' for Active; 'I' for Inactive)
REMARK    1  A    between atoms: C3_3  and  C4_4 
REMARK    2  A    between atoms: C4_4  and  C5_5 
REMARK    3  A    between atoms: C5_5  and  C6_6 
REMARK    4  A    between atoms: C6_6  and  C7_7 
REMARK    5  A    between atoms: C7_7  and  O1_8 
REMARK    6  A    between atoms: C9_12  and  N3_13 
REMARK    7  A    between atoms: N3_13  and  C10_14 
REMARK    8  A    between atoms: C10_14  and  C11_15 
REMARK    9  A    between atoms: C12_16  and  C13_18 
REMARK   10  A    between atoms: C13_18  and  O2_19 
REMARK   11  A    between atoms: O2_19  and  C14_20 
REMARK   12  A    between atoms: C15_21  and  C16_22 
ROOT
HETATM    1  C1  UNL     1      27.053   2.251  52.824  1.00  0.00     0.055 C 
HETATM    2  C2  UNL     1      26.333   1.153  53.521  1.00  0.00     0.013 A 
HETATM    3  C3  UNL     1      26.898   0.275  54.424  1.00  0.00     0.075 A 
HETATM    4  N1  UNL     1      26.198  -0.699  55.025  1.00  0.00    -0.241 NA
HETATM    5  C8  UNL     1      24.892  -0.831  54.739  1.00  0.00     0.235 A 
HETATM    6  N2  UNL     1      24.330   0.013  53.866  1.00  0.00    -0.224 NA
HETATM    7  C9  UNL     1      24.986   1.003  53.239  1.00  0.00     0.133 A 
ENDROOT
BRANCH   7   8
HETATM    8  N3  UNL     1      24.333   1.853  52.334  1.00  0.00    -0.371 N 
HETATM    9  H10 UNL     1      24.901   2.380  51.620  1.00  0.00     0.161 HD
BRANCH   8  10
HETATM   10  C10 UNL     1      22.906   2.026  52.351  1.00  0.00     0.150 C 
BRANCH  10  11
HETATM   11  C11 UNL     1      22.300   1.394  51.160  1.00  0.00     0.014 C 
HETATM   12  C12 UNL     1      22.248   1.859  49.898  1.00  0.00     0.033 C 
HETATM   13 CL1  UNL     1      21.512   1.061  48.510  1.00  0.00    -0.087 Cl
BRANCH  12  14
HETATM   14  C13 UNL     1      22.796   3.142  49.377  1.00  0.00     0.225 C 
BRANCH  14  15
HETATM   15  O2  UNL     1      24.218   3.077  49.270  1.00  0.00    -0.358 OA
BRANCH  15  16
HETATM   16  C14 UNL     1      24.970   4.244  49.263  1.00  0.00     0.133 C 
HETATM   17  C15 UNL     1      24.778   5.477  48.806  1.00  0.00     0.028 C 
BRANCH  17  18
HETATM   18  C16 UNL     1      25.836   6.513  48.976  1.00  0.00     0.251 C 
HETATM   19  F1  UNL     1      27.076   5.934  49.161  1.00  0.00    -0.251 F 
ENDBRANCH  17  18
ENDBRANCH  15  16
ENDBRANCH  14  15
ENDBRANCH  12  14
ENDBRANCH  10  11
ENDBRANCH   8  10
ENDBRANCH   7   8
BRANCH   3  20
HETATM   20  C4  UNL     1      28.305   0.449  54.705  1.00  0.00     0.083 C 
BRANCH  20  21
HETATM   21  C5  UNL     1      29.134  -0.438  54.225  1.00  0.00    -0.145 C 
BRANCH  21  22
HETATM   22  C6  UNL     1      29.753  -1.421  53.602  1.00  0.00     0.097 C 
BRANCH  22  23
HETATM   23  C7  UNL     1      28.938  -2.345  52.789  1.00  0.00     0.181 C 
BRANCH  23  24
HETATM   24  O1  UNL     1      28.786  -3.512  53.572  1.00  0.00    -0.400 OA
HETATM   25  H8  UNL     1      28.181  -3.236  54.325  1.00  0.00     0.209 HD
ENDBRANCH  23  24
ENDBRANCH  22  23
ENDBRANCH  21  22
ENDBRANCH  20  21
ENDBRANCH   3  20
TORSDOF 12
ENDMDL
MODEL 4
REMARK VINA RESULT:      -6.1      2.985      6.263
REMARK  12 active torsions:
REMARK  status: ('A' for Active; 'I' for Inactive)
REMARK    1  A    between atoms: C3_3  and  C4_4 
REMARK    2  A    between atoms: C4_4  and  C5_5 
REMARK    3  A    between atoms: C5_5  and  C6_6 
REMARK    4  A    between atoms: C6_6  and  C7_7 
REMARK    5  A    between atoms: C7_7  and  O1_8 
REMARK    6  A    between atoms: C9_12  and  N3_13 
REMARK    7  A    between atoms: N3_13  and  C10_14 
REMARK    8  A    between atoms: C10_14  and  C11_15 
REMARK    9  A    between atoms: C12_16  and  C13_18 
REMARK   10  A    between atoms: C13_18  and  O2_19 
REMARK   11  A    between atoms: O2_19  and  C14_20 
REMARK   12  A    between atoms: C15_21  and  C16_22 
ROOT
HETATM    1  C1  UNL     1      26.527   2.124  50.982  1.00  0.00     0.055 C 
HETATM    2  C2  UNL     1      25.537   1.410  51.830  1.00  0.00     0.013 A 
HETATM    3  C3  UNL     1      25.783   0.253  52.542  1.00  0.00     0.075 A 
HETATM    4  N1  UNL     1      24.849  -0.349  53.293  1.00  0.00    -0.241 NA
HETATM    5  C8  UNL     1      23.621   0.191  53.360  1.00  0.00     0.235 A 
HETATM    6  N2  UNL     1      23.367   1.312  52.675  1.00  0.00    -0.224 NA
HETATM    7  C9  UNL     1      24.266   1.953  51.910  1.00  0.00     0.133 A 
ENDROOT
BRANCH   7   8
HETATM    8  N3  UNL     1      23.931   3.127  51.218  1.00  0.00    -0.371 N 
HETATM    9  H10 UNL     1      24.561   3.467  50.445  1.00  0.00     0.161 HD
BRANCH   8  10
HETATM   10  C10 UNL     1      22.751   3.883  51.535  1.00  0.00     0.150 C 
BRANCH  10  11
HETATM   11  C11 UNL     1      23.083   5.317  51.673  1.00  0.00     0.014 C 
HETATM   12  C12 UNL     1      23.555   6.163  50.739  1.00  0.00     0.033 C 
HETATM   13 CL1  UNL     1      23.933   7.870  50.958  1.00  0.00    -0.087 Cl
BRANCH  12  14
HETATM   14  C13 UNL     1      23.863   5.865  49.314  1.00  0.00     0.225 C 
BRANCH  14  15
HETATM   15  O2  UNL     1      25.003   5.010  49.212  1.00  0.00    -0.358 OA
BRANCH  15  16
HETATM   16  C14 UNL     1      26.234   5.532  48.841  1.00  0.00     0.133 C 
HETATM   17  C15 UNL     1      27.444   5.019  48.638  1.00  0.00     0.028 C 
BRANCH  17  18
HETATM   18  C16 UNL     1      28.574   5.902  48.235  1.00  0.00     0.251 C 
HETATM   19  F1  UNL     1      29.733   5.567  48.908  1.00  0.00    -0.251 F 
ENDBRANCH  17  18
ENDBRANCH  15  16
ENDBRANCH  14  15
ENDBRANCH  12  14
ENDBRANCH  10  11
ENDBRANCH   8  10
ENDBRANCH   7   8
BRANCH   3  20
HETATM   20  C4  UNL     1      27.116  -0.297  52.446  1.00  0.00     0.083 C 
BRANCH  20  21
HETATM   21  C5  UNL     1      28.007   0.115  53.307  1.00  0.00    -0.145 C 
BRANCH  21  22
HETATM   22  C6  UNL     1      28.847   0.778  54.077  1.00  0.00     0.097 C 
BRANCH  22  23
HETATM   23  C7  UNL     1      29.009   2.224  53.837  1.00  0.00     0.181 C 
BRANCH  23  24
HETATM   24  O1  UNL     1      27.779   2.814  54.209  1.00  0.00    -0.400 OA
HETATM   25  H8  UNL     1      27.422   3.216  53.360  1.00  0.00     0.209 HD
ENDBRANCH  23  24
ENDBRANCH  22  23
ENDBRANCH  21  22
ENDBRANCH  20  21
ENDBRANCH   3  20
TORSDOF 12
ENDMDL
MODEL 5
REMARK VINA RESULT:      -6.1      2.464      3.603
REMARK  12 active torsions:
REMARK  status: ('A' for Active; 'I' for Inactive)
REMARK    1  A    between atoms: C3_3  and  C4_4 
REMARK    2  A    between atoms: C4_4  and  C5_5 
REMARK    3  A    between atoms: C5_5  and  C6_6 
REMARK    4  A    between atoms: C6_6  and  C7_7 
REMARK    5  A    between atoms: C7_7  and  O1_8 
REMARK    6  A    between atoms: C9_12  and  N3_13 
REMARK    7  A    between atoms: N3_13  and  C10_14 
REMARK    8  A    between atoms: C10_14  and  C11_15 
REMARK    9  A    between atoms: C12_16  and  C13_18 
REMARK   10  A    between atoms: C13_18  and  O2_19 
REMARK   11  A    between atoms: O2_19  and  C14_20 
REMARK   12  A    between atoms: C15_21  and  C16_22 
ROOT
HETATM    1  C1  UNL     1      27.415   4.713  48.729  1.00  0.00     0.055 C 
HETATM    2  C2  UNL     1      26.114   4.913  49.421  1.00  0.00     0.013 A 
HETATM    3  C3  UNL     1      25.260   5.978  49.221  1.00  0.00     0.075 A 
HETATM    4  N1  UNL     1      24.096   6.108  49.875  1.00  0.00    -0.241 NA
HETATM    5  C8  UNL     1      23.741   5.165  50.764  1.00  0.00     0.235 A 
HETATM    6  N2  UNL     1      24.559   4.126  50.969  1.00  0.00    -0.224 NA
HETATM    7  C9  UNL     1      25.733   3.950  50.340  1.00  0.00     0.133 A 
ENDROOT
BRANCH   7   8
HETATM    8  N3  UNL     1      26.542   2.835  50.604  1.00  0.00    -0.371 N 
HETATM    9  H10 UNL     1      27.441   2.712  50.068  1.00  0.00     0.161 HD
BRANCH   8  10
HETATM   10  C10 UNL     1      26.180   1.851  51.587  1.00  0.00     0.150 C 
BRANCH  10  11
HETATM   11  C11 UNL     1      27.368   1.447  52.368  1.00  0.00     0.014 C 
HETATM   12  C12 UNL     1      27.615   0.271  52.974  1.00  0.00     0.033 C 
HETATM   13 CL1  UNL     1      29.055  -0.159  53.894  1.00  0.00    -0.087 Cl
BRANCH  12  14
HETATM   14  C13 UNL     1      26.743  -0.935  53.011  1.00  0.00     0.225 C 
BRANCH  14  15
HETATM   15  O2  UNL     1      26.015  -0.994  54.238  1.00  0.00    -0.358 OA
BRANCH  15  16
HETATM   16  C14 UNL     1      24.654  -0.725  54.255  1.00  0.00     0.133 C 
HETATM   17  C15 UNL     1      23.772  -0.306  53.353  1.00  0.00     0.028 C 
BRANCH  17  18
HETATM   18  C16 UNL     1      22.343  -0.118  53.731  1.00  0.00     0.251 C 
HETATM   19  F1  UNL     1      22.141  -0.398  55.068  1.00  0.00    -0.251 F 
ENDBRANCH  17  18
ENDBRANCH  15  16
ENDBRANCH  14  15
ENDBRANCH  12  14
ENDBRANCH  10  11
ENDBRANCH   8  10
ENDBRANCH   7   8
BRANCH   3  20
HETATM   20  C4  UNL     1      25.676   6.972  48.257  1.00  0.00     0.083 C 
BRANCH  20  21
HETATM   21  C5  UNL     1      25.949   8.169  48.700  1.00  0.00    -0.145 C 
BRANCH  21  22
HETATM   22  C6  UNL     1      26.248   9.253  49.388  1.00  0.00     0.097 C 
BRANCH  22  23
HETATM   23  C7  UNL     1      27.658   9.460  49.772  1.00  0.00     0.181 C 
BRANCH  23  24
HETATM   24  O1  UNL     1      27.668   9.492  51.186  1.00  0.00    -0.400 OA
HETATM   25  H8  UNL     1      28.145   8.651  51.456  1.00  0.00     0.209 HD
ENDBRANCH  23  24
ENDBRANCH  22  23
ENDBRANCH  21  22
ENDBRANCH  20  21
ENDBRANCH   3  20
TORSDOF 12
ENDMDL
MODEL 6
REMARK VINA RESULT:      -6.1      3.522      5.953
REMARK  12 active torsions:
REMARK  status: ('A' for Active; 'I' for Inactive)
REMARK    1  A    between atoms: C3_3  and  C4_4 
REMARK    2  A    between atoms: C4_4  and  C5_5 
REMARK    3  A    between atoms: C5_5  and  C6_6 
REMARK    4  A    between atoms: C6_6  and  C7_7 
REMARK    5  A    between atoms: C7_7  and  O1_8 
REMARK    6  A    between atoms: C9_12  and  N3_13 
REMARK    7  A    between atoms: N3_13  and  C10_14 
REMARK    8  A    between atoms: C10_14  and  C11_15 
REMARK    9  A    between atoms: C12_16  and  C13_18 
REMARK   10  A    between atoms: C13_18  and  O2_19 
REMARK   11  A    between atoms: O2_19  and  C14_20 
REMARK   12  A    between atoms: C15_21  and  C16_22 
ROOT
HETATM    1  C1  UNL     1      23.864   0.480  52.934  1.00  0.00     0.055 C 
HETATM    2  C2  UNL     1      24.833   1.332  52.195  1.00  0.00     0.013 A 
HETATM    3  C3  UNL     1      26.134   0.984  51.895  1.00  0.00     0.075 A 
HETATM    4  N1  UNL     1      26.966   1.794  51.224  1.00  0.00    -0.241 NA
HETATM    5  C8  UNL     1      26.520   2.996  50.824  1.00  0.00     0.235 A 
HETATM    6  N2  UNL     1      25.261   3.348  51.107  1.00  0.00    -0.224 NA
HETATM    7  C9  UNL     1      24.390   2.574  51.775  1.00  0.00     0.133 A 
ENDROOT
BRANCH   7   8
HETATM    8  N3  UNL     1      23.081   3.007  52.038  1.00  0.00    -0.371 N 
HETATM    9  H10 UNL     1      22.682   2.885  53.006  1.00  0.00     0.161 HD
BRANCH   8  10
HETATM   10  C10 UNL     1      22.265   3.613  51.022  1.00  0.00     0.150 C 
BRANCH  10  11
HETATM   11  C11 UNL     1      21.437   2.588  50.352  1.00  0.00     0.014 C 
HETATM   12  C12 UNL     1      20.242   2.096  50.728  1.00  0.00     0.033 C 
HETATM   13 CL1  UNL     1      19.294   0.872  49.888  1.00  0.00    -0.087 Cl
BRANCH  12  14
HETATM   14  C13 UNL     1      19.443   2.466  51.929  1.00  0.00     0.225 C 
BRANCH  14  15
HETATM   15  O2  UNL     1      20.217   2.309  53.119  1.00  0.00    -0.358 OA
BRANCH  15  16
HETATM   16  C14 UNL     1      20.503   1.039  53.601  1.00  0.00     0.133 C 
HETATM   17  C15 UNL     1      20.037  -0.181  53.356  1.00  0.00     0.028 C 
BRANCH  17  18
HETATM   18  C16 UNL     1      20.594  -1.357  54.084  1.00  0.00     0.251 C 
HETATM   19  F1  UNL     1      21.452  -0.959  55.090  1.00  0.00    -0.251 F 
ENDBRANCH  17  18
ENDBRANCH  15  16
ENDBRANCH  14  15
ENDBRANCH  12  14
ENDBRANCH  10  11
ENDBRANCH   8  10
ENDBRANCH   7   8
BRANCH   3  20
HETATM   20  C4  UNL     1      26.578  -0.318  52.342  1.00  0.00     0.083 C 
BRANCH  20  21
HETATM   21  C5  UNL     1      27.744  -0.394  52.924  1.00  0.00    -0.145 C 
BRANCH  21  22
HETATM   22  C6  UNL     1      28.858  -0.225  53.607  1.00  0.00     0.097 C 
BRANCH  22  23
HETATM   23  C7  UNL     1      29.091   1.091  54.233  1.00  0.00     0.181 C 
BRANCH  23  24
HETATM   24  O1  UNL     1      29.264   1.999  53.163  1.00  0.00    -0.400 OA
HETATM   25  H8  UNL     1      28.889   2.866  53.503  1.00  0.00     0.209 HD
ENDBRANCH  23  24
ENDBRANCH  22  23
ENDBRANCH  21  22
ENDBRANCH  20  21
ENDBRANCH   3  20
TORSDOF 12
ENDMDL
MODEL 7
REMARK VINA RESULT:      -6.1      3.950      7.468
REMARK  12 active torsions:
REMARK  status: ('A' for Active; 'I' for Inactive)
REMARK    1  A    between atoms: C3_3  and  C4_4 
REMARK    2  A    between atoms: C4_4  and  C5_5 
REMARK    3  A    between atoms: C5_5  and  C6_6 
REMARK    4  A    between atoms: C6_6  and  C7_7 
REMARK    5  A    between atoms: C7_7  and  O1_8 
REMARK    6  A    between atoms: C9_12  and  N3_13 
REMARK    7  A    between atoms: N3_13  and  C10_14 
REMARK    8  A    between atoms: C10_14  and  C11_15 
REMARK    9  A    between atoms: C12_16  and  C13_18 
REMARK   10  A    between atoms: C13_18  and  O2_19 
REMARK   11  A    between atoms: O2_19  and  C14_20 
REMARK   12  A    between atoms: C15_21  and  C16_22 
ROOT
HETATM    1  C1  UNL     1      25.162   2.877  52.574  1.00  0.00     0.055 C 
HETATM    2  C2  UNL     1      23.678   2.927  52.497  1.00  0.00     0.013 A 
HETATM    3  C3  UNL     1      22.841   1.829  52.510  1.00  0.00     0.075 A 
HETATM    4  N1  UNL     1      21.506   1.933  52.438  1.00  0.00    -0.241 NA
HETATM    5  C8  UNL     1      20.953   3.155  52.349  1.00  0.00     0.235 A 
HETATM    6  N2  UNL     1      21.751   4.229  52.336  1.00  0.00    -0.224 NA
HETATM    7  C9  UNL     1      23.092   4.178  52.405  1.00  0.00     0.133 A 
ENDROOT
BRANCH   7   8
HETATM    8  N3  UNL     1      23.869   5.346  52.386  1.00  0.00    -0.371 N 
HETATM    9  H10 UNL     1      24.585   5.501  53.143  1.00  0.00     0.161 HD
BRANCH   8  10
HETATM   10  C10 UNL     1      23.716   6.341  51.361  1.00  0.00     0.150 C 
BRANCH  10  11
HETATM   11  C11 UNL     1      24.967   6.471  50.584  1.00  0.00     0.014 C 
HETATM   12  C12 UNL     1      25.483   5.623  49.674  1.00  0.00     0.033 C 
HETATM   13 CL1  UNL     1      26.982   5.830  48.773  1.00  0.00    -0.087 Cl
BRANCH  12  14
HETATM   14  C13 UNL     1      24.917   4.325  49.216  1.00  0.00     0.225 C 
BRANCH  14  15
HETATM   15  O2  UNL     1      23.639   4.517  48.608  1.00  0.00    -0.358 OA
BRANCH  15  16
HETATM   16  C14 UNL     1      22.646   3.560  48.756  1.00  0.00     0.133 C 
HETATM   17  C15 UNL     1      22.605   2.234  48.676  1.00  0.00     0.028 C 
BRANCH  17  18
HETATM   18  C16 UNL     1      21.324   1.507  48.900  1.00  0.00     0.251 C 
HETATM   19  F1  UNL     1      21.528   0.346  49.619  1.00  0.00    -0.251 F 
ENDBRANCH  17  18
ENDBRANCH  15  16
ENDBRANCH  14  15
ENDBRANCH  12  14
ENDBRANCH  10  11
ENDBRANCH   8  10
ENDBRANCH   7   8
BRANCH   3  20
HETATM   20  C4  UNL     1      23.473   0.532  52.607  1.00  0.00     0.083 C 
BRANCH  20  21
HETATM   21  C5  UNL     1      23.093  -0.257  53.574  1.00  0.00    -0.145 C 
BRANCH  21  22
HETATM   22  C6  UNL     1      22.524  -0.861  54.599  1.00  0.00     0.097 C 
BRANCH  22  23
HETATM   23  C7  UNL     1      21.062  -1.057  54.559  1.00  0.00     0.181 C 
BRANCH  23  24
HETATM   24  O1  UNL     1      20.498   0.209  54.839  1.00  0.00    -0.400 OA
HETATM   25  H8  UNL     1      20.562   0.713  53.973  1.00  0.00     0.209 HD
ENDBRANCH  23  24
ENDBRANCH  22  23
ENDBRANCH  21  22
ENDBRANCH  20  21
ENDBRANCH   3  20
TORSDOF 12
ENDMDL
MODEL 8
REMARK VINA RESULT:      -6.0      1.755      2.228
REMARK  12 active torsions:
REMARK  status: ('A' for Active; 'I' for Inactive)
REMARK    1  A    between atoms: C3_3  and  C4_4 
REMARK    2  A    between atoms: C4_4  and  C5_5 
REMARK    3  A    between atoms: C5_5  and  C6_6 
REMARK    4  A    between atoms: C6_6  and  C7_7 
REMARK    5  A    between atoms: C7_7  and  O1_8 
REMARK    6  A    between atoms: C9_12  and  N3_13 
REMARK    7  A    between atoms: N3_13  and  C10_14 
REMARK    8  A    between atoms: C10_14  and  C11_15 
REMARK    9  A    between atoms: C12_16  and  C13_18 
REMARK   10  A    between atoms: C13_18  and  O2_19 
REMARK   11  A    between atoms: O2_19  and  C14_20 
REMARK   12  A    between atoms: C15_21  and  C16_22 
ROOT
HETATM    1  C1  UNL     1      23.446   3.866  49.548  1.00  0.00     0.055 C 
HETATM    2  C2  UNL     1      24.653   3.300  50.205  1.00  0.00     0.013 A 
HETATM    3  C3  UNL     1      25.947   3.742  50.013  1.00  0.00     0.075 A 
HETATM    4  N1  UNL     1      27.001   3.193  50.635  1.00  0.00    -0.241 NA
HETATM    5  C8  UNL     1      26.796   2.169  51.480  1.00  0.00     0.235 A 
HETATM    6  N2  UNL     1      25.548   1.730  51.676  1.00  0.00    -0.224 NA
HETATM    7  C9  UNL     1      24.461   2.245  51.080  1.00  0.00     0.133 A 
ENDROOT
BRANCH   7   8
HETATM    8  N3  UNL     1      23.178   1.734  51.332  1.00  0.00    -0.371 N 
HETATM    9  H10 UNL     1      22.644   1.271  50.551  1.00  0.00     0.161 HD
BRANCH   8  10
HETATM   10  C10 UNL     1      22.569   1.824  52.631  1.00  0.00     0.150 C 
BRANCH  10  11
HETATM   11  C11 UNL     1      21.907   0.548  52.975  1.00  0.00     0.014 C 
HETATM   12  C12 UNL     1      22.371  -0.459  53.739  1.00  0.00     0.033 C 
HETATM   13 CL1  UNL     1      21.536  -1.963  54.119  1.00  0.00    -0.087 Cl
BRANCH  12  14
HETATM   14  C13 UNL     1      23.683  -0.542  54.437  1.00  0.00     0.225 C 
BRANCH  14  15
HETATM   15  O2  UNL     1      24.722  -0.888  53.521  1.00  0.00    -0.358 OA
BRANCH  15  16
HETATM   16  C14 UNL     1      26.050  -0.684  53.865  1.00  0.00     0.133 C 
HETATM   17  C15 UNL     1      26.688   0.151  54.680  1.00  0.00     0.028 C 
BRANCH  17  18
HETATM   18  C16 UNL     1      28.171   0.089  54.806  1.00  0.00     0.251 C 
HETATM   19  F1  UNL     1      28.776   0.033  53.566  1.00  0.00    -0.251 F 
ENDBRANCH  17  18
ENDBRANCH  15  16
ENDBRANCH  14  15
ENDBRANCH  12  14
ENDBRANCH  10  11
ENDBRANCH   8  10
ENDBRANCH   7   8
BRANCH   3  20
HETATM   20  C4  UNL     1      26.127   4.845  49.096  1.00  0.00     0.083 C 
BRANCH  20  21
HETATM   21  C5  UNL     1      27.342   5.118  48.707  1.00  0.00    -0.145 C 
BRANCH  21  22
HETATM   22  C6  UNL     1      28.557   5.149  48.196  1.00  0.00     0.097 C 
BRANCH  22  23
HETATM   23  C7  UNL     1      29.397   6.327  48.484  1.00  0.00     0.181 C 
BRANCH  23  24
HETATM   24  O1  UNL     1      30.355   5.892  49.429  1.00  0.00    -0.400 OA
HETATM   25  H8  UNL     1      31.223   5.879  48.924  1.00  0.00     0.209 HD
ENDBRANCH  23  24
ENDBRANCH  22  23
ENDBRANCH  21  22
ENDBRANCH  20  21
ENDBRANCH   3  20
TORSDOF 12
ENDMDL
MODEL 9
REMARK VINA RESULT:      -5.9      3.938      6.486
REMARK  12 active torsions:
REMARK  status: ('A' for Active; 'I' for Inactive)
REMARK    1  A    between atoms: C3_3  and  C4_4 
REMARK    2  A    between atoms: C4_4  and  C5_5 
REMARK    3  A    between atoms: C5_5  and  C6_6 
REMARK    4  A    between atoms: C6_6  and  C7_7 
REMARK    5  A    between atoms: C7_7  and  O1_8 
REMARK    6  A    between atoms: C9_12  and  N3_13 
REMARK    7  A    between atoms: N3_13  and  C10_14 
REMARK    8  A    between atoms: C10_14  and  C11_15 
REMARK    9  A    between atoms: C12_16  and  C13_18 
REMARK   10  A    between atoms: C13_18  and  O2_19 
REMARK   11  A    between atoms: O2_19  and  C14_20 
REMARK   12  A    between atoms: C15_21  and  C16_22 
ROOT
HETATM    1  C1  UNL     1      26.651   2.038  51.397  1.00  0.00     0.055 C 
HETATM    2  C2  UNL     1      25.630   1.283  52.169  1.00  0.00     0.013 A 
HETATM    3  C3  UNL     1      25.768  -0.016  52.617  1.00  0.00     0.075 A 
HETATM    4  N1  UNL     1      24.812  -0.649  53.311  1.00  0.00    -0.241 NA
HETATM    5  C8  UNL     1      23.669   0.001  53.586  1.00  0.00     0.235 A 
HETATM    6  N2  UNL     1      23.520   1.260  53.159  1.00  0.00    -0.224 NA
HETATM    7  C9  UNL     1      24.446   1.938  52.461  1.00  0.00     0.133 A 
ENDROOT
BRANCH   7   8
HETATM    8  N3  UNL     1      24.224   3.260  52.044  1.00  0.00    -0.371 N 
HETATM    9  H10 UNL     1      24.919   4.007  52.306  1.00  0.00     0.161 HD
BRANCH   8  10
HETATM   10  C10 UNL     1      23.072   3.625  51.267  1.00  0.00     0.150 C 
BRANCH  10  11
HETATM   11  C11 UNL     1      23.228   3.163  49.872  1.00  0.00     0.014 C 
HETATM   12  C12 UNL     1      22.340   2.514  49.097  1.00  0.00     0.033 C 
HETATM   13 CL1  UNL     1      22.579   1.987  47.434  1.00  0.00    -0.087 Cl
BRANCH  12  14
HETATM   14  C13 UNL     1      20.957   2.093  49.455  1.00  0.00     0.225 C 
BRANCH  14  15
HETATM   15  O2  UNL     1      20.934   0.722  49.853  1.00  0.00    -0.358 OA
BRANCH  15  16
HETATM   16  C14 UNL     1      20.746   0.387  51.186  1.00  0.00     0.133 C 
HETATM   17  C15 UNL     1      19.685   0.145  51.949  1.00  0.00     0.028 C 
BRANCH  17  18
HETATM   18  C16 UNL     1      19.858  -0.197  53.389  1.00  0.00     0.251 C 
HETATM   19  F1  UNL     1      20.438   0.847  54.083  1.00  0.00    -0.251 F 
ENDBRANCH  17  18
ENDBRANCH  15  16
ENDBRANCH  14  15
ENDBRANCH  12  14
ENDBRANCH  10  11
ENDBRANCH   8  10
ENDBRANCH   7   8
BRANCH   3  20
HETATM   20  C4  UNL     1      27.011  -0.683  52.301  1.00  0.00     0.083 C 
BRANCH  20  21
HETATM   21  C5  UNL     1      27.985  -0.590  53.166  1.00  0.00    -0.145 C 
BRANCH  21  22
HETATM   22  C6  UNL     1      28.791  -0.348  54.180  1.00  0.00     0.097 C 
BRANCH  22  23
HETATM   23  C7  UNL     1      29.171   1.054  54.441  1.00  0.00     0.181 C 
BRANCH  23  24
HETATM   24  O1  UNL     1      29.592   1.574  53.196  1.00  0.00    -0.400 OA
HETATM   25  H8  UNL     1      30.591   1.647  53.276  1.00  0.00     0.209 HD
ENDBRANCH  23  24
ENDBRANCH  22  23
ENDBRANCH  21  22
ENDBRANCH  20  21
ENDBRANCH   3  20
TORSDOF 12
ENDMDL
