MODEL 1
REMARK VINA RESULT:      -7.3      0.000      0.000
REMARK  8 active torsions:
REMARK  status: ('A' for Active; 'I' for Inactive)
REMARK    1  A    between atoms: C2_2  and  N1_3 
REMARK    2  A    between atoms: N1_3  and  C3_4 
REMARK    3  A    between atoms: N1_3  and  C4_6 
REMARK    4  A    between atoms: C6_10  and  N4_11 
REMARK    5  A    between atoms: C7_12  and  C8_13 
REMARK    6  A    between atoms: C9_14  and  C10_15 
REMARK    7  A    between atoms: C10_15  and  C11_16 
REMARK    8  A    between atoms: C11_16  and  C12_17 
ROOT
HETATM    1  C4  UNL     1      27.989   0.572  53.130  1.00  0.00     0.143 A 
HETATM    2  N2  UNL     1      29.253   0.849  53.475  1.00  0.00    -0.224 NA
HETATM    3  C5  UNL     1      30.138  -0.133  53.682  1.00  0.00     0.237 A 
HETATM    4  N3  UNL     1      29.733  -1.406  53.537  1.00  0.00    -0.224 NA
HETATM    5  C6  UNL     1      28.440  -1.674  53.185  1.00  0.00     0.136 A 
HETATM    6  C7  UNL     1      27.500  -0.700  52.963  1.00  0.00     0.055 A 
ENDROOT
BRANCH   6   7
HETATM    7  C8  UNL     1      26.148  -1.010  52.624  1.00  0.00     0.015 C 
HETATM    8  C9  UNL     1      24.930  -0.970  53.100  1.00  0.00    -0.026 C 
BRANCH   8   9
HETATM    9  C10 UNL     1      23.942  -0.678  54.125  1.00  0.00     0.028 C 
BRANCH   9  10
HETATM   10  C11 UNL     1      22.555  -1.049  53.644  1.00  0.00     0.016 C 
BRANCH  10  11
HETATM   11  C12 UNL     1      21.720   0.158  53.314  1.00  0.00     0.031 A 
HETATM   12  C13 UNL     1      20.279  -0.075  53.520  1.00  0.00    -0.018 A 
HETATM   13  C14 UNL     1      19.635   0.055  52.355  1.00  0.00    -0.004 A 
HETATM   14  C15 UNL     1      20.605   0.377  51.315  1.00  0.00    -0.004 A 
HETATM   15  C16 UNL     1      21.825   0.448  51.827  1.00  0.00    -0.018 A 
ENDBRANCH  10  11
ENDBRANCH   9  10
ENDBRANCH   8   9
ENDBRANCH   6   7
BRANCH   1  16
HETATM   16  N1  UNL     1      27.089   1.653  52.895  1.00  0.00    -0.340 N 
BRANCH  16  17
HETATM   17  C2  UNL     1      26.278   2.159  54.013  1.00  0.00     0.122 C 
HETATM   18  C1  UNL     1      25.002   2.693  53.373  1.00  0.00     0.026 C 
ENDBRANCH  16  17
BRANCH  16  19
HETATM   19  C3  UNL     1      26.809   2.387  51.674  1.00  0.00     0.349 C 
HETATM   20  F1  UNL     1      26.810   1.509  50.611  1.00  0.00    -0.234 F 
ENDBRANCH  16  19
ENDBRANCH   1  16
BRANCH   5  21
HETATM   21  N4  UNL     1      28.258  -3.065  53.094  1.00  0.00    -0.383 N 
HETATM   22  H9  UNL     1      28.377  -4.010  52.748  1.00  0.00     0.157 HD
HETATM   23  H10 UNL     1      27.578  -3.397  53.820  1.00  0.00     0.157 HD
ENDBRANCH   5  21
TORSDOF 8
ENDMDL
MODEL 2
REMARK VINA RESULT:      -7.2      1.098      1.600
REMARK  8 active torsions:
REMARK  status: ('A' for Active; 'I' for Inactive)
REMARK    1  A    between atoms: C2_2  and  N1_3 
REMARK    2  A    between atoms: N1_3  and  C3_4 
REMARK    3  A    between atoms: N1_3  and  C4_6 
REMARK    4  A    between atoms: C6_10  and  N4_11 
REMARK    5  A    between atoms: C7_12  and  C8_13 
REMARK    6  A    between atoms: C9_14  and  C10_15 
REMARK    7  A    between atoms: C10_15  and  C11_16 
REMARK    8  A    between atoms: C11_16  and  C12_17 
ROOT
HETATM    1  C4  UNL     1      27.946   0.541  53.092  1.00  0.00     0.143 A 
HETATM    2  N2  UNL     1      29.207   0.863  53.405  1.00  0.00    -0.224 NA
HETATM    3  C5  UNL     1      30.127  -0.087  53.608  1.00  0.00     0.237 A 
HETATM    4  N3  UNL     1      29.760  -1.374  53.492  1.00  0.00    -0.224 NA
HETATM    5  C6  UNL     1      28.469  -1.688  53.172  1.00  0.00     0.136 A 
HETATM    6  C7  UNL     1      27.494  -0.748  52.955  1.00  0.00     0.055 A 
ENDROOT
BRANCH   6   7
HETATM    7  C8  UNL     1      26.145  -1.106  52.651  1.00  0.00     0.015 C 
HETATM    8  C9  UNL     1      24.925  -1.019  53.115  1.00  0.00    -0.026 C 
BRANCH   8   9
HETATM    9  C10 UNL     1      23.931  -0.616  54.095  1.00  0.00     0.028 C 
BRANCH   9  10
HETATM   10  C11 UNL     1      22.901   0.295  53.459  1.00  0.00     0.016 C 
BRANCH  10  11
HETATM   11  C12 UNL     1      21.889  -0.463  52.646  1.00  0.00     0.031 A 
HETATM   12  C13 UNL     1      21.534   0.228  51.393  1.00  0.00    -0.018 A 
HETATM   13  C14 UNL     1      20.232   0.533  51.405  1.00  0.00    -0.004 A 
HETATM   14  C15 UNL     1      19.651   0.065  52.658  1.00  0.00    -0.004 A 
HETATM   15  C16 UNL     1      20.576  -0.518  53.406  1.00  0.00    -0.018 A 
ENDBRANCH  10  11
ENDBRANCH   9  10
ENDBRANCH   8   9
ENDBRANCH   6   7
BRANCH   1  16
HETATM   16  N1  UNL     1      27.008   1.589  52.860  1.00  0.00    -0.340 N 
BRANCH  16  17
HETATM   17  C2  UNL     1      26.810   2.074  51.484  1.00  0.00     0.122 C 
HETATM   18  C1  UNL     1      25.311   2.316  51.356  1.00  0.00     0.026 C 
ENDBRANCH  16  17
BRANCH  16  19
HETATM   19  C3  UNL     1      26.162   2.312  53.793  1.00  0.00     0.349 C 
HETATM   20  F1  UNL     1      26.072   1.593  54.967  1.00  0.00    -0.234 F 
ENDBRANCH  16  19
ENDBRANCH   1  16
BRANCH   5  21
HETATM   21  N4  UNL     1      28.330  -3.086  53.107  1.00  0.00    -0.383 N 
HETATM   22  H9  UNL     1      28.605  -4.056  53.012  1.00  0.00     0.157 HD
HETATM   23  H10 UNL     1      27.325  -3.363  53.226  1.00  0.00     0.157 HD
ENDBRANCH   5  21
TORSDOF 8
ENDMDL
MODEL 3
REMARK VINA RESULT:      -6.9      2.611      5.147
REMARK  8 active torsions:
REMARK  status: ('A' for Active; 'I' for Inactive)
REMARK    1  A    between atoms: C2_2  and  N1_3 
REMARK    2  A    between atoms: N1_3  and  C3_4 
REMARK    3  A    between atoms: N1_3  and  C4_6 
REMARK    4  A    between atoms: C6_10  and  N4_11 
REMARK    5  A    between atoms: C7_12  and  C8_13 
REMARK    6  A    between atoms: C9_14  and  C10_15 
REMARK    7  A    between atoms: C10_15  and  C11_16 
REMARK    8  A    between atoms: C11_16  and  C12_17 
ROOT
HETATM    1  C4  UNL     1      26.579  -0.116  53.937  1.00  0.00     0.143 A 
HETATM    2  N2  UNL     1      27.589  -0.993  53.892  1.00  0.00    -0.224 NA
HETATM    3  C5  UNL     1      28.844  -0.584  53.673  1.00  0.00     0.237 A 
HETATM    4  N3  UNL     1      29.071   0.728  53.498  1.00  0.00    -0.224 NA
HETATM    5  C6  UNL     1      28.031   1.613  53.547  1.00  0.00     0.136 A 
HETATM    6  C7  UNL     1      26.731   1.239  53.768  1.00  0.00     0.055 A 
ENDROOT
BRANCH   6   7
HETATM    7  C8  UNL     1      25.658   2.182  53.785  1.00  0.00     0.015 C 
HETATM    8  C9  UNL     1      24.744   2.718  53.017  1.00  0.00    -0.026 C 
BRANCH   8   9
HETATM    9  C10 UNL     1      24.046   2.899  51.756  1.00  0.00     0.028 C 
BRANCH   9  10
HETATM   10  C11 UNL     1      24.446   4.211  51.113  1.00  0.00     0.016 C 
BRANCH  10  11
HETATM   11  C12 UNL     1      24.967   4.027  49.714  1.00  0.00     0.031 A 
HETATM   12  C13 UNL     1      26.303   3.405  49.683  1.00  0.00    -0.018 A 
HETATM   13  C14 UNL     1      27.177   4.250  49.128  1.00  0.00    -0.004 A 
HETATM   14  C15 UNL     1      26.478   5.476  48.761  1.00  0.00    -0.004 A 
HETATM   15  C16 UNL     1      25.195   5.389  49.083  1.00  0.00    -0.018 A 
ENDBRANCH  10  11
ENDBRANCH   9  10
ENDBRANCH   8   9
ENDBRANCH   6   7
BRANCH   1  16
HETATM   16  N1  UNL     1      25.263  -0.597  54.199  1.00  0.00    -0.340 N 
BRANCH  16  17
HETATM   17  C2  UNL     1      24.314  -0.720  53.080  1.00  0.00     0.122 C 
HETATM   18  C1  UNL     1      22.935  -0.546  53.703  1.00  0.00     0.026 C 
ENDBRANCH  16  17
BRANCH  16  19
HETATM   19  C3  UNL     1      24.649  -1.009  55.449  1.00  0.00     0.349 C 
HETATM   20  F1  UNL     1      25.529  -0.767  56.483  1.00  0.00    -0.234 F 
ENDBRANCH  16  19
ENDBRANCH   1  16
BRANCH   5  21
HETATM   21  N4  UNL     1      28.515   2.916  53.339  1.00  0.00    -0.383 N 
HETATM   22  H9  UNL     1      28.609   3.918  53.464  1.00  0.00     0.157 HD
HETATM   23  H10 UNL     1      29.250   2.923  52.590  1.00  0.00     0.157 HD
ENDBRANCH   5  21
TORSDOF 8
ENDMDL
MODEL 4
REMARK VINA RESULT:      -6.9      3.051      5.624
REMARK  8 active torsions:
REMARK  status: ('A' for Active; 'I' for Inactive)
REMARK    1  A    between atoms: C2_2  and  N1_3 
REMARK    2  A    between atoms: N1_3  and  C3_4 
REMARK    3  A    between atoms: N1_3  and  C4_6 
REMARK    4  A    between atoms: C6_10  and  N4_11 
REMARK    5  A    between atoms: C7_12  and  C8_13 
REMARK    6  A    between atoms: C9_14  and  C10_15 
REMARK    7  A    between atoms: C10_15  and  C11_16 
REMARK    8  A    between atoms: C11_16  and  C12_17 
ROOT
HETATM    1  C4  UNL     1      24.835  -0.566  54.175  1.00  0.00     0.143 A 
HETATM    2  N2  UNL     1      24.821  -1.253  55.323  1.00  0.00    -0.224 NA
HETATM    3  C5  UNL     1      23.664  -1.592  55.905  1.00  0.00     0.237 A 
HETATM    4  N3  UNL     1      22.514  -1.228  55.312  1.00  0.00    -0.224 NA
HETATM    5  C6  UNL     1      22.544  -0.526  54.140  1.00  0.00     0.136 A 
HETATM    6  C7  UNL     1      23.705  -0.158  53.509  1.00  0.00     0.055 A 
ENDROOT
BRANCH   6   7
HETATM    7  C8  UNL     1      23.706   0.601  52.299  1.00  0.00     0.015 C 
HETATM    8  C9  UNL     1      24.162   1.711  51.778  1.00  0.00    -0.026 C 
BRANCH   8   9
HETATM    9  C10 UNL     1      24.901   2.961  51.820  1.00  0.00     0.028 C 
BRANCH   9  10
HETATM   10  C11 UNL     1      24.285   3.972  50.876  1.00  0.00     0.016 C 
BRANCH  10  11
HETATM   11  C12 UNL     1      24.921   3.946  49.513  1.00  0.00     0.031 A 
HETATM   12  C13 UNL     1      26.298   3.422  49.539  1.00  0.00    -0.018 A 
HETATM   13  C14 UNL     1      27.145   4.370  49.125  1.00  0.00    -0.004 A 
HETATM   14  C15 UNL     1      26.384   5.572  48.804  1.00  0.00    -0.004 A 
HETATM   15  C16 UNL     1      25.091   5.369  49.013  1.00  0.00    -0.018 A 
ENDBRANCH  10  11
ENDBRANCH   9  10
ENDBRANCH   8   9
ENDBRANCH   6   7
BRANCH   1  16
HETATM   16  N1  UNL     1      26.091  -0.250  53.579  1.00  0.00    -0.340 N 
BRANCH  16  17
HETATM   17  C2  UNL     1      26.880   0.864  54.131  1.00  0.00     0.122 C 
HETATM   18  C1  UNL     1      28.186   0.236  54.601  1.00  0.00     0.026 C 
ENDBRANCH  16  17
BRANCH  16  19
HETATM   19  C3  UNL     1      26.774  -0.864  52.455  1.00  0.00     0.349 C 
HETATM   20  F1  UNL     1      26.913   0.069  51.449  1.00  0.00    -0.234 F 
ENDBRANCH  16  19
ENDBRANCH   1  16
BRANCH   5  21
HETATM   21  N4  UNL     1      21.229  -0.265  53.718  1.00  0.00    -0.383 N 
HETATM   22  H9  UNL     1      20.216  -0.295  53.717  1.00  0.00     0.157 HD
HETATM   23  H10 UNL     1      21.229   0.342  52.862  1.00  0.00     0.157 HD
ENDBRANCH   5  21
TORSDOF 8
ENDMDL
MODEL 5
REMARK VINA RESULT:      -6.8      2.323      3.884
REMARK  8 active torsions:
REMARK  status: ('A' for Active; 'I' for Inactive)
REMARK    1  A    between atoms: C2_2  and  N1_3 
REMARK    2  A    between atoms: N1_3  and  C3_4 
REMARK    3  A    between atoms: N1_3  and  C4_6 
REMARK    4  A    between atoms: C6_10  and  N4_11 
REMARK    5  A    between atoms: C7_12  and  C8_13 
REMARK    6  A    between atoms: C9_14  and  C10_15 
REMARK    7  A    between atoms: C10_15  and  C11_16 
REMARK    8  A    between atoms: C11_16  and  C12_17 
ROOT
HETATM    1  C4  UNL     1      26.464  -0.173  53.979  1.00  0.00     0.143 A 
HETATM    2  N2  UNL     1      27.448  -1.070  53.838  1.00  0.00    -0.224 NA
HETATM    3  C5  UNL     1      28.699  -0.678  53.568  1.00  0.00     0.237 A 
HETATM    4  N3  UNL     1      28.949   0.636  53.441  1.00  0.00    -0.224 NA
HETATM    5  C6  UNL     1      27.934   1.540  53.589  1.00  0.00     0.136 A 
HETATM    6  C7  UNL     1      26.639   1.184  53.865  1.00  0.00     0.055 A 
ENDROOT
BRANCH   6   7
HETATM    7  C8  UNL     1      25.593   2.149  53.984  1.00  0.00     0.015 C 
HETATM    8  C9  UNL     1      24.769   2.871  53.269  1.00  0.00    -0.026 C 
BRANCH   8   9
HETATM    9  C10 UNL     1      24.198   3.338  52.017  1.00  0.00     0.028 C 
BRANCH   9  10
HETATM   10  C11 UNL     1      22.865   2.666  51.760  1.00  0.00     0.016 C 
BRANCH  10  11
HETATM   11  C12 UNL     1      22.923   1.698  50.611  1.00  0.00     0.031 A 
HETATM   12  C13 UNL     1      22.849   2.368  49.300  1.00  0.00    -0.018 A 
HETATM   13  C14 UNL     1      21.754   1.960  48.651  1.00  0.00    -0.004 A 
HETATM   14  C15 UNL     1      21.041   1.002  49.488  1.00  0.00    -0.004 A 
HETATM   15  C16 UNL     1      21.685   0.821  50.632  1.00  0.00    -0.018 A 
ENDBRANCH  10  11
ENDBRANCH   9  10
ENDBRANCH   8   9
ENDBRANCH   6   7
BRANCH   1  16
HETATM   16  N1  UNL     1      25.152  -0.637  54.291  1.00  0.00    -0.340 N 
BRANCH  16  17
HETATM   17  C2  UNL     1      24.134  -0.661  53.229  1.00  0.00     0.122 C 
HETATM   18  C1  UNL     1      22.801  -0.498  53.948  1.00  0.00     0.026 C 
ENDBRANCH  16  17
BRANCH  16  19
HETATM   19  C3  UNL     1      24.604  -1.117  55.548  1.00  0.00     0.349 C 
HETATM   20  F1  UNL     1      25.469  -0.786  56.570  1.00  0.00    -0.234 F 
ENDBRANCH  16  19
ENDBRANCH   1  16
BRANCH   5  21
HETATM   21  N4  UNL     1      28.438   2.841  53.415  1.00  0.00    -0.383 N 
HETATM   22  H9  UNL     1      28.667   3.801  53.645  1.00  0.00     0.157 HD
HETATM   23  H10 UNL     1      28.855   2.951  52.459  1.00  0.00     0.157 HD
ENDBRANCH   5  21
TORSDOF 8
ENDMDL
MODEL 6
REMARK VINA RESULT:      -6.7      2.906      6.639
REMARK  8 active torsions:
REMARK  status: ('A' for Active; 'I' for Inactive)
REMARK    1  A    between atoms: C2_2  and  N1_3 
REMARK    2  A    between atoms: N1_3  and  C3_4 
REMARK    3  A    between atoms: N1_3  and  C4_6 
REMARK    4  A    between atoms: C6_10  and  N4_11 
REMARK    5  A    between atoms: C7_12  and  C8_13 
REMARK    6  A    between atoms: C9_14  and  C10_15 
REMARK    7  A    between atoms: C10_15  and  C11_16 
REMARK    8  A    between atoms: C11_16  and  C12_17 
ROOT
HETATM    1  C4  UNL     1      22.098   2.194  52.413  1.00  0.00     0.143 A 
HETATM    2  N2  UNL     1      21.564   3.419  52.355  1.00  0.00    -0.224 NA
HETATM    3  C5  UNL     1      22.340   4.499  52.205  1.00  0.00     0.237 A 
HETATM    4  N3  UNL     1      23.670   4.328  52.112  1.00  0.00    -0.224 NA
HETATM    5  C6  UNL     1      24.201   3.070  52.172  1.00  0.00     0.136 A 
HETATM    6  C7  UNL     1      23.444   1.937  52.326  1.00  0.00     0.055 A 
ENDROOT
BRANCH   6   7
HETATM    7  C8  UNL     1      24.029   0.637  52.416  1.00  0.00     0.015 C 
HETATM    8  C9  UNL     1      24.772  -0.109  53.193  1.00  0.00    -0.026 C 
BRANCH   8   9
HETATM    9  C10 UNL     1      25.552  -0.367  54.391  1.00  0.00     0.028 C 
BRANCH   9  10
HETATM   10  C11 UNL     1      26.791   0.503  54.412  1.00  0.00     0.016 C 
BRANCH  10  11
HETATM   11  C12 UNL     1      27.734   0.185  53.284  1.00  0.00     0.031 A 
HETATM   12  C13 UNL     1      28.044  -1.253  53.192  1.00  0.00    -0.018 A 
HETATM   13  C14 UNL     1      29.354  -1.441  53.383  1.00  0.00    -0.004 A 
HETATM   14  C15 UNL     1      29.985  -0.147  53.614  1.00  0.00    -0.004 A 
HETATM   15  C16 UNL     1      29.083   0.823  53.564  1.00  0.00    -0.018 A 
ENDBRANCH  10  11
ENDBRANCH   9  10
ENDBRANCH   8   9
ENDBRANCH   6   7
BRANCH   1  16
HETATM   16  N1  UNL     1      21.228   1.072  52.549  1.00  0.00    -0.340 N 
BRANCH  16  17
HETATM   17  C2  UNL     1      20.801   0.662  53.896  1.00  0.00     0.122 C 
HETATM   18  C1  UNL     1      20.884  -0.859  53.898  1.00  0.00     0.026 C 
ENDBRANCH  16  17
BRANCH  16  19
HETATM   19  C3  UNL     1      20.656   0.204  51.535  1.00  0.00     0.349 C 
HETATM   20  F1  UNL     1      20.838   0.780  50.295  1.00  0.00    -0.234 F 
ENDBRANCH  16  19
ENDBRANCH   1  16
BRANCH   5  21
HETATM   21  N4  UNL     1      25.599   3.147  52.051  1.00  0.00    -0.383 N 
HETATM   22  H9  UNL     1      26.520   3.570  52.008  1.00  0.00     0.157 HD
HETATM   23  H10 UNL     1      26.012   2.192  51.919  1.00  0.00     0.157 HD
ENDBRANCH   5  21
TORSDOF 8
ENDMDL
MODEL 7
REMARK VINA RESULT:      -6.7      2.443      5.297
REMARK  8 active torsions:
REMARK  status: ('A' for Active; 'I' for Inactive)
REMARK    1  A    between atoms: C2_2  and  N1_3 
REMARK    2  A    between atoms: N1_3  and  C3_4 
REMARK    3  A    between atoms: N1_3  and  C4_6 
REMARK    4  A    between atoms: C6_10  and  N4_11 
REMARK    5  A    between atoms: C7_12  and  C8_13 
REMARK    6  A    between atoms: C9_14  and  C10_15 
REMARK    7  A    between atoms: C10_15  and  C11_16 
REMARK    8  A    between atoms: C11_16  and  C12_17 
ROOT
HETATM    1  C4  UNL     1      24.941   0.328  53.063  1.00  0.00     0.143 A 
HETATM    2  N2  UNL     1      25.704  -0.752  52.854  1.00  0.00    -0.224 NA
HETATM    3  C5  UNL     1      27.038  -0.673  52.924  1.00  0.00     0.237 A 
HETATM    4  N3  UNL     1      27.598   0.515  53.208  1.00  0.00    -0.224 NA
HETATM    5  C6  UNL     1      26.807   1.609  53.419  1.00  0.00     0.136 A 
HETATM    6  C7  UNL     1      25.438   1.574  53.357  1.00  0.00     0.055 A 
ENDROOT
BRANCH   6   7
HETATM    7  C8  UNL     1      24.636   2.740  53.553  1.00  0.00     0.015 C 
HETATM    8  C9  UNL     1      23.911   3.615  52.904  1.00  0.00    -0.026 C 
BRANCH   8   9
HETATM    9  C10 UNL     1      23.321   4.182  51.704  1.00  0.00     0.028 C 
BRANCH   9  10
HETATM   10  C11 UNL     1      24.297   5.122  51.028  1.00  0.00     0.016 C 
BRANCH  10  11
HETATM   11  C12 UNL     1      24.772   4.598  49.700  1.00  0.00     0.031 A 
HETATM   12  C13 UNL     1      25.570   3.366  49.829  1.00  0.00    -0.018 A 
HETATM   13  C14 UNL     1      26.808   3.585  49.373  1.00  0.00    -0.004 A 
HETATM   14  C15 UNL     1      26.903   4.968  48.919  1.00  0.00    -0.004 A 
HETATM   15  C16 UNL     1      25.746   5.591  49.090  1.00  0.00    -0.018 A 
ENDBRANCH  10  11
ENDBRANCH   9  10
ENDBRANCH   8   9
ENDBRANCH   6   7
BRANCH   1  16
HETATM   16  N1  UNL     1      23.523   0.189  53.004  1.00  0.00    -0.340 N 
BRANCH  16  17
HETATM   17  C2  UNL     1      22.819  -0.410  54.149  1.00  0.00     0.122 C 
HETATM   18  C1  UNL     1      21.432   0.221  54.141  1.00  0.00     0.026 C 
ENDBRANCH  16  17
BRANCH  16  19
HETATM   19  C3  UNL     1      22.591   0.550  51.950  1.00  0.00     0.349 C 
HETATM   20  F1  UNL     1      23.294   1.088  50.893  1.00  0.00    -0.234 F 
ENDBRANCH  16  19
ENDBRANCH   1  16
BRANCH   5  21
HETATM   21  N4  UNL     1      27.616   2.724  53.698  1.00  0.00    -0.383 N 
HETATM   22  H9  UNL     1      28.046   3.464  54.242  1.00  0.00     0.157 HD
HETATM   23  H10 UNL     1      28.124   3.038  52.836  1.00  0.00     0.157 HD
ENDBRANCH   5  21
TORSDOF 8
ENDMDL
MODEL 8
REMARK VINA RESULT:      -6.6      3.358      6.260
REMARK  8 active torsions:
REMARK  status: ('A' for Active; 'I' for Inactive)
REMARK    1  A    between atoms: C2_2  and  N1_3 
REMARK    2  A    between atoms: N1_3  and  C3_4 
REMARK    3  A    between atoms: N1_3  and  C4_6 
REMARK    4  A    between atoms: C6_10  and  N4_11 
REMARK    5  A    between atoms: C7_12  and  C8_13 
REMARK    6  A    between atoms: C9_14  and  C10_15 
REMARK    7  A    between atoms: C10_15  and  C11_16 
REMARK    8  A    between atoms: C11_16  and  C12_17 
ROOT
HETATM    1  C4  UNL     1      24.272   3.858  50.661  1.00  0.00     0.143 A 
HETATM    2  N2  UNL     1      23.498   4.882  50.280  1.00  0.00    -0.224 NA
HETATM    3  C5  UNL     1      23.992   5.871  49.527  1.00  0.00     0.237 A 
HETATM    4  N3  UNL     1      25.283   5.817  49.158  1.00  0.00    -0.224 NA
HETATM    5  C6  UNL     1      26.061   4.765  49.554  1.00  0.00     0.136 A 
HETATM    6  C7  UNL     1      25.597   3.730  50.325  1.00  0.00     0.055 A 
ENDROOT
BRANCH   6   7
HETATM    7  C8  UNL     1      26.441   2.659  50.749  1.00  0.00     0.015 C 
HETATM    8  C9  UNL     1      27.085   2.203  51.793  1.00  0.00    -0.026 C 
BRANCH   8   9
HETATM    9  C10 UNL     1      27.516   2.252  53.180  1.00  0.00     0.028 C 
BRANCH   9  10
HETATM   10  C11 UNL     1      28.537   1.167  53.454  1.00  0.00     0.016 C 
BRANCH  10  11
HETATM   11  C12 UNL     1      27.914  -0.075  54.029  1.00  0.00     0.031 A 
HETATM   12  C13 UNL     1      27.625  -1.092  53.002  1.00  0.00    -0.018 A 
HETATM   13  C14 UNL     1      26.308  -1.320  52.957  1.00  0.00    -0.004 A 
HETATM   14  C15 UNL     1      25.650  -0.472  53.943  1.00  0.00    -0.004 A 
HETATM   15  C16 UNL     1      26.543   0.266  54.588  1.00  0.00    -0.018 A 
ENDBRANCH  10  11
ENDBRANCH   9  10
ENDBRANCH   8   9
ENDBRANCH   6   7
BRANCH   1  16
HETATM   16  N1  UNL     1      23.694   2.814  51.441  1.00  0.00    -0.340 N 
BRANCH  16  17
HETATM   17  C2  UNL     1      22.993   1.717  50.755  1.00  0.00     0.122 C 
HETATM   18  C1  UNL     1      22.541   0.774  51.863  1.00  0.00     0.026 C 
ENDBRANCH  16  17
BRANCH  16  19
HETATM   19  C3  UNL     1      23.666   2.629  52.881  1.00  0.00     0.349 C 
HETATM   20  F1  UNL     1      24.417   3.621  53.477  1.00  0.00    -0.234 F 
ENDBRANCH  16  19
ENDBRANCH   1  16
BRANCH   5  21
HETATM   21  N4  UNL     1      27.362   4.929  49.048  1.00  0.00    -0.383 N 
HETATM   22  H9  UNL     1      28.207   5.408  48.758  1.00  0.00     0.157 HD
HETATM   23  H10 UNL     1      27.775   4.002  48.782  1.00  0.00     0.157 HD
ENDBRANCH   5  21
TORSDOF 8
ENDMDL
MODEL 9
REMARK VINA RESULT:      -6.5      4.172      7.059
REMARK  8 active torsions:
REMARK  status: ('A' for Active; 'I' for Inactive)
REMARK    1  A    between atoms: C2_2  and  N1_3 
REMARK    2  A    between atoms: N1_3  and  C3_4 
REMARK    3  A    between atoms: N1_3  and  C4_6 
REMARK    4  A    between atoms: C6_10  and  N4_11 
REMARK    5  A    between atoms: C7_12  and  C8_13 
REMARK    6  A    between atoms: C9_14  and  C10_15 
REMARK    7  A    between atoms: C10_15  and  C11_16 
REMARK    8  A    between atoms: C11_16  and  C12_17 
ROOT
HETATM    1  C4  UNL     1      24.632   5.152  49.939  1.00  0.00     0.143 A 
HETATM    2  N2  UNL     1      24.322   6.447  49.805  1.00  0.00    -0.224 NA
HETATM    3  C5  UNL     1      25.227   7.327  49.361  1.00  0.00     0.237 A 
HETATM    4  N3  UNL     1      26.457   6.883  49.051  1.00  0.00    -0.224 NA
HETATM    5  C6  UNL     1      26.759   5.558  49.191  1.00  0.00     0.136 A 
HETATM    6  C7  UNL     1      25.864   4.623  49.643  1.00  0.00     0.055 A 
ENDROOT
BRANCH   6   7
HETATM    7  C8  UNL     1      26.216   3.249  49.808  1.00  0.00     0.015 C 
HETATM    8  C9  UNL     1      26.598   2.383  50.712  1.00  0.00    -0.026 C 
BRANCH   8   9
HETATM    9  C10 UNL     1      26.961   1.984  52.061  1.00  0.00     0.028 C 
BRANCH   9  10
HETATM   10  C11 UNL     1      26.789   0.490  52.236  1.00  0.00     0.016 C 
BRANCH  10  11
HETATM   11  C12 UNL     1      27.525  -0.035  53.437  1.00  0.00     0.031 A 
HETATM   12  C13 UNL     1      28.763   0.715  53.718  1.00  0.00    -0.018 A 
HETATM   13  C14 UNL     1      29.815  -0.103  53.613  1.00  0.00    -0.004 A 
HETATM   14  C15 UNL     1      29.341  -1.436  53.258  1.00  0.00    -0.004 A 
HETATM   15  C16 UNL     1      28.020  -1.441  53.147  1.00  0.00    -0.018 A 
ENDBRANCH  10  11
ENDBRANCH   9  10
ENDBRANCH   8   9
ENDBRANCH   6   7
BRANCH   1  16
HETATM   16  N1  UNL     1      23.626   4.248  50.392  1.00  0.00    -0.340 N 
BRANCH  16  17
HETATM   17  C2  UNL     1      22.924   3.413  49.404  1.00  0.00     0.122 C 
HETATM   18  C1  UNL     1      22.723   2.067  50.089  1.00  0.00     0.026 C 
ENDBRANCH  16  17
BRANCH  16  19
HETATM   19  C3  UNL     1      23.135   3.991  51.734  1.00  0.00     0.349 C 
HETATM   20  F1  UNL     1      24.211   3.838  52.584  1.00  0.00    -0.234 F 
ENDBRANCH  16  19
ENDBRANCH   1  16
BRANCH   5  21
HETATM   21  N4  UNL     1      28.093   5.339  48.805  1.00  0.00    -0.383 N 
HETATM   22  H9  UNL     1      29.008   4.903  48.781  1.00  0.00     0.157 HD
HETATM   23  H10 UNL     1      28.391   6.045  48.088  1.00  0.00     0.157 HD
ENDBRANCH   5  21
TORSDOF 8
ENDMDL
