MODEL 1
REMARK VINA RESULT:      -7.1      0.000      0.000
REMARK  5 active torsions:
REMARK  status: ('A' for Active; 'I' for Inactive)
REMARK    1  A    between atoms: S1_2  and  N1_3 
REMARK    2  A    between atoms: S1_2  and  C8_14 
REMARK    3  A    between atoms: N1_3  and  C1_4 
REMARK    4  A    between atoms: C1_4  and  O2_5 
REMARK    5  A    between atoms: C7_11  and  O3_12 
ROOT
HETATM    1  C1  UNL     1      24.416   4.436  50.440  1.00  0.00     0.171 C 
HETATM    2  C2  UNL     1      24.471   3.273  49.451  1.00  0.00     0.087 C 
HETATM    3  C3  UNL     1      23.234   3.332  48.597  1.00  0.00    -0.022 C 
HETATM    4  C4  UNL     1      22.784   4.447  48.035  1.00  0.00    -0.004 C 
HETATM    5  C5  UNL     1      23.344   5.801  48.107  1.00  0.00    -0.000 C 
HETATM    6  C6  UNL     1      24.340   6.280  48.855  1.00  0.00     0.027 C 
HETATM    7  C7  UNL     1      25.190   5.568  49.855  1.00  0.00     0.179 C 
HETATM    8 BR1  UNL     1      26.790   4.969  48.925  1.00  0.00    -0.045 Br
ENDROOT
BRANCH   1   9
HETATM    9  N1  UNL     1      24.973   4.043  51.743  1.00  0.00    -0.201 NA
HETATM   10  H1  UNL     1      24.252   4.165  52.479  1.00  0.00     0.141 HD
BRANCH   9  11
HETATM   11  S1  UNL     1      25.569   2.427  51.583  1.00  0.00     0.128 S 
HETATM   12  O1  UNL     1      27.074   2.339  51.764  1.00  0.00    -0.236 OA
BRANCH  11  13
HETATM   13  C8  UNL     1      24.693   1.231  52.508  1.00  0.00     0.047 A 
HETATM   14  C9  UNL     1      25.248   0.337  53.412  1.00  0.00     0.024 A 
HETATM   15  C10 UNL     1      24.472  -0.566  54.092  1.00  0.00     0.025 A 
HETATM   16  C11 UNL     1      23.104  -0.561  53.845  1.00  0.00     0.034 A 
HETATM   17 CL1  UNL     1      22.095  -1.720  54.714  1.00  0.00    -0.084 Cl
HETATM   18  C12 UNL     1      22.500   0.308  52.954  1.00  0.00     0.025 A 
HETATM   19  C13 UNL     1      23.328   1.200  52.294  1.00  0.00     0.024 A 
ENDBRANCH  11  13
ENDBRANCH   9  11
ENDBRANCH   1   9
BRANCH   1  20
HETATM   20  O2  UNL     1      23.078   4.748  50.630  1.00  0.00    -0.370 OA
HETATM   21  H2  UNL     1      22.680   4.175  51.342  1.00  0.00     0.212 HD
ENDBRANCH   1  20
BRANCH   7  22
HETATM   22  O3  UNL     1      25.600   6.510  50.792  1.00  0.00    -0.371 OA
HETATM   23  H9  UNL     1      24.782   6.852  51.233  1.00  0.00     0.212 HD
ENDBRANCH   7  22
TORSDOF 5
ENDMDL
MODEL 2
REMARK VINA RESULT:      -6.9      9.482     11.330
REMARK  5 active torsions:
REMARK  status: ('A' for Active; 'I' for Inactive)
REMARK    1  A    between atoms: S1_2  and  N1_3 
REMARK    2  A    between atoms: S1_2  and  C8_14 
REMARK    3  A    between atoms: N1_3  and  C1_4 
REMARK    4  A    between atoms: C1_4  and  O2_5 
REMARK    5  A    between atoms: C7_11  and  O3_12 
ROOT
HETATM    1  C1  UNL     1      33.823   4.980  47.372  1.00  0.00     0.171 C 
HETATM    2  C2  UNL     1      32.657   4.975  46.385  1.00  0.00     0.087 C 
HETATM    3  C3  UNL     1      33.192   5.363  45.033  1.00  0.00    -0.022 C 
HETATM    4  C4  UNL     1      34.297   4.848  44.508  1.00  0.00    -0.004 C 
HETATM    5  C5  UNL     1      35.204   3.846  45.077  1.00  0.00    -0.000 C 
HETATM    6  C6  UNL     1      35.235   3.313  46.301  1.00  0.00     0.027 C 
HETATM    7  C7  UNL     1      34.344   3.586  47.467  1.00  0.00     0.179 C 
HETATM    8 BR1  UNL     1      32.923   2.259  47.426  1.00  0.00    -0.045 Br
ENDROOT
BRANCH   1   9
HETATM    9  N1  UNL     1      33.391   5.465  48.691  1.00  0.00    -0.201 NA
HETATM   10  H1  UNL     1      34.060   6.180  49.033  1.00  0.00     0.141 HD
BRANCH   9  11
HETATM   11  S1  UNL     1      31.763   6.026  48.526  1.00  0.00     0.128 S 
HETATM   12  O1  UNL     1      30.821   5.388  49.533  1.00  0.00    -0.236 OA
BRANCH  11  13
HETATM   13  C8  UNL     1      31.595   7.763  48.430  1.00  0.00     0.047 A 
HETATM   14  C9  UNL     1      32.336   8.606  47.615  1.00  0.00     0.024 A 
HETATM   15  C10 UNL     1      32.127   9.961  47.613  1.00  0.00     0.025 A 
HETATM   16  C11 UNL     1      31.147  10.469  48.457  1.00  0.00     0.034 A 
HETATM   17 CL1  UNL     1      30.870  12.212  48.462  1.00  0.00    -0.084 Cl
HETATM   18  C12 UNL     1      30.381   9.672  49.290  1.00  0.00     0.025 A 
HETATM   19  C13 UNL     1      30.632   8.311  49.254  1.00  0.00     0.024 A 
ENDBRANCH  11  13
ENDBRANCH   9  11
ENDBRANCH   1   9
BRANCH   1  20
HETATM   20  O2  UNL     1      34.769   5.868  46.884  1.00  0.00    -0.370 OA
HETATM   21  H2  UNL     1      34.646   6.011  45.904  1.00  0.00     0.212 HD
ENDBRANCH   1  20
BRANCH   7  22
HETATM   22  O3  UNL     1      35.086   3.342  48.618  1.00  0.00    -0.371 OA
HETATM   23  H9  UNL     1      34.850   4.051  49.268  1.00  0.00     0.212 HD
ENDBRANCH   7  22
TORSDOF 5
ENDMDL
MODEL 3
REMARK VINA RESULT:      -6.8      1.785      1.833
REMARK  5 active torsions:
REMARK  status: ('A' for Active; 'I' for Inactive)
REMARK    1  A    between atoms: S1_2  and  N1_3 
REMARK    2  A    between atoms: S1_2  and  C8_14 
REMARK    3  A    between atoms: N1_3  and  C1_4 
REMARK    4  A    between atoms: C1_4  and  O2_5 
REMARK    5  A    between atoms: C7_11  and  O3_12 
ROOT
HETATM    1  C1  UNL     1      23.264   5.149  51.575  1.00  0.00     0.171 C 
HETATM    2  C2  UNL     1      22.824   4.329  50.365  1.00  0.00     0.087 C 
HETATM    3  C3  UNL     1      21.360   4.588  50.137  1.00  0.00    -0.022 C 
HETATM    4  C4  UNL     1      20.821   5.800  50.145  1.00  0.00    -0.004 C 
HETATM    5  C5  UNL     1      21.475   7.095  50.363  1.00  0.00    -0.000 C 
HETATM    6  C6  UNL     1      22.723   7.372  50.747  1.00  0.00     0.027 C 
HETATM    7  C7  UNL     1      23.836   6.432  51.073  1.00  0.00     0.179 C 
HETATM    8 BR1  UNL     1      24.879   6.192  49.449  1.00  0.00    -0.045 Br
ENDROOT
BRANCH   1   9
HETATM    9  N1  UNL     1      24.257   4.415  52.374  1.00  0.00    -0.201 NA
HETATM   10  H1  UNL     1      23.936   4.359  53.359  1.00  0.00     0.141 HD
BRANCH   9  11
HETATM   11  S1  UNL     1      24.502   2.883  51.609  1.00  0.00     0.128 S 
HETATM   12  O1  UNL     1      25.940   2.676  51.163  1.00  0.00    -0.236 OA
BRANCH  11  13
HETATM   13  C8  UNL     1      23.849   1.518  52.484  1.00  0.00     0.047 A 
HETATM   14  C9  UNL     1      24.586   0.490  53.053  1.00  0.00     0.024 A 
HETATM   15  C10 UNL     1      23.977  -0.539  53.722  1.00  0.00     0.025 A 
HETATM   16  C11 UNL     1      22.590  -0.525  53.812  1.00  0.00     0.034 A 
HETATM   17 CL1  UNL     1      21.795  -1.846  54.671  1.00  0.00    -0.084 Cl
HETATM   18  C12 UNL     1      21.808   0.475  53.262  1.00  0.00     0.025 A 
HETATM   19  C13 UNL     1      22.472   1.492  52.597  1.00  0.00     0.024 A 
ENDBRANCH  11  13
ENDBRANCH   9  11
ENDBRANCH   1   9
BRANCH   1  20
HETATM   20  O2  UNL     1      22.144   5.342  52.369  1.00  0.00    -0.370 OA
HETATM   21  H2  UNL     1      22.277   6.115  52.985  1.00  0.00     0.212 HD
ENDBRANCH   1  20
BRANCH   7  22
HETATM   22  O3  UNL     1      24.663   7.075  51.988  1.00  0.00    -0.371 OA
HETATM   23  H9  UNL     1      25.299   7.625  51.464  1.00  0.00     0.212 HD
ENDBRANCH   7  22
TORSDOF 5
ENDMDL
MODEL 4
REMARK VINA RESULT:      -6.6      4.020      6.761
REMARK  5 active torsions:
REMARK  status: ('A' for Active; 'I' for Inactive)
REMARK    1  A    between atoms: S1_2  and  N1_3 
REMARK    2  A    between atoms: S1_2  and  C8_14 
REMARK    3  A    between atoms: N1_3  and  C1_4 
REMARK    4  A    between atoms: C1_4  and  O2_5 
REMARK    5  A    between atoms: C7_11  and  O3_12 
ROOT
HETATM    1  C1  UNL     1      24.745   3.179  51.727  1.00  0.00     0.171 C 
HETATM    2  C2  UNL     1      25.526   2.278  50.773  1.00  0.00     0.087 C 
HETATM    3  C3  UNL     1      26.311   1.298  51.600  1.00  0.00    -0.022 C 
HETATM    4  C4  UNL     1      25.796   0.622  52.620  1.00  0.00    -0.004 C 
HETATM    5  C5  UNL     1      24.430   0.664  53.154  1.00  0.00    -0.000 C 
HETATM    6  C6  UNL     1      23.417   1.480  52.855  1.00  0.00     0.027 C 
HETATM    7  C7  UNL     1      23.376   2.607  51.876  1.00  0.00     0.179 C 
HETATM    8 BR1  UNL     1      22.688   1.890  50.204  1.00  0.00    -0.045 Br
ENDROOT
BRANCH   1   9
HETATM    9  N1  UNL     1      24.680   4.556  51.214  1.00  0.00    -0.201 NA
HETATM   10  H1  UNL     1      25.336   5.156  51.749  1.00  0.00     0.141 HD
BRANCH   9  11
HETATM   11  S1  UNL     1      24.991   4.487  49.514  1.00  0.00     0.128 S 
HETATM   12  O1  UNL     1      23.771   4.841  48.682  1.00  0.00    -0.236 OA
BRANCH  11  13
HETATM   13  C8  UNL     1      26.439   5.323  49.003  1.00  0.00     0.047 A 
HETATM   14  C9  UNL     1      27.647   4.726  48.674  1.00  0.00     0.024 A 
HETATM   15  C10 UNL     1      28.729   5.472  48.283  1.00  0.00     0.025 A 
HETATM   16  C11 UNL     1      28.579   6.853  48.226  1.00  0.00     0.034 A 
HETATM   17 CL1  UNL     1      29.964   7.824  47.723  1.00  0.00    -0.084 Cl
HETATM   18  C12 UNL     1      27.396   7.498  48.543  1.00  0.00     0.025 A 
HETATM   19  C13 UNL     1      26.335   6.699  48.933  1.00  0.00     0.024 A 
ENDBRANCH  11  13
ENDBRANCH   9  11
ENDBRANCH   1   9
BRANCH   1  20
HETATM   20  O2  UNL     1      25.441   3.208  52.926  1.00  0.00    -0.370 OA
HETATM   21  H2  UNL     1      26.164   3.895  52.896  1.00  0.00     0.212 HD
ENDBRANCH   1  20
BRANCH   7  22
HETATM   22  O3  UNL     1      22.433   3.519  52.338  1.00  0.00    -0.371 OA
HETATM   23  H9  UNL     1      21.541   3.153  52.108  1.00  0.00     0.212 HD
ENDBRANCH   7  22
TORSDOF 5
ENDMDL
MODEL 5
REMARK VINA RESULT:      -6.6      3.429      4.325
REMARK  5 active torsions:
REMARK  status: ('A' for Active; 'I' for Inactive)
REMARK    1  A    between atoms: S1_2  and  N1_3 
REMARK    2  A    between atoms: S1_2  and  C8_14 
REMARK    3  A    between atoms: N1_3  and  C1_4 
REMARK    4  A    between atoms: C1_4  and  O2_5 
REMARK    5  A    between atoms: C7_11  and  O3_12 
ROOT
HETATM    1  C1  UNL     1      23.135   2.028  51.693  1.00  0.00     0.171 C 
HETATM    2  C2  UNL     1      22.120   1.406  50.736  1.00  0.00     0.087 C 
HETATM    3  C3  UNL     1      20.770   1.453  51.397  1.00  0.00    -0.022 C 
HETATM    4  C4  UNL     1      20.290   2.530  52.006  1.00  0.00    -0.004 C 
HETATM    5  C5  UNL     1      20.917   3.846  52.173  1.00  0.00    -0.000 C 
HETATM    6  C6  UNL     1      22.159   4.247  51.893  1.00  0.00     0.027 C 
HETATM    7  C7  UNL     1      23.292   3.463  51.320  1.00  0.00     0.179 C 
HETATM    8 BR1  UNL     1      23.263   3.735  49.395  1.00  0.00    -0.045 Br
ENDROOT
BRANCH   1   9
HETATM    9  N1  UNL     1      24.425   1.326  51.618  1.00  0.00    -0.201 NA
HETATM   10  H1  UNL     1      25.175   2.005  51.385  1.00  0.00     0.141 HD
BRANCH   9  11
HETATM   11  S1  UNL     1      24.648   0.494  53.117  1.00  0.00     0.128 S 
HETATM   12  O1  UNL     1      23.670  -0.653  53.300  1.00  0.00    -0.236 OA
BRANCH  11  13
HETATM   13  C8  UNL     1      26.303   0.051  53.467  1.00  0.00     0.047 A 
HETATM   14  C9  UNL     1      27.110   0.628  54.437  1.00  0.00     0.024 A 
HETATM   15  C10 UNL     1      28.399   0.206  54.635  1.00  0.00     0.025 A 
HETATM   16  C11 UNL     1      28.878  -0.820  53.829  1.00  0.00     0.034 A 
HETATM   17 CL1  UNL     1      30.537  -1.370  54.075  1.00  0.00    -0.084 Cl
HETATM   18  C12 UNL     1      28.115  -1.429  52.848  1.00  0.00     0.025 A 
HETATM   19  C13 UNL     1      26.820  -0.967  52.689  1.00  0.00     0.024 A 
ENDBRANCH  11  13
ENDBRANCH   9  11
ENDBRANCH   1   9
BRANCH   1  20
HETATM   20  O2  UNL     1      22.640   1.864  52.977  1.00  0.00    -0.370 OA
HETATM   21  H2  UNL     1      23.371   1.612  53.607  1.00  0.00     0.212 HD
ENDBRANCH   1  20
BRANCH   7  22
HETATM   22  O3  UNL     1      24.469   4.038  51.787  1.00  0.00    -0.371 OA
HETATM   23  H9  UNL     1      24.653   3.637  52.674  1.00  0.00     0.212 HD
ENDBRANCH   7  22
TORSDOF 5
ENDMDL
MODEL 6
REMARK VINA RESULT:      -6.5      4.691      7.038
REMARK  5 active torsions:
REMARK  status: ('A' for Active; 'I' for Inactive)
REMARK    1  A    between atoms: S1_2  and  N1_3 
REMARK    2  A    between atoms: S1_2  and  C8_14 
REMARK    3  A    between atoms: N1_3  and  C1_4 
REMARK    4  A    between atoms: C1_4  and  O2_5 
REMARK    5  A    between atoms: C7_11  and  O3_12 
ROOT
HETATM    1  C1  UNL     1      24.801   5.191  50.630  1.00  0.00     0.171 C 
HETATM    2  C2  UNL     1      24.124   4.769  49.328  1.00  0.00     0.087 C 
HETATM    3  C3  UNL     1      24.020   3.269  49.324  1.00  0.00    -0.022 C 
HETATM    4  C4  UNL     1      23.595   2.561  50.363  1.00  0.00    -0.004 C 
HETATM    5  C5  UNL     1      23.153   3.037  51.679  1.00  0.00    -0.000 C 
HETATM    6  C6  UNL     1      23.203   4.260  52.210  1.00  0.00     0.027 C 
HETATM    7  C7  UNL     1      23.731   5.523  51.613  1.00  0.00     0.179 C 
HETATM    8 BR1  UNL     1      22.228   6.442  50.790  1.00  0.00    -0.045 Br
ENDROOT
BRANCH   1   9
HETATM    9  N1  UNL     1      25.684   6.347  50.412  1.00  0.00    -0.201 NA
HETATM   10  H1  UNL     1      26.582   6.197  50.910  1.00  0.00     0.141 HD
BRANCH   9  11
HETATM   11  S1  UNL     1      25.837   6.563  48.702  1.00  0.00     0.128 S 
HETATM   12  O1  UNL     1      24.981   7.702  48.178  1.00  0.00    -0.236 OA
BRANCH  11  13
HETATM   13  C8  UNL     1      27.484   6.614  48.118  1.00  0.00     0.047 A 
HETATM   14  C9  UNL     1      28.041   7.624  47.348  1.00  0.00     0.024 A 
HETATM   15  C10 UNL     1      29.349   7.571  46.939  1.00  0.00     0.025 A 
HETATM   16  C11 UNL     1      30.104   6.469  47.320  1.00  0.00     0.034 A 
HETATM   17 CL1  UNL     1      31.789   6.390  46.799  1.00  0.00    -0.084 Cl
HETATM   18  C12 UNL     1      29.597   5.435  48.087  1.00  0.00     0.025 A 
HETATM   19  C13 UNL     1      28.272   5.536  48.474  1.00  0.00     0.024 A 
ENDBRANCH  11  13
ENDBRANCH   9  11
ENDBRANCH   1   9
BRANCH   1  20
HETATM   20  O2  UNL     1      25.591   4.129  51.043  1.00  0.00    -0.370 OA
HETATM   21  H2  UNL     1      25.029   3.400  51.426  1.00  0.00     0.212 HD
ENDBRANCH   1  20
BRANCH   7  22
HETATM   22  O3  UNL     1      24.163   6.325  52.664  1.00  0.00    -0.371 OA
HETATM   23  H9  UNL     1      25.142   6.196  52.740  1.00  0.00     0.212 HD
ENDBRANCH   7  22
TORSDOF 5
ENDMDL
MODEL 7
REMARK VINA RESULT:      -6.5      7.369      8.477
REMARK  5 active torsions:
REMARK  status: ('A' for Active; 'I' for Inactive)
REMARK    1  A    between atoms: S1_2  and  N1_3 
REMARK    2  A    between atoms: S1_2  and  C8_14 
REMARK    3  A    between atoms: N1_3  and  C1_4 
REMARK    4  A    between atoms: C1_4  and  O2_5 
REMARK    5  A    between atoms: C7_11  and  O3_12 
ROOT
HETATM    1  C1  UNL     1      28.382   8.421  49.095  1.00  0.00     0.171 C 
HETATM    2  C2  UNL     1      28.372   8.672  47.589  1.00  0.00     0.087 C 
HETATM    3  C3  UNL     1      27.308   7.799  46.980  1.00  0.00    -0.022 C 
HETATM    4  C4  UNL     1      26.083   7.684  47.478  1.00  0.00    -0.004 C 
HETATM    5  C5  UNL     1      25.508   8.333  48.661  1.00  0.00    -0.000 C 
HETATM    6  C6  UNL     1      26.094   9.073  49.604  1.00  0.00     0.027 C 
HETATM    7  C7  UNL     1      27.529   9.464  49.735  1.00  0.00     0.179 C 
HETATM    8 BR1  UNL     1      27.730  11.204  48.893  1.00  0.00    -0.045 Br
ENDROOT
BRANCH   1   9
HETATM    9  N1  UNL     1      29.752   8.472  49.627  1.00  0.00    -0.201 NA
HETATM   10  H1  UNL     1      29.875   7.726  50.338  1.00  0.00     0.141 HD
BRANCH   9  11
HETATM   11  S1  UNL     1      30.832   8.364  48.280  1.00  0.00     0.128 S 
HETATM   12  O1  UNL     1      31.746   9.572  48.166  1.00  0.00    -0.236 OA
BRANCH  11  13
HETATM   13  C8  UNL     1      31.681   6.842  48.145  1.00  0.00     0.047 A 
HETATM   14  C9  UNL     1      33.001   6.614  48.508  1.00  0.00     0.024 A 
HETATM   15  C10 UNL     1      33.577   5.378  48.363  1.00  0.00     0.025 A 
HETATM   16  C11 UNL     1      32.797   4.355  47.836  1.00  0.00     0.034 A 
HETATM   17 CL1  UNL     1      33.529   2.761  47.645  1.00  0.00    -0.084 Cl
HETATM   18  C12 UNL     1      31.477   4.530  47.458  1.00  0.00     0.025 A 
HETATM   19  C13 UNL     1      30.943   5.796  47.625  1.00  0.00     0.024 A 
ENDBRANCH  11  13
ENDBRANCH   9  11
ENDBRANCH   1   9
BRANCH   1  20
HETATM   20  O2  UNL     1      27.897   7.138  49.300  1.00  0.00    -0.370 OA
HETATM   21  H2  UNL     1      27.208   7.134  50.022  1.00  0.00     0.212 HD
ENDBRANCH   1  20
BRANCH   7  22
HETATM   22  O3  UNL     1      27.785   9.643  51.091  1.00  0.00    -0.371 OA
HETATM   23  H9  UNL     1      27.492   8.815  51.550  1.00  0.00     0.212 HD
ENDBRANCH   7  22
TORSDOF 5
ENDMDL
MODEL 8
REMARK VINA RESULT:      -6.5      4.298      5.579
REMARK  5 active torsions:
REMARK  status: ('A' for Active; 'I' for Inactive)
REMARK    1  A    between atoms: S1_2  and  N1_3 
REMARK    2  A    between atoms: S1_2  and  C8_14 
REMARK    3  A    between atoms: N1_3  and  C1_4 
REMARK    4  A    between atoms: C1_4  and  O2_5 
REMARK    5  A    between atoms: C7_11  and  O3_12 
ROOT
HETATM    1  C1  UNL     1      22.689   0.914  52.343  1.00  0.00     0.171 C 
HETATM    2  C2  UNL     1      22.516  -0.596  52.195  1.00  0.00     0.087 C 
HETATM    3  C3  UNL     1      22.402  -1.187  53.574  1.00  0.00    -0.022 C 
HETATM    4  C4  UNL     1      21.624  -0.683  54.524  1.00  0.00    -0.004 C 
HETATM    5  C5  UNL     1      20.747   0.491  54.466  1.00  0.00    -0.000 C 
HETATM    6  C6  UNL     1      20.619   1.421  53.516  1.00  0.00     0.027 C 
HETATM    7  C7  UNL     1      21.341   1.540  52.215  1.00  0.00     0.179 C 
HETATM    8 BR1  UNL     1      20.244   0.670  50.867  1.00  0.00    -0.045 Br
ENDROOT
BRANCH   1   9
HETATM    9  N1  UNL     1      23.605   1.440  51.320  1.00  0.00    -0.201 NA
HETATM   10  H1  UNL     1      23.062   1.946  50.595  1.00  0.00     0.141 HD
BRANCH   9  11
HETATM   11  S1  UNL     1      24.789   2.404  52.134  1.00  0.00     0.128 S 
HETATM   12  O1  UNL     1      24.188   3.255  53.239  1.00  0.00    -0.236 OA
BRANCH  11  13
HETATM   13  C8  UNL     1      26.220   1.533  52.635  1.00  0.00     0.047 A 
HETATM   14  C9  UNL     1      27.306   2.076  53.305  1.00  0.00     0.024 A 
HETATM   15  C10 UNL     1      28.385   1.306  53.656  1.00  0.00     0.025 A 
HETATM   16  C11 UNL     1      28.359  -0.042  53.317  1.00  0.00     0.034 A 
HETATM   17 CL1  UNL     1      29.742  -1.043  53.763  1.00  0.00    -0.084 Cl
HETATM   18  C12 UNL     1      27.300  -0.632  52.649  1.00  0.00     0.025 A 
HETATM   19  C13 UNL     1      26.236   0.189  52.317  1.00  0.00     0.024 A 
ENDBRANCH  11  13
ENDBRANCH   9  11
ENDBRANCH   1   9
BRANCH   1  20
HETATM   20  O2  UNL     1      23.265   1.142  53.583  1.00  0.00    -0.370 OA
HETATM   21  H2  UNL     1      22.564   1.225  54.287  1.00  0.00     0.212 HD
ENDBRANCH   1  20
BRANCH   7  22
HETATM   22  O3  UNL     1      21.379   2.892  51.889  1.00  0.00    -0.371 OA
HETATM   23  H9  UNL     1      21.612   2.949  50.928  1.00  0.00     0.212 HD
ENDBRANCH   7  22
TORSDOF 5
ENDMDL
MODEL 9
REMARK VINA RESULT:      -6.5      8.251     10.073
REMARK  5 active torsions:
REMARK  status: ('A' for Active; 'I' for Inactive)
REMARK    1  A    between atoms: S1_2  and  N1_3 
REMARK    2  A    between atoms: S1_2  and  C8_14 
REMARK    3  A    between atoms: N1_3  and  C1_4 
REMARK    4  A    between atoms: C1_4  and  O2_5 
REMARK    5  A    between atoms: C7_11  and  O3_12 
ROOT
HETATM    1  C1  UNL     1      33.623   4.802  47.437  1.00  0.00     0.171 C 
HETATM    2  C2  UNL     1      32.490   4.747  46.415  1.00  0.00     0.087 C 
HETATM    3  C3  UNL     1      33.028   5.236  45.098  1.00  0.00    -0.022 C 
HETATM    4  C4  UNL     1      34.186   4.836  44.587  1.00  0.00    -0.004 C 
HETATM    5  C5  UNL     1      35.156   3.886  45.142  1.00  0.00    -0.000 C 
HETATM    6  C6  UNL     1      35.196   3.304  46.343  1.00  0.00     0.027 C 
HETATM    7  C7  UNL     1      34.253   3.452  47.490  1.00  0.00     0.179 C 
HETATM    8 BR1  UNL     1      32.947   2.018  47.349  1.00  0.00    -0.045 Br
ENDROOT
BRANCH   1   9
HETATM    9  N1  UNL     1      33.116   5.192  48.762  1.00  0.00    -0.201 NA
HETATM   10  H1  UNL     1      33.895   5.179  49.448  1.00  0.00     0.141 HD
BRANCH   9  11
HETATM   11  S1  UNL     1      32.339   6.727  48.585  1.00  0.00     0.128 S 
HETATM   12  O1  UNL     1      32.978   7.585  47.507  1.00  0.00    -0.236 OA
BRANCH  11  13
HETATM   13  C8  UNL     1      30.596   6.653  48.463  1.00  0.00     0.047 A 
HETATM   14  C9  UNL     1      29.836   5.495  48.386  1.00  0.00     0.024 A 
HETATM   15  C10 UNL     1      28.469   5.543  48.293  1.00  0.00     0.025 A 
HETATM   16  C11 UNL     1      27.863   6.794  48.276  1.00  0.00     0.034 A 
HETATM   17 CL1  UNL     1      26.104   6.868  48.156  1.00  0.00    -0.084 Cl
HETATM   18  C12 UNL     1      28.575   7.978  48.349  1.00  0.00     0.025 A 
HETATM   19  C13 UNL     1      29.952   7.875  48.442  1.00  0.00     0.024 A 
ENDBRANCH  11  13
ENDBRANCH   9  11
ENDBRANCH   1   9
BRANCH   1  20
HETATM   20  O2  UNL     1      34.506   5.785  47.017  1.00  0.00    -0.370 OA
HETATM   21  H2  UNL     1      35.439   5.560  47.290  1.00  0.00     0.212 HD
ENDBRANCH   1  20
BRANCH   7  22
HETATM   22  O3  UNL     1      34.981   3.218  48.653  1.00  0.00    -0.371 OA
HETATM   23  H9  UNL     1      35.619   3.969  48.749  1.00  0.00     0.212 HD
ENDBRANCH   7  22
TORSDOF 5
ENDMDL
