MODEL 1
REMARK VINA RESULT:      -7.5      0.000      0.000
REMARK  7 active torsions:
REMARK  status: ('A' for Active; 'I' for Inactive)
REMARK    1  A    between atoms: C2_2  and  C3_3 
REMARK    2  A    between atoms: C4_4  and  C5_5 
REMARK    3  A    between atoms: C6_6  and  C7_7 
REMARK    4  A    between atoms: C7_7  and  N1_8 
REMARK    5  A    between atoms: N1_8  and  C8_9 
REMARK    6  A    between atoms: C14_18  and  N4_19 
REMARK       I    between atoms: N4_19  and  C15_20 
REMARK    7  A    between atoms: C15_20  and  C16_22 
ROOT
HETATM    1  C8  UNL     1      26.693  -0.051  54.754  1.00  0.00     0.137 A 
HETATM    2  N2  UNL     1      27.981  -0.121  55.088  1.00  0.00    -0.224 NA
HETATM    3  C9  UNL     1      28.961   0.497  54.431  1.00  0.00     0.235 A 
HETATM    4  N3  UNL     1      28.566   1.214  53.385  1.00  0.00    -0.241 NA
HETATM    5  C10 UNL     1      27.321   1.354  52.964  1.00  0.00     0.075 A 
HETATM    6  C11 UNL     1      26.977   2.109  51.846  1.00  0.00     0.071 A 
HETATM    7  C12 UNL     1      25.676   2.232  51.407  1.00  0.00     0.097 A 
HETATM    8  O1  UNL     1      25.446   2.925  50.392  1.00  0.00    -0.354 OA
HETATM    9  C13 UNL     1      25.321   3.675  49.324  1.00  0.00     0.210 C 
HETATM   10  C14 UNL     1      24.657   1.577  52.106  1.00  0.00     0.069 A 
HETATM   11  C18 UNL     1      25.025   0.836  53.211  1.00  0.00     0.050 A 
HETATM   12  C19 UNL     1      26.319   0.708  53.653  1.00  0.00     0.041 A 
ENDROOT
BRANCH  10  13
HETATM   13  N4  UNL     1      23.341   1.738  51.613  1.00  0.00    -0.325 N 
HETATM   14  C15 UNL     1      22.454   2.809  51.774  1.00  0.00     0.221 C 
HETATM   15  O2  UNL     1      22.792   3.800  52.431  1.00  0.00    -0.273 OA
HETATM   16  H18 UNL     1      22.916   0.970  51.035  1.00  0.00     0.169 HD
BRANCH  14  17
HETATM   17  C16 UNL     1      21.086   2.837  51.188  1.00  0.00     0.098 C 
HETATM   18  C17 UNL     1      20.100   3.535  52.062  1.00  0.00     0.014 C 
ENDBRANCH  14  17
ENDBRANCH  10  13
BRANCH   1  19
HETATM   19  N1  UNL     1      25.586  -0.667  55.423  1.00  0.00    -0.371 N 
HETATM   20  H12 UNL     1      25.410   0.086  56.157  1.00  0.00     0.161 HD
BRANCH  19  21
HETATM   21  C7  UNL     1      24.495  -1.272  56.080  1.00  0.00     0.148 C 
BRANCH  21  22
HETATM   22  C6  UNL     1      23.332  -1.667  55.251  1.00  0.00    -0.007 C 
HETATM   23  C5  UNL     1      22.292  -1.097  54.707  1.00  0.00    -0.003 C 
BRANCH  23  24
HETATM   24  C4  UNL     1      21.457   0.008  54.412  1.00  0.00    -0.004 C 
HETATM   25  C3  UNL     1      20.338   0.406  53.879  1.00  0.00    -0.027 C 
BRANCH  25  26
HETATM   26  C2  UNL     1      19.422  -0.599  53.276  1.00  0.00     0.022 C 
HETATM   27  C1  UNL     1      18.820  -0.076  52.009  1.00  0.00     0.009 C 
ENDBRANCH  25  26
ENDBRANCH  23  24
ENDBRANCH  21  22
ENDBRANCH  19  21
ENDBRANCH   1  19
TORSDOF 7
ENDMDL
MODEL 2
REMARK VINA RESULT:      -7.3      1.599      2.180
REMARK  7 active torsions:
REMARK  status: ('A' for Active; 'I' for Inactive)
REMARK    1  A    between atoms: C2_2  and  C3_3 
REMARK    2  A    between atoms: C4_4  and  C5_5 
REMARK    3  A    between atoms: C6_6  and  C7_7 
REMARK    4  A    between atoms: C7_7  and  N1_8 
REMARK    5  A    between atoms: N1_8  and  C8_9 
REMARK    6  A    between atoms: C14_18  and  N4_19 
REMARK       I    between atoms: N4_19  and  C15_20 
REMARK    7  A    between atoms: C15_20  and  C16_22 
ROOT
HETATM    1  C8  UNL     1      25.161  -0.467  53.392  1.00  0.00     0.137 A 
HETATM    2  N2  UNL     1      26.273  -1.121  53.722  1.00  0.00    -0.224 NA
HETATM    3  C9  UNL     1      27.499  -0.743  53.364  1.00  0.00     0.235 A 
HETATM    4  N3  UNL     1      27.552   0.364  52.633  1.00  0.00    -0.241 NA
HETATM    5  C10 UNL     1      26.516   1.090  52.247  1.00  0.00     0.075 A 
HETATM    6  C11 UNL     1      26.641   2.234  51.463  1.00  0.00     0.071 A 
HETATM    7  C12 UNL     1      25.550   2.972  51.053  1.00  0.00     0.097 A 
HETATM    8  O1  UNL     1      25.741   3.987  50.347  1.00  0.00    -0.354 OA
HETATM    9  C13 UNL     1      26.059   5.027  49.616  1.00  0.00     0.210 C 
HETATM   10  C14 UNL     1      24.269   2.564  51.435  1.00  0.00     0.069 A 
HETATM   11  C18 UNL     1      24.174   1.428  52.213  1.00  0.00     0.050 A 
HETATM   12  C19 UNL     1      25.255   0.687  52.624  1.00  0.00     0.041 A 
ENDROOT
BRANCH  10  13
HETATM   13  N4  UNL     1      23.188   3.359  50.989  1.00  0.00    -0.325 N 
HETATM   14  C15 UNL     1      22.544   4.427  51.623  1.00  0.00     0.221 C 
HETATM   15  O2  UNL     1      22.913   4.794  52.745  1.00  0.00    -0.273 OA
HETATM   16  H18 UNL     1      22.765   3.160  50.046  1.00  0.00     0.169 HD
BRANCH  14  17
HETATM   17  C16 UNL     1      21.407   5.177  51.021  1.00  0.00     0.098 C 
HETATM   18  C17 UNL     1      21.200   4.850  49.583  1.00  0.00     0.014 C 
ENDBRANCH  14  17
ENDBRANCH  10  13
BRANCH   1  19
HETATM   19  N1  UNL     1      23.816  -0.798  53.756  1.00  0.00    -0.371 N 
HETATM   20  H12 UNL     1      23.919  -1.859  53.781  1.00  0.00     0.161 HD
BRANCH  19  21
HETATM   21  C7  UNL     1      22.492  -1.124  54.116  1.00  0.00     0.148 C 
BRANCH  21  22
HETATM   22  C6  UNL     1      21.573  -0.003  54.426  1.00  0.00    -0.007 C 
HETATM   23  C5  UNL     1      20.824   0.844  53.776  1.00  0.00    -0.003 C 
BRANCH  23  24
HETATM   24  C4  UNL     1      20.276   1.416  52.602  1.00  0.00    -0.004 C 
HETATM   25  C3  UNL     1      20.261   1.408  51.300  1.00  0.00    -0.027 C 
BRANCH  25  26
HETATM   26  C2  UNL     1      21.131   0.449  50.569  1.00  0.00     0.022 C 
HETATM   27  C1  UNL     1      21.359   0.903  49.162  1.00  0.00     0.009 C 
ENDBRANCH  25  26
ENDBRANCH  23  24
ENDBRANCH  21  22
ENDBRANCH  19  21
ENDBRANCH   1  19
TORSDOF 7
ENDMDL
MODEL 3
REMARK VINA RESULT:      -7.3      1.930      5.510
REMARK  7 active torsions:
REMARK  status: ('A' for Active; 'I' for Inactive)
REMARK    1  A    between atoms: C2_2  and  C3_3 
REMARK    2  A    between atoms: C4_4  and  C5_5 
REMARK    3  A    between atoms: C6_6  and  C7_7 
REMARK    4  A    between atoms: C7_7  and  N1_8 
REMARK    5  A    between atoms: N1_8  and  C8_9 
REMARK    6  A    between atoms: C14_18  and  N4_19 
REMARK       I    between atoms: N4_19  and  C15_20 
REMARK    7  A    between atoms: C15_20  and  C16_22 
ROOT
HETATM    1  C8  UNL     1      24.957  -0.551  54.244  1.00  0.00     0.137 A 
HETATM    2  N2  UNL     1      24.955  -1.178  55.419  1.00  0.00    -0.224 NA
HETATM    3  C9  UNL     1      23.858  -1.609  56.038  1.00  0.00     0.235 A 
HETATM    4  N3  UNL     1      22.722  -1.369  55.392  1.00  0.00    -0.241 NA
HETATM    5  C10 UNL     1      22.605  -0.756  54.226  1.00  0.00     0.075 A 
HETATM    6  C11 UNL     1      21.378  -0.520  53.612  1.00  0.00     0.071 A 
HETATM    7  C12 UNL     1      21.270   0.136  52.404  1.00  0.00     0.097 A 
HETATM    8  O1  UNL     1      20.133   0.314  51.915  1.00  0.00    -0.354 OA
HETATM    9  C13 UNL     1      18.897   0.442  51.497  1.00  0.00     0.210 C 
HETATM   10  C14 UNL     1      22.431   0.583  51.765  1.00  0.00     0.069 A 
HETATM   11  C18 UNL     1      23.633   0.336  52.396  1.00  0.00     0.050 A 
HETATM   12  C19 UNL     1      23.749  -0.316  53.599  1.00  0.00     0.041 A 
ENDROOT
BRANCH  10  13
HETATM   13  N4  UNL     1      22.262   1.248  50.529  1.00  0.00    -0.325 N 
HETATM   14  C15 UNL     1      22.359   2.611  50.228  1.00  0.00     0.221 C 
HETATM   15  O2  UNL     1      22.629   3.424  51.120  1.00  0.00    -0.273 OA
HETATM   16  H18 UNL     1      22.025   0.682  49.674  1.00  0.00     0.169 HD
BRANCH  14  17
HETATM   17  C16 UNL     1      22.152   3.169  48.864  1.00  0.00     0.098 C 
HETATM   18  C17 UNL     1      22.531   2.212  47.787  1.00  0.00     0.014 C 
ENDBRANCH  14  17
ENDBRANCH  10  13
BRANCH   1  19
HETATM   19  N1  UNL     1      26.093  -0.080  53.510  1.00  0.00    -0.371 N 
HETATM   20  H12 UNL     1      26.506  -1.026  53.241  1.00  0.00     0.161 HD
BRANCH  19  21
HETATM   21  C7  UNL     1      27.211   0.383  52.787  1.00  0.00     0.148 C 
BRANCH  21  22
HETATM   22  C6  UNL     1      27.240   1.819  52.420  1.00  0.00    -0.007 C 
HETATM   23  C5  UNL     1      26.791   2.583  51.463  1.00  0.00    -0.003 C 
BRANCH  23  24
HETATM   24  C4  UNL     1      26.098   2.831  50.253  1.00  0.00    -0.004 C 
HETATM   25  C3  UNL     1      25.786   3.712  49.346  1.00  0.00    -0.027 C 
BRANCH  25  26
HETATM   26  C2  UNL     1      26.290   5.104  49.482  1.00  0.00     0.022 C 
HETATM   27  C1  UNL     1      27.466   5.334  48.585  1.00  0.00     0.009 C 
ENDBRANCH  25  26
ENDBRANCH  23  24
ENDBRANCH  21  22
ENDBRANCH  19  21
ENDBRANCH   1  19
TORSDOF 7
ENDMDL
MODEL 4
REMARK VINA RESULT:      -7.2      2.196      4.984
REMARK  7 active torsions:
REMARK  status: ('A' for Active; 'I' for Inactive)
REMARK    1  A    between atoms: C2_2  and  C3_3 
REMARK    2  A    between atoms: C4_4  and  C5_5 
REMARK    3  A    between atoms: C6_6  and  C7_7 
REMARK    4  A    between atoms: C7_7  and  N1_8 
REMARK    5  A    between atoms: N1_8  and  C8_9 
REMARK    6  A    between atoms: C14_18  and  N4_19 
REMARK       I    between atoms: N4_19  and  C15_20 
REMARK    7  A    between atoms: C15_20  and  C16_22 
ROOT
HETATM    1  C8  UNL     1      26.984   2.329  52.060  1.00  0.00     0.137 A 
HETATM    2  N2  UNL     1      28.124   2.227  52.742  1.00  0.00    -0.224 NA
HETATM    3  C9  UNL     1      28.303   1.423  53.788  1.00  0.00     0.235 A 
HETATM    4  N3  UNL     1      27.241   0.700  54.125  1.00  0.00    -0.241 NA
HETATM    5  C10 UNL     1      26.064   0.721  53.522  1.00  0.00     0.075 A 
HETATM    6  C11 UNL     1      24.984  -0.052  53.940  1.00  0.00     0.071 A 
HETATM    7  C12 UNL     1      23.756  -0.008  53.312  1.00  0.00     0.097 A 
HETATM    8  O1  UNL     1      22.832  -0.729  53.747  1.00  0.00    -0.354 OA
HETATM    9  C13 UNL     1      21.940  -1.527  54.284  1.00  0.00     0.210 C 
HETATM   10  C14 UNL     1      23.583   0.842  52.215  1.00  0.00     0.069 A 
HETATM   11  C18 UNL     1      24.669   1.596  51.823  1.00  0.00     0.050 A 
HETATM   12  C19 UNL     1      25.894   1.558  52.443  1.00  0.00     0.041 A 
ENDROOT
BRANCH  10  13
HETATM   13  N4  UNL     1      22.305   0.846  51.610  1.00  0.00    -0.325 N 
HETATM   14  C15 UNL     1      21.281   1.797  51.693  1.00  0.00     0.221 C 
HETATM   15  O2  UNL     1      21.436   2.815  52.378  1.00  0.00    -0.273 OA
HETATM   16  H18 UNL     1      22.029   0.038  50.996  1.00  0.00     0.169 HD
BRANCH  14  17
HETATM   17  C16 UNL     1      19.975   1.663  50.991  1.00  0.00     0.098 C 
HETATM   18  C17 UNL     1      19.290   0.375  51.290  1.00  0.00     0.014 C 
ENDBRANCH  14  17
ENDBRANCH  10  13
BRANCH   1  19
HETATM   19  N1  UNL     1      26.725   3.151  50.917  1.00  0.00    -0.371 N 
HETATM   20  H12 UNL     1      25.943   3.747  51.329  1.00  0.00     0.161 HD
BRANCH  19  21
HETATM   21  C7  UNL     1      26.470   3.961  49.791  1.00  0.00     0.148 C 
BRANCH  21  22
HETATM   22  C6  UNL     1      25.067   4.374  49.550  1.00  0.00    -0.007 C 
HETATM   23  C5  UNL     1      23.957   3.834  49.128  1.00  0.00    -0.003 C 
BRANCH  23  24
HETATM   24  C4  UNL     1      23.170   2.762  48.641  1.00  0.00    -0.004 C 
HETATM   25  C3  UNL     1      22.150   2.413  47.910  1.00  0.00    -0.027 C 
BRANCH  25  26
HETATM   26  C2  UNL     1      21.362   3.465  47.215  1.00  0.00     0.022 C 
HETATM   27  C1  UNL     1      21.889   3.700  45.834  1.00  0.00     0.009 C 
ENDBRANCH  25  26
ENDBRANCH  23  24
ENDBRANCH  21  22
ENDBRANCH  19  21
ENDBRANCH   1  19
TORSDOF 7
ENDMDL
MODEL 5
REMARK VINA RESULT:      -7.2      2.296      6.220
REMARK  7 active torsions:
REMARK  status: ('A' for Active; 'I' for Inactive)
REMARK    1  A    between atoms: C2_2  and  C3_3 
REMARK    2  A    between atoms: C4_4  and  C5_5 
REMARK    3  A    between atoms: C6_6  and  C7_7 
REMARK    4  A    between atoms: C7_7  and  N1_8 
REMARK    5  A    between atoms: N1_8  and  C8_9 
REMARK    6  A    between atoms: C14_18  and  N4_19 
REMARK       I    between atoms: N4_19  and  C15_20 
REMARK    7  A    between atoms: C15_20  and  C16_22 
ROOT
HETATM    1  C8  UNL     1      24.092  -0.096  53.696  1.00  0.00     0.137 A 
HETATM    2  N2  UNL     1      24.716  -0.697  54.707  1.00  0.00    -0.224 NA
HETATM    3  C9  UNL     1      24.116  -1.486  55.597  1.00  0.00     0.235 A 
HETATM    4  N3  UNL     1      22.810  -1.645  55.410  1.00  0.00    -0.241 NA
HETATM    5  C10 UNL     1      22.091  -1.099  54.445  1.00  0.00     0.075 A 
HETATM    6  C11 UNL     1      20.718  -1.294  54.317  1.00  0.00     0.071 A 
HETATM    7  C12 UNL     1      19.977  -0.704  53.316  1.00  0.00     0.097 A 
HETATM    8  O1  UNL     1      18.747  -0.924  53.268  1.00  0.00    -0.354 OA
HETATM    9  C13 UNL     1      17.472  -1.225  53.312  1.00  0.00     0.210 C 
HETATM   10  C14 UNL     1      20.621   0.123  52.389  1.00  0.00     0.069 A 
HETATM   11  C18 UNL     1      21.981   0.298  52.538  1.00  0.00     0.050 A 
HETATM   12  C19 UNL     1      22.726  -0.285  53.533  1.00  0.00     0.041 A 
ENDROOT
BRANCH  10  13
HETATM   13  N4  UNL     1      19.813   0.701  51.382  1.00  0.00    -0.325 N 
HETATM   14  C15 UNL     1      19.202   1.959  51.342  1.00  0.00     0.221 C 
HETATM   15  O2  UNL     1      19.339   2.744  52.287  1.00  0.00    -0.273 OA
HETATM   16  H18 UNL     1      19.606   0.145  50.513  1.00  0.00     0.169 HD
BRANCH  14  17
HETATM   17  C16 UNL     1      18.371   2.434  50.201  1.00  0.00     0.098 C 
HETATM   18  C17 UNL     1      16.993   1.868  50.218  1.00  0.00     0.014 C 
ENDBRANCH  14  17
ENDBRANCH  10  13
BRANCH   1  19
HETATM   19  N1  UNL     1      24.672   0.744  52.691  1.00  0.00    -0.371 N 
HETATM   20  H12 UNL     1      23.799   0.907  52.103  1.00  0.00     0.161 HD
BRANCH  19  21
HETATM   21  C7  UNL     1      25.243   1.572  51.703  1.00  0.00     0.148 C 
BRANCH  21  22
HETATM   22  C6  UNL     1      26.692   1.863  51.809  1.00  0.00    -0.007 C 
HETATM   23  C5  UNL     1      27.658   1.673  52.665  1.00  0.00    -0.003 C 
BRANCH  23  24
HETATM   24  C4  UNL     1      28.201   1.204  53.886  1.00  0.00    -0.004 C 
HETATM   25  C3  UNL     1      29.066   0.413  54.453  1.00  0.00    -0.027 C 
BRANCH  25  26
HETATM   26  C2  UNL     1      29.942  -0.434  53.600  1.00  0.00     0.022 C 
HETATM   27  C1  UNL     1      29.276  -1.736  53.282  1.00  0.00     0.009 C 
ENDBRANCH  25  26
ENDBRANCH  23  24
ENDBRANCH  21  22
ENDBRANCH  19  21
ENDBRANCH   1  19
TORSDOF 7
ENDMDL
MODEL 6
REMARK VINA RESULT:      -7.1      2.209      5.963
REMARK  7 active torsions:
REMARK  status: ('A' for Active; 'I' for Inactive)
REMARK    1  A    between atoms: C2_2  and  C3_3 
REMARK    2  A    between atoms: C4_4  and  C5_5 
REMARK    3  A    between atoms: C6_6  and  C7_7 
REMARK    4  A    between atoms: C7_7  and  N1_8 
REMARK    5  A    between atoms: N1_8  and  C8_9 
REMARK    6  A    between atoms: C14_18  and  N4_19 
REMARK       I    between atoms: N4_19  and  C15_20 
REMARK    7  A    between atoms: C15_20  and  C16_22 
ROOT
HETATM    1  C8  UNL     1      22.359  -0.473  53.538  1.00  0.00     0.137 A 
HETATM    2  N2  UNL     1      21.343  -1.089  54.141  1.00  0.00    -0.224 NA
HETATM    3  C9  UNL     1      20.067  -0.958  53.781  1.00  0.00     0.235 A 
HETATM    4  N3  UNL     1      19.858  -0.148  52.749  1.00  0.00    -0.241 NA
HETATM    5  C10 UNL     1      20.787   0.513  52.079  1.00  0.00     0.075 A 
HETATM    6  C11 UNL     1      20.496   1.362  51.015  1.00  0.00     0.071 A 
HETATM    7  C12 UNL     1      21.473   2.059  50.336  1.00  0.00     0.097 A 
HETATM    8  O1  UNL     1      21.134   2.806  49.392  1.00  0.00    -0.354 OA
HETATM    9  C13 UNL     1      20.667   3.554  48.422  1.00  0.00     0.210 C 
HETATM   10  C14 UNL     1      22.809   1.912  50.724  1.00  0.00     0.069 A 
HETATM   11  C18 UNL     1      23.069   1.064  51.781  1.00  0.00     0.050 A 
HETATM   12  C19 UNL     1      22.101   0.367  52.463  1.00  0.00     0.041 A 
ENDROOT
BRANCH  10  13
HETATM   13  N4  UNL     1      23.769   2.648  49.993  1.00  0.00    -0.325 N 
HETATM   14  C15 UNL     1      24.411   3.848  50.319  1.00  0.00     0.221 C 
HETATM   15  O2  UNL     1      24.158   4.415  51.388  1.00  0.00    -0.273 OA
HETATM   16  H18 UNL     1      24.083   2.287  49.056  1.00  0.00     0.169 HD
BRANCH  14  17
HETATM   17  C16 UNL     1      25.412   4.511  49.438  1.00  0.00     0.098 C 
HETATM   18  C17 UNL     1      26.725   3.807  49.427  1.00  0.00     0.014 C 
ENDBRANCH  14  17
ENDBRANCH  10  13
BRANCH   1  19
HETATM   19  N1  UNL     1      23.752  -0.582  53.852  1.00  0.00    -0.371 N 
HETATM   20  H12 UNL     1      23.872  -1.624  53.664  1.00  0.00     0.161 HD
BRANCH  19  21
HETATM   21  C7  UNL     1      25.124  -0.689  54.160  1.00  0.00     0.148 C 
BRANCH  21  22
HETATM   22  C6  UNL     1      26.055  -0.973  53.043  1.00  0.00    -0.007 C 
HETATM   23  C5  UNL     1      27.342  -0.971  52.830  1.00  0.00    -0.003 C 
BRANCH  23  24
HETATM   24  C4  UNL     1      28.694  -0.789  53.212  1.00  0.00    -0.004 C 
HETATM   25  C3  UNL     1      29.542  -0.053  53.869  1.00  0.00    -0.027 C 
BRANCH  25  26
HETATM   26  C2  UNL     1      29.053   1.155  54.586  1.00  0.00     0.022 C 
HETATM   27  C1  UNL     1      28.687   2.236  53.618  1.00  0.00     0.009 C 
ENDBRANCH  25  26
ENDBRANCH  23  24
ENDBRANCH  21  22
ENDBRANCH  19  21
ENDBRANCH   1  19
TORSDOF 7
ENDMDL
MODEL 7
REMARK VINA RESULT:      -7.0      6.822      9.900
REMARK  7 active torsions:
REMARK  status: ('A' for Active; 'I' for Inactive)
REMARK    1  A    between atoms: C2_2  and  C3_3 
REMARK    2  A    between atoms: C4_4  and  C5_5 
REMARK    3  A    between atoms: C6_6  and  C7_7 
REMARK    4  A    between atoms: C7_7  and  N1_8 
REMARK    5  A    between atoms: N1_8  and  C8_9 
REMARK    6  A    between atoms: C14_18  and  N4_19 
REMARK       I    between atoms: N4_19  and  C15_20 
REMARK    7  A    between atoms: C15_20  and  C16_22 
ROOT
HETATM    1  C8  UNL     1      29.119   8.147  48.768  1.00  0.00     0.137 A 
HETATM    2  N2  UNL     1      28.956   9.462  48.911  1.00  0.00    -0.224 NA
HETATM    3  C9  UNL     1      29.956  10.332  49.044  1.00  0.00     0.235 A 
HETATM    4  N3  UNL     1      31.170   9.794  49.027  1.00  0.00    -0.241 NA
HETATM    5  C10 UNL     1      31.449   8.508  48.892  1.00  0.00     0.075 A 
HETATM    6  C11 UNL     1      32.748   8.008  48.900  1.00  0.00     0.071 A 
HETATM    7  C12 UNL     1      33.024   6.663  48.776  1.00  0.00     0.097 A 
HETATM    8  O1  UNL     1      34.217   6.288  48.796  1.00  0.00    -0.354 OA
HETATM    9  C13 UNL     1      35.498   6.011  48.826  1.00  0.00     0.210 C 
HETATM   10  C14 UNL     1      31.964   5.760  48.637  1.00  0.00     0.069 A 
HETATM   11  C18 UNL     1      30.687   6.283  48.632  1.00  0.00     0.050 A 
HETATM   12  C19 UNL     1      30.405   7.621  48.755  1.00  0.00     0.041 A 
ENDROOT
BRANCH  10  13
HETATM   13  N4  UNL     1      32.304   4.393  48.513  1.00  0.00    -0.325 N 
HETATM   14  C15 UNL     1      32.565   3.641  47.362  1.00  0.00     0.221 C 
HETATM   15  O2  UNL     1      32.511   4.174  46.248  1.00  0.00    -0.273 OA
HETATM   16  H18 UNL     1      32.386   3.807  49.382  1.00  0.00     0.169 HD
BRANCH  14  17
HETATM   17  C16 UNL     1      32.916   2.194  47.389  1.00  0.00     0.098 C 
HETATM   18  C17 UNL     1      31.953   1.355  46.622  1.00  0.00     0.014 C 
ENDBRANCH  14  17
ENDBRANCH  10  13
BRANCH   1  19
HETATM   19  N1  UNL     1      28.099   7.157  48.597  1.00  0.00    -0.371 N 
HETATM   20  H12 UNL     1      28.204   6.663  49.536  1.00  0.00     0.161 HD
BRANCH  19  21
HETATM   21  C7  UNL     1      27.093   6.183  48.430  1.00  0.00     0.148 C 
BRANCH  21  22
HETATM   22  C6  UNL     1      27.428   4.786  48.797  1.00  0.00    -0.007 C 
HETATM   23  C5  UNL     1      26.905   3.818  49.497  1.00  0.00    -0.003 C 
BRANCH  23  24
HETATM   24  C4  UNL     1      25.910   3.238  50.322  1.00  0.00    -0.004 C 
HETATM   25  C3  UNL     1      25.628   2.302  51.182  1.00  0.00    -0.027 C 
BRANCH  25  26
HETATM   26  C2  UNL     1      26.690   1.342  51.584  1.00  0.00     0.022 C 
HETATM   27  C1  UNL     1      26.110   0.207  52.369  1.00  0.00     0.009 C 
ENDBRANCH  25  26
ENDBRANCH  23  24
ENDBRANCH  21  22
ENDBRANCH  19  21
ENDBRANCH   1  19
TORSDOF 7
ENDMDL
MODEL 8
REMARK VINA RESULT:      -6.9      3.415      8.530
REMARK  7 active torsions:
REMARK  status: ('A' for Active; 'I' for Inactive)
REMARK    1  A    between atoms: C2_2  and  C3_3 
REMARK    2  A    between atoms: C4_4  and  C5_5 
REMARK    3  A    between atoms: C6_6  and  C7_7 
REMARK    4  A    between atoms: C7_7  and  N1_8 
REMARK    5  A    between atoms: N1_8  and  C8_9 
REMARK    6  A    between atoms: C14_18  and  N4_19 
REMARK       I    between atoms: N4_19  and  C15_20 
REMARK    7  A    between atoms: C15_20  and  C16_22 
ROOT
HETATM    1  C8  UNL     1      24.811   3.967  50.074  1.00  0.00     0.137 A 
HETATM    2  N2  UNL     1      23.605   4.478  49.834  1.00  0.00    -0.224 NA
HETATM    3  C9  UNL     1      22.492   4.101  50.462  1.00  0.00     0.235 A 
HETATM    4  N3  UNL     1      22.661   3.151  51.375  1.00  0.00    -0.241 NA
HETATM    5  C10 UNL     1      23.807   2.574  51.693  1.00  0.00     0.075 A 
HETATM    6  C11 UNL     1      23.910   1.568  52.650  1.00  0.00     0.071 A 
HETATM    7  C12 UNL     1      25.110   0.962  52.960  1.00  0.00     0.097 A 
HETATM    8  O1  UNL     1      25.123   0.063  53.829  1.00  0.00    -0.354 OA
HETATM    9  C13 UNL     1      25.020  -0.861  54.754  1.00  0.00     0.210 C 
HETATM   10  C14 UNL     1      26.270   1.368  52.293  1.00  0.00     0.069 A 
HETATM   11  C18 UNL     1      26.139   2.366  51.350  1.00  0.00     0.050 A 
HETATM   12  C19 UNL     1      24.948   2.974  51.035  1.00  0.00     0.041 A 
ENDROOT
BRANCH  10  13
HETATM   13  N4  UNL     1      27.472   0.714  52.651  1.00  0.00    -0.325 N 
HETATM   14  C15 UNL     1      28.505   1.145  53.490  1.00  0.00     0.221 C 
HETATM   15  O2  UNL     1      28.436   2.251  54.040  1.00  0.00    -0.273 OA
HETATM   16  H18 UNL     1      27.670  -0.240  52.256  1.00  0.00     0.169 HD
BRANCH  14  17
HETATM   17  C16 UNL     1      29.723   0.337  53.777  1.00  0.00     0.098 C 
HETATM   18  C17 UNL     1      29.550  -1.104  53.439  1.00  0.00     0.014 C 
ENDBRANCH  14  17
ENDBRANCH  10  13
BRANCH   1  19
HETATM   19  N1  UNL     1      26.051   4.336  49.458  1.00  0.00    -0.371 N 
HETATM   20  H12 UNL     1      26.550   4.704  50.325  1.00  0.00     0.161 HD
BRANCH  19  21
HETATM   21  C7  UNL     1      27.271   4.698  48.852  1.00  0.00     0.148 C 
BRANCH  21  22
HETATM   22  C6  UNL     1      27.397   6.085  48.346  1.00  0.00    -0.007 C 
HETATM   23  C5  UNL     1      28.339   6.970  48.169  1.00  0.00    -0.003 C 
BRANCH  23  24
HETATM   24  C4  UNL     1      29.677   7.431  48.223  1.00  0.00    -0.004 C 
HETATM   25  C3  UNL     1      30.921   7.117  48.445  1.00  0.00    -0.027 C 
BRANCH  25  26
HETATM   26  C2  UNL     1      31.263   5.717  48.811  1.00  0.00     0.022 C 
HETATM   27  C1  UNL     1      31.362   4.858  47.589  1.00  0.00     0.009 C 
ENDBRANCH  25  26
ENDBRANCH  23  24
ENDBRANCH  21  22
ENDBRANCH  19  21
ENDBRANCH   1  19
TORSDOF 7
ENDMDL
MODEL 9
REMARK VINA RESULT:      -6.9      2.900      6.942
REMARK  7 active torsions:
REMARK  status: ('A' for Active; 'I' for Inactive)
REMARK    1  A    between atoms: C2_2  and  C3_3 
REMARK    2  A    between atoms: C4_4  and  C5_5 
REMARK    3  A    between atoms: C6_6  and  C7_7 
REMARK    4  A    between atoms: C7_7  and  N1_8 
REMARK    5  A    between atoms: N1_8  and  C8_9 
REMARK    6  A    between atoms: C14_18  and  N4_19 
REMARK       I    between atoms: N4_19  and  C15_20 
REMARK    7  A    between atoms: C15_20  and  C16_22 
ROOT
HETATM    1  C8  UNL     1      26.876   2.284  52.145  1.00  0.00     0.137 A 
HETATM    2  N2  UNL     1      28.062   2.120  52.729  1.00  0.00    -0.224 NA
HETATM    3  C9  UNL     1      28.308   1.233  53.692  1.00  0.00     0.235 A 
HETATM    4  N3  UNL     1      27.265   0.494  54.051  1.00  0.00    -0.241 NA
HETATM    5  C10 UNL     1      26.047   0.572  53.543  1.00  0.00     0.075 A 
HETATM    6  C11 UNL     1      24.990  -0.223  53.979  1.00  0.00     0.071 A 
HETATM    7  C12 UNL     1      23.720  -0.120  53.452  1.00  0.00     0.097 A 
HETATM    8  O1  UNL     1      22.821  -0.867  53.897  1.00  0.00    -0.354 OA
HETATM    9  C13 UNL     1      21.961  -1.697  54.436  1.00  0.00     0.210 C 
HETATM   10  C14 UNL     1      23.476   0.816  52.441  1.00  0.00     0.069 A 
HETATM   11  C18 UNL     1      24.540   1.590  52.028  1.00  0.00     0.050 A 
HETATM   12  C19 UNL     1      25.807   1.493  52.548  1.00  0.00     0.041 A 
ENDROOT
BRANCH  10  13
HETATM   13  N4  UNL     1      22.156   0.878  51.937  1.00  0.00    -0.325 N 
HETATM   14  C15 UNL     1      21.247   1.942  51.946  1.00  0.00     0.221 C 
HETATM   15  O2  UNL     1      21.565   3.024  52.452  1.00  0.00    -0.273 OA
HETATM   16  H18 UNL     1      21.745   0.025  51.477  1.00  0.00     0.169 HD
BRANCH  14  17
HETATM   17  C16 UNL     1      19.877   1.857  51.369  1.00  0.00     0.098 C 
HETATM   18  C17 UNL     1      19.390   0.455  51.244  1.00  0.00     0.014 C 
ENDBRANCH  14  17
ENDBRANCH  10  13
BRANCH   1  19
HETATM   19  N1  UNL     1      26.543   3.196  51.093  1.00  0.00    -0.371 N 
HETATM   20  H12 UNL     1      27.062   4.052  51.460  1.00  0.00     0.161 HD
BRANCH  19  21
HETATM   21  C7  UNL     1      26.215   4.094  50.057  1.00  0.00     0.148 C 
BRANCH  21  22
HETATM   22  C6  UNL     1      27.209   4.279  48.973  1.00  0.00    -0.007 C 
HETATM   23  C5  UNL     1      27.839   5.264  48.394  1.00  0.00    -0.003 C 
BRANCH  23  24
HETATM   24  C4  UNL     1      28.161   6.629  48.202  1.00  0.00    -0.004 C 
HETATM   25  C3  UNL     1      29.058   7.483  47.800  1.00  0.00    -0.027 C 
BRANCH  25  26
HETATM   26  C2  UNL     1      30.362   6.982  47.292  1.00  0.00     0.022 C 
HETATM   27  C1  UNL     1      31.308   6.719  48.422  1.00  0.00     0.009 C 
ENDBRANCH  25  26
ENDBRANCH  23  24
ENDBRANCH  21  22
ENDBRANCH  19  21
ENDBRANCH   1  19
TORSDOF 7
ENDMDL
