MODEL 1
REMARK VINA RESULT:      -7.8      0.000      0.000
REMARK  4 active torsions:
REMARK  status: ('A' for Active; 'I' for Inactive)
REMARK    1  A    between atoms: N2_5  and  C4_6 
REMARK    2  A    between atoms: C4_6  and  C5_7 
REMARK    3  A    between atoms: C8_10  and  N3_11 
REMARK       I    between atoms: N3_11  and  C9_12 
REMARK    4  A    between atoms: C9_12  and  C10_14 
ROOT
HETATM    1  N3  UNL     1      24.568   2.891  50.006  1.00  0.00    -0.323 N 
HETATM    2  C9  UNL     1      24.203   2.508  51.308  1.00  0.00     0.255 C 
HETATM    3  O1  UNL     1      24.696   3.339  52.141  1.00  0.00    -0.268 OA
HETATM    4  H12 UNL     1      24.189   2.240  49.287  1.00  0.00     0.169 HD
ENDROOT
BRANCH   1   5
HETATM    5  C8  UNL     1      25.335   3.970  49.518  1.00  0.00     0.035 A 
HETATM    6  C7  UNL     1      24.929   5.238  49.206  1.00  0.00     0.030 A 
HETATM    7  C6  UNL     1      25.723   6.235  48.739  1.00  0.00     0.011 A 
HETATM    8  C5  UNL     1      27.050   5.960  48.559  1.00  0.00    -0.030 A 
HETATM    9  C18 UNL     1      27.556   4.719  48.842  1.00  0.00     0.011 A 
HETATM   10  C17 UNL     1      26.700   3.757  49.311  1.00  0.00     0.030 A 
BRANCH   8  11
HETATM   11  C4  UNL     1      27.970   6.998  48.053  1.00  0.00     0.311 C 
BRANCH  11  12
HETATM   12  N2  UNL     1      27.438   8.289  48.352  1.00  0.00     0.096 N 
HETATM   13  C3  UNL     1      27.969   8.929  49.514  1.00  0.00     0.303 C 
HETATM   14  C2  UNL     1      29.367   9.444  49.324  1.00  0.00     0.302 C 
HETATM   15  N1  UNL     1      29.897   9.206  47.995  1.00  0.00     0.087 N 
HETATM   16  C1  UNL     1      31.106   9.989  47.866  1.00  0.00     0.310 C 
HETATM   17  C20 UNL     1      28.961   9.618  46.965  1.00  0.00     0.302 C 
HETATM   18  C19 UNL     1      27.552   9.218  47.250  1.00  0.00     0.303 C 
ENDBRANCH  11  12
ENDBRANCH   8  11
ENDBRANCH   1   5
BRANCH   2  19
HETATM   19  C10 UNL     1      23.389   1.355  51.766  1.00  0.00     0.049 C 
HETATM   20  C11 UNL     1      22.345   1.206  51.009  1.00  0.00     0.102 C 
HETATM   21  N4  UNL     1      21.196   0.427  50.801  1.00  0.00    -0.377 N 
HETATM   22  C12 UNL     1      19.816   0.751  50.922  1.00  0.00     0.110 C 
HETATM   23  H14 UNL     1      20.823  -0.497  50.532  1.00  0.00     0.164 HD
HETATM   24  C13 UNL     1      19.493   1.355  52.055  1.00  0.00     0.017 C 
HETATM   25  C14 UNL     1      20.405   1.452  53.008  1.00  0.00    -0.009 C 
HETATM   26  P1  UNL     1      20.935  -0.288  53.155  1.00  0.00    -0.084 P 
HETATM   27  C15 UNL     1      22.438  -0.452  54.203  1.00  0.00     0.202 C 
HETATM   28  H17 UNL     1      19.866  -1.178  53.565  1.00  0.00     0.063 HD
HETATM   29  O2  UNL     1      23.584  -0.318  53.544  1.00  0.00    -0.382 OA
HETATM   30  C16 UNL     1      24.051   0.744  52.925  1.00  0.00     0.213 C 
ENDBRANCH   2  19
TORSDOF 4
ENDMDL
MODEL 2
REMARK VINA RESULT:      -7.7      6.173      7.964
REMARK  4 active torsions:
REMARK  status: ('A' for Active; 'I' for Inactive)
REMARK    1  A    between atoms: N2_5  and  C4_6 
REMARK    2  A    between atoms: C4_6  and  C5_7 
REMARK    3  A    between atoms: C8_10  and  N3_11 
REMARK       I    between atoms: N3_11  and  C9_12 
REMARK    4  A    between atoms: C9_12  and  C10_14 
ROOT
HETATM    1  N3  UNL     1      20.284   1.591  51.160  1.00  0.00    -0.323 N 
HETATM    2  C9  UNL     1      19.270   2.502  51.500  1.00  0.00     0.255 C 
HETATM    3  O1  UNL     1      19.672   3.233  52.465  1.00  0.00    -0.268 OA
HETATM    4  H12 UNL     1      20.003   0.969  50.373  1.00  0.00     0.169 HD
ENDROOT
BRANCH   1   5
HETATM    5  C8  UNL     1      21.578   1.379  51.681  1.00  0.00     0.035 A 
HETATM    6  C7  UNL     1      21.946   0.701  52.810  1.00  0.00     0.030 A 
HETATM    7  C6  UNL     1      23.216   0.532  53.258  1.00  0.00     0.011 A 
HETATM    8  C5  UNL     1      24.228   1.085  52.523  1.00  0.00    -0.030 A 
HETATM    9  C18 UNL     1      23.964   1.784  51.375  1.00  0.00     0.011 A 
HETATM   10  C17 UNL     1      22.659   1.917  50.979  1.00  0.00     0.030 A 
BRANCH   8  11
HETATM   11  C4  UNL     1      25.633   0.940  52.953  1.00  0.00     0.311 C 
BRANCH  11  12
HETATM   12  N2  UNL     1      25.769  -0.244  53.739  1.00  0.00     0.096 N 
HETATM   13  C3  UNL     1      26.413  -1.348  53.099  1.00  0.00     0.303 C 
HETATM   14  C2  UNL     1      27.895  -1.166  52.946  1.00  0.00     0.302 C 
HETATM   15  N1  UNL     1      28.385   0.086  53.491  1.00  0.00     0.087 N 
HETATM   16  C1  UNL     1      29.829   0.002  53.535  1.00  0.00     0.310 C 
HETATM   17  C20 UNL     1      27.889   0.313  54.836  1.00  0.00     0.302 C 
HETATM   18  C19 UNL     1      26.443  -0.015  54.997  1.00  0.00     0.303 C 
ENDBRANCH  11  12
ENDBRANCH   8  11
ENDBRANCH   1   5
BRANCH   2  19
HETATM   19  C10 UNL     1      17.919   2.683  50.913  1.00  0.00     0.049 C 
HETATM   20  C11 UNL     1      17.214   3.496  51.639  1.00  0.00     0.102 C 
HETATM   21  N4  UNL     1      15.961   4.119  51.753  1.00  0.00    -0.377 N 
HETATM   22  C12 UNL     1      14.926   3.962  52.715  1.00  0.00     0.110 C 
HETATM   23  H14 UNL     1      15.306   4.809  51.351  1.00  0.00     0.164 HD
HETATM   24  C13 UNL     1      14.589   2.704  52.956  1.00  0.00     0.017 C 
HETATM   25  C14 UNL     1      15.100   1.751  52.195  1.00  0.00    -0.009 C 
HETATM   26  P1  UNL     1      14.691   2.381  50.532  1.00  0.00    -0.084 P 
HETATM   27  C15 UNL     1      15.545   1.422  49.215  1.00  0.00     0.202 C 
HETATM   28  H17 UNL     1      13.265   2.503  50.302  1.00  0.00     0.063 HD
HETATM   29  O2  UNL     1      16.762   1.862  48.917  1.00  0.00    -0.382 OA
HETATM   30  C16 UNL     1      17.832   1.890  49.681  1.00  0.00     0.213 C 
ENDBRANCH   2  19
TORSDOF 4
ENDMDL
MODEL 3
REMARK VINA RESULT:      -7.4      1.836      2.542
REMARK  4 active torsions:
REMARK  status: ('A' for Active; 'I' for Inactive)
REMARK    1  A    between atoms: N2_5  and  C4_6 
REMARK    2  A    between atoms: C4_6  and  C5_7 
REMARK    3  A    between atoms: C8_10  and  N3_11 
REMARK       I    between atoms: N3_11  and  C9_12 
REMARK    4  A    between atoms: C9_12  and  C10_14 
ROOT
HETATM    1  N3  UNL     1      25.488   4.348  49.393  1.00  0.00    -0.323 N 
HETATM    2  C9  UNL     1      25.355   3.353  50.376  1.00  0.00     0.255 C 
HETATM    3  O1  UNL     1      26.474   3.200  50.970  1.00  0.00    -0.268 OA
HETATM    4  H12 UNL     1      24.596   4.510  48.879  1.00  0.00     0.169 HD
ENDROOT
BRANCH   1   5
HETATM    5  C8  UNL     1      26.583   5.142  48.993  1.00  0.00     0.035 A 
HETATM    6  C7  UNL     1      27.834   4.745  48.606  1.00  0.00     0.030 A 
HETATM    7  C6  UNL     1      28.848   5.565  48.231  1.00  0.00     0.011 A 
HETATM    8  C5  UNL     1      28.612   6.911  48.236  1.00  0.00    -0.030 A 
HETATM    9  C18 UNL     1      27.391   7.411  48.607  1.00  0.00     0.011 A 
HETATM   10  C17 UNL     1      26.411   6.528  48.976  1.00  0.00     0.030 A 
BRANCH   8  11
HETATM   11  C4  UNL     1      29.671   7.861  47.840  1.00  0.00     0.311 C 
BRANCH  11  12
HETATM   12  N2  UNL     1      30.504   8.139  48.966  1.00  0.00     0.096 N 
HETATM   13  C3  UNL     1      31.897   7.874  48.793  1.00  0.00     0.303 C 
HETATM   14  C2  UNL     1      32.589   8.877  47.915  1.00  0.00     0.302 C 
HETATM   15  N1  UNL     1      31.712   9.925  47.428  1.00  0.00     0.087 N 
HETATM   16  C1  UNL     1      32.548  10.953  46.849  1.00  0.00     0.310 C 
HETATM   17  C20 UNL     1      30.929  10.508  48.503  1.00  0.00     0.302 C 
HETATM   18  C19 UNL     1      30.373   9.496  49.447  1.00  0.00     0.303 C 
ENDBRANCH  11  12
ENDBRANCH   8  11
ENDBRANCH   1   5
BRANCH   2  19
HETATM   19  C10 UNL     1      24.170   2.545  50.757  1.00  0.00     0.049 C 
HETATM   20  C11 UNL     1      23.138   2.891  50.049  1.00  0.00     0.102 C 
HETATM   21  N4  UNL     1      21.777   2.631  49.827  1.00  0.00    -0.377 N 
HETATM   22  C12 UNL     1      20.625   3.432  50.060  1.00  0.00     0.110 C 
HETATM   23  H14 UNL     1      21.077   1.953  49.483  1.00  0.00     0.164 HD
HETATM   24  C13 UNL     1      20.569   3.974  51.266  1.00  0.00     0.017 C 
HETATM   25  C14 UNL     1      21.463   3.607  52.170  1.00  0.00    -0.009 C 
HETATM   26  P1  UNL     1      21.294   1.792  52.104  1.00  0.00    -0.084 P 
HETATM   27  C15 UNL     1      22.636   0.952  53.041  1.00  0.00     0.202 C 
HETATM   28  H17 UNL     1      19.973   1.326  52.478  1.00  0.00     0.063 HD
HETATM   29  O2  UNL     1      23.738   0.723  52.335  1.00  0.00    -0.382 OA
HETATM   30  C16 UNL     1      24.566   1.597  51.806  1.00  0.00     0.213 C 
ENDBRANCH   2  19
TORSDOF 4
ENDMDL
MODEL 4
REMARK VINA RESULT:      -7.4      5.003     11.287
REMARK  4 active torsions:
REMARK  status: ('A' for Active; 'I' for Inactive)
REMARK    1  A    between atoms: N2_5  and  C4_6 
REMARK    2  A    between atoms: C4_6  and  C5_7 
REMARK    3  A    between atoms: C8_10  and  N3_11 
REMARK       I    between atoms: N3_11  and  C9_12 
REMARK    4  A    between atoms: C9_12  and  C10_14 
ROOT
HETATM    1  N3  UNL     1      21.608   0.555  53.169  1.00  0.00    -0.323 N 
HETATM    2  C9  UNL     1      22.841  -0.116  53.222  1.00  0.00     0.255 C 
HETATM    3  O1  UNL     1      22.661  -1.345  52.929  1.00  0.00    -0.268 OA
HETATM    4  H12 UNL     1      21.703   1.566  53.401  1.00  0.00     0.169 HD
ENDROOT
BRANCH   1   5
HETATM    5  C8  UNL     1      20.304   0.113  52.864  1.00  0.00     0.035 A 
HETATM    6  C7  UNL     1      19.480  -0.696  53.596  1.00  0.00     0.030 A 
HETATM    7  C6  UNL     1      18.228  -1.086  53.244  1.00  0.00     0.011 A 
HETATM    8  C5  UNL     1      17.734  -0.636  52.051  1.00  0.00    -0.030 A 
HETATM    9  C18 UNL     1      18.482   0.181  51.243  1.00  0.00     0.011 A 
HETATM   10  C17 UNL     1      19.738   0.536  51.658  1.00  0.00     0.030 A 
BRANCH   8  11
HETATM   11  C4  UNL     1      16.381  -1.021  51.605  1.00  0.00     0.311 C 
BRANCH  11  12
HETATM   12  N2  UNL     1      15.646   0.152  51.256  1.00  0.00     0.096 N 
HETATM   13  C3  UNL     1      14.505  -0.051  50.419  1.00  0.00     0.303 C 
HETATM   14  C2  UNL     1      13.345  -0.679  51.136  1.00  0.00     0.302 C 
HETATM   15  N1  UNL     1      13.603  -0.941  52.540  1.00  0.00     0.087 N 
HETATM   16  C1  UNL     1      12.337  -1.269  53.157  1.00  0.00     0.310 C 
HETATM   17  C20 UNL     1      14.162   0.222  53.206  1.00  0.00     0.302 C 
HETATM   18  C19 UNL     1      15.213   0.914  52.406  1.00  0.00     0.303 C 
ENDBRANCH  11  12
ENDBRANCH   8  11
ENDBRANCH   1   5
BRANCH   2  19
HETATM   19  C10 UNL     1      24.192   0.403  53.550  1.00  0.00     0.049 C 
HETATM   20  C11 UNL     1      24.374   1.571  53.013  1.00  0.00     0.102 C 
HETATM   21  N4  UNL     1      25.293   2.621  52.865  1.00  0.00    -0.377 N 
HETATM   22  C12 UNL     1      25.985   3.100  51.718  1.00  0.00     0.110 C 
HETATM   23  H14 UNL     1      25.808   3.383  53.335  1.00  0.00     0.164 HD
HETATM   24  C13 UNL     1      26.583   2.158  51.007  1.00  0.00     0.017 C 
HETATM   25  C14 UNL     1      26.629   0.927  51.491  1.00  0.00    -0.009 C 
HETATM   26  P1  UNL     1      27.323   1.235  53.150  1.00  0.00    -0.084 P 
HETATM   27  C15 UNL     1      27.230  -0.264  54.213  1.00  0.00     0.202 C 
HETATM   28  H17 UNL     1      28.651   1.816  53.116  1.00  0.00     0.063 HD
HETATM   29  O2  UNL     1      26.088  -0.393  54.880  1.00  0.00    -0.382 OA
HETATM   30  C16 UNL     1      24.878  -0.578  54.402  1.00  0.00     0.213 C 
ENDBRANCH   2  19
TORSDOF 4
ENDMDL
MODEL 5
REMARK VINA RESULT:      -7.2      2.535      3.275
REMARK  4 active torsions:
REMARK  status: ('A' for Active; 'I' for Inactive)
REMARK    1  A    between atoms: N2_5  and  C4_6 
REMARK    2  A    between atoms: C4_6  and  C5_7 
REMARK    3  A    between atoms: C8_10  and  N3_11 
REMARK       I    between atoms: N3_11  and  C9_12 
REMARK    4  A    between atoms: C9_12  and  C10_14 
ROOT
HETATM    1  N3  UNL     1      24.804   4.930  50.564  1.00  0.00    -0.323 N 
HETATM    2  C9  UNL     1      23.526   4.478  50.197  1.00  0.00     0.255 C 
HETATM    3  O1  UNL     1      23.386   4.604  48.934  1.00  0.00    -0.268 OA
HETATM    4  H12 UNL     1      24.968   4.847  51.590  1.00  0.00     0.169 HD
ENDROOT
BRANCH   1   5
HETATM    5  C8  UNL     1      25.872   5.461  49.811  1.00  0.00     0.035 A 
HETATM    6  C7  UNL     1      26.156   6.769  49.529  1.00  0.00     0.030 A 
HETATM    7  C6  UNL     1      27.206   7.215  48.794  1.00  0.00     0.011 A 
HETATM    8  C5  UNL     1      28.066   6.283  48.283  1.00  0.00    -0.030 A 
HETATM    9  C18 UNL     1      27.870   4.946  48.509  1.00  0.00     0.011 A 
HETATM   10  C17 UNL     1      26.789   4.563  49.259  1.00  0.00     0.030 A 
BRANCH   8  11
HETATM   11  C4  UNL     1      29.229   6.698  47.474  1.00  0.00     0.311 C 
BRANCH  11  12
HETATM   12  N2  UNL     1      30.160   7.392  48.304  1.00  0.00     0.096 N 
HETATM   13  C3  UNL     1      31.142   6.583  48.954  1.00  0.00     0.303 C 
HETATM   14  C2  UNL     1      32.206   6.075  48.024  1.00  0.00     0.302 C 
HETATM   15  N1  UNL     1      32.037   6.519  46.653  1.00  0.00     0.087 N 
HETATM   16  C1  UNL     1      33.258   6.204  45.945  1.00  0.00     0.310 C 
HETATM   17  C20 UNL     1      31.810   7.951  46.579  1.00  0.00     0.302 C 
HETATM   18  C19 UNL     1      30.857   8.453  47.611  1.00  0.00     0.303 C 
ENDBRANCH  11  12
ENDBRANCH   8  11
ENDBRANCH   1   5
BRANCH   2  19
HETATM   19  C10 UNL     1      22.435   3.925  51.037  1.00  0.00     0.049 C 
HETATM   20  C11 UNL     1      22.857   2.899  51.713  1.00  0.00     0.102 C 
HETATM   21  N4  UNL     1      22.477   1.918  52.641  1.00  0.00    -0.377 N 
HETATM   22  C12 UNL     1      22.348   0.508  52.506  1.00  0.00     0.110 C 
HETATM   23  H14 UNL     1      22.181   1.723  53.611  1.00  0.00     0.164 HD
HETATM   24  C13 UNL     1      21.652   0.119  51.450  1.00  0.00     0.017 C 
HETATM   25  C14 UNL     1      21.019   1.034  50.733  1.00  0.00    -0.009 C 
HETATM   26  P1  UNL     1      20.078   1.900  52.034  1.00  0.00    -0.084 P 
HETATM   27  C15 UNL     1      19.313   3.448  51.400  1.00  0.00     0.202 C 
HETATM   28  H17 UNL     1      19.127   1.044  52.717  1.00  0.00     0.063 HD
HETATM   29  O2  UNL     1      20.099   4.517  51.470  1.00  0.00    -0.382 OA
HETATM   30  C16 UNL     1      21.231   4.741  50.840  1.00  0.00     0.213 C 
ENDBRANCH   2  19
TORSDOF 4
ENDMDL
MODEL 6
REMARK VINA RESULT:      -7.2      4.899      9.968
REMARK  4 active torsions:
REMARK  status: ('A' for Active; 'I' for Inactive)
REMARK    1  A    between atoms: N2_5  and  C4_6 
REMARK    2  A    between atoms: C4_6  and  C5_7 
REMARK    3  A    between atoms: C8_10  and  N3_11 
REMARK       I    between atoms: N3_11  and  C9_12 
REMARK    4  A    between atoms: C9_12  and  C10_14 
ROOT
HETATM    1  N3  UNL     1      28.689   5.508  48.676  1.00  0.00    -0.323 N 
HETATM    2  C9  UNL     1      29.451   6.344  47.843  1.00  0.00     0.255 C 
HETATM    3  O1  UNL     1      28.664   7.056  47.133  1.00  0.00    -0.268 OA
HETATM    4  H12 UNL     1      29.288   4.905  49.277  1.00  0.00     0.169 HD
ENDROOT
BRANCH   1   5
HETATM    5  C8  UNL     1      27.296   5.347  48.836  1.00  0.00     0.035 A 
HETATM    6  C7  UNL     1      26.297   6.254  48.610  1.00  0.00     0.030 A 
HETATM    7  C6  UNL     1      24.969   6.034  48.785  1.00  0.00     0.011 A 
HETATM    8  C5  UNL     1      24.581   4.799  49.224  1.00  0.00    -0.030 A 
HETATM    9  C18 UNL     1      25.506   3.820  49.479  1.00  0.00     0.011 A 
HETATM   10  C17 UNL     1      26.831   4.108  49.283  1.00  0.00     0.030 A 
BRANCH   8  11
HETATM   11  C4  UNL     1      23.153   4.491  49.436  1.00  0.00     0.311 C 
BRANCH  11  12
HETATM   12  N2  UNL     1      22.551   5.537  50.199  1.00  0.00     0.096 N 
HETATM   13  C3  UNL     1      21.138   5.684  50.051  1.00  0.00     0.303 C 
HETATM   14  C2  UNL     1      20.352   4.604  50.736  1.00  0.00     0.302 C 
HETATM   15  N1  UNL     1      21.180   3.633  51.426  1.00  0.00     0.087 N 
HETATM   16  C1  UNL     1      20.307   2.837  52.261  1.00  0.00     0.310 C 
HETATM   17  C20 UNL     1      22.171   4.279  52.268  1.00  0.00     0.302 C 
HETATM   18  C19 UNL     1      22.835   5.443  51.614  1.00  0.00     0.303 C 
ENDBRANCH  11  12
ENDBRANCH   8  11
ENDBRANCH   1   5
BRANCH   2  19
HETATM   19  C10 UNL     1      30.923   6.473  47.716  1.00  0.00     0.049 C 
HETATM   20  C11 UNL     1      31.243   6.880  46.525  1.00  0.00     0.102 C 
HETATM   21  N4  UNL     1      32.321   7.215  45.692  1.00  0.00    -0.377 N 
HETATM   22  C12 UNL     1      32.822   6.586  44.518  1.00  0.00     0.110 C 
HETATM   23  H14 UNL     1      33.094   7.876  45.512  1.00  0.00     0.164 HD
HETATM   24  C13 UNL     1      33.005   5.280  44.632  1.00  0.00     0.017 C 
HETATM   25  C14 UNL     1      32.874   4.720  45.824  1.00  0.00    -0.009 C 
HETATM   26  P1  UNL     1      33.983   5.770  46.822  1.00  0.00    -0.084 P 
HETATM   27  C15 UNL     1      33.791   5.440  48.621  1.00  0.00     0.202 C 
HETATM   28  H17 UNL     1      35.365   5.717  46.386  1.00  0.00     0.063 HD
HETATM   29  O2  UNL     1      32.836   6.151  49.211  1.00  0.00    -0.382 OA
HETATM   30  C16 UNL     1      31.539   6.113  48.999  1.00  0.00     0.213 C 
ENDBRANCH   2  19
TORSDOF 4
ENDMDL
MODEL 7
REMARK VINA RESULT:      -7.1      4.210     10.146
REMARK  4 active torsions:
REMARK  status: ('A' for Active; 'I' for Inactive)
REMARK    1  A    between atoms: N2_5  and  C4_6 
REMARK    2  A    between atoms: C4_6  and  C5_7 
REMARK    3  A    between atoms: C8_10  and  N3_11 
REMARK       I    between atoms: N3_11  and  C9_12 
REMARK    4  A    between atoms: C9_12  and  C10_14 
ROOT
HETATM    1  N3  UNL     1      27.911   5.788  48.939  1.00  0.00    -0.323 N 
HETATM    2  C9  UNL     1      28.144   6.864  48.066  1.00  0.00     0.255 C 
HETATM    3  O1  UNL     1      27.031   7.255  47.579  1.00  0.00    -0.268 OA
HETATM    4  H12 UNL     1      28.793   5.432  49.364  1.00  0.00     0.169 HD
ENDROOT
BRANCH   1   5
HETATM    5  C8  UNL     1      26.728   5.127  49.330  1.00  0.00     0.035 A 
HETATM    6  C7  UNL     1      25.516   5.664  49.665  1.00  0.00     0.030 A 
HETATM    7  C6  UNL     1      24.411   4.967  50.034  1.00  0.00     0.011 A 
HETATM    8  C5  UNL     1      24.504   3.604  50.077  1.00  0.00    -0.030 A 
HETATM    9  C18 UNL     1      25.676   2.968  49.759  1.00  0.00     0.011 A 
HETATM   10  C17 UNL     1      26.754   3.731  49.396  1.00  0.00     0.030 A 
BRANCH   8  11
HETATM   11  C4  UNL     1      23.341   2.784  50.470  1.00  0.00     0.311 C 
BRANCH  11  12
HETATM   12  N2  UNL     1      22.858   3.225  51.739  1.00  0.00     0.096 N 
HETATM   13  C3  UNL     1      21.534   2.809  52.082  1.00  0.00     0.303 C 
HETATM   14  C2  UNL     1      21.443   1.355  52.447  1.00  0.00     0.302 C 
HETATM   15  N1  UNL     1      22.717   0.663  52.395  1.00  0.00     0.087 N 
HETATM   16  C1  UNL     1      22.535  -0.623  53.032  1.00  0.00     0.310 C 
HETATM   17  C20 UNL     1      23.751   1.395  53.103  1.00  0.00     0.302 C 
HETATM   18  C19 UNL     1      23.728   2.862  52.835  1.00  0.00     0.303 C 
ENDBRANCH  11  12
ENDBRANCH   8  11
ENDBRANCH   1   5
BRANCH   2  19
HETATM   19  C10 UNL     1      29.419   7.524  47.690  1.00  0.00     0.049 C 
HETATM   20  C11 UNL     1      30.318   6.638  47.387  1.00  0.00     0.102 C 
HETATM   21  N4  UNL     1      31.648   6.467  46.972  1.00  0.00    -0.377 N 
HETATM   22  C12 UNL     1      32.769   5.907  47.644  1.00  0.00     0.110 C 
HETATM   23  H14 UNL     1      32.332   6.598  46.211  1.00  0.00     0.164 HD
HETATM   24  C13 UNL     1      32.959   6.368  48.871  1.00  0.00     0.017 C 
HETATM   25  C14 UNL     1      32.227   7.388  49.288  1.00  0.00    -0.009 C 
HETATM   26  P1  UNL     1      32.497   8.582  47.935  1.00  0.00    -0.084 P 
HETATM   27  C15 UNL     1      31.355  10.019  48.062  1.00  0.00     0.202 C 
HETATM   28  H17 UNL     1      33.884   8.980  47.792  1.00  0.00     0.063 HD
HETATM   29  O2  UNL     1      30.180   9.841  47.466  1.00  0.00    -0.382 OA
HETATM   30  C16 UNL     1      29.234   8.979  47.766  1.00  0.00     0.213 C 
ENDBRANCH   2  19
TORSDOF 4
ENDMDL
MODEL 8
REMARK VINA RESULT:      -7.1      4.144     10.195
REMARK  4 active torsions:
REMARK  status: ('A' for Active; 'I' for Inactive)
REMARK    1  A    between atoms: N2_5  and  C4_6 
REMARK    2  A    between atoms: C4_6  and  C5_7 
REMARK    3  A    between atoms: C8_10  and  N3_11 
REMARK       I    between atoms: N3_11  and  C9_12 
REMARK    4  A    between atoms: C9_12  and  C10_14 
ROOT
HETATM    1  N3  UNL     1      27.372   6.786  48.397  1.00  0.00    -0.323 N 
HETATM    2  C9  UNL     1      27.713   8.041  48.927  1.00  0.00     0.255 C 
HETATM    3  O1  UNL     1      26.977   8.279  49.943  1.00  0.00    -0.268 OA
HETATM    4  H12 UNL     1      27.948   6.546  47.562  1.00  0.00     0.169 HD
ENDROOT
BRANCH   1   5
HETATM    5  C8  UNL     1      26.417   5.823  48.785  1.00  0.00     0.035 A 
HETATM    6  C7  UNL     1      25.053   5.920  48.785  1.00  0.00     0.030 A 
HETATM    7  C6  UNL     1      24.187   4.950  49.173  1.00  0.00     0.011 A 
HETATM    8  C5  UNL     1      24.711   3.764  49.605  1.00  0.00    -0.030 A 
HETATM    9  C18 UNL     1      26.067   3.566  49.642  1.00  0.00     0.011 A 
HETATM   10  C17 UNL     1      26.886   4.587  49.237  1.00  0.00     0.030 A 
BRANCH   8  11
HETATM   11  C4  UNL     1      23.827   2.666  50.042  1.00  0.00     0.311 C 
BRANCH  11  12
HETATM   12  N2  UNL     1      23.020   3.112  51.132  1.00  0.00     0.096 N 
HETATM   13  C3  UNL     1      21.903   2.285  51.463  1.00  0.00     0.303 C 
HETATM   14  C2  UNL     1      22.292   1.007  52.150  1.00  0.00     0.302 C 
HETATM   15  N1  UNL     1      23.721   0.872  52.357  1.00  0.00     0.087 N 
HETATM   16  C1  UNL     1      23.922  -0.238  53.263  1.00  0.00     0.310 C 
HETATM   17  C20 UNL     1      24.291   2.068  52.950  1.00  0.00     0.302 C 
HETATM   18  C19 UNL     1      23.777   3.331  52.345  1.00  0.00     0.303 C 
ENDBRANCH  11  12
ENDBRANCH   8  11
ENDBRANCH   1   5
BRANCH   2  19
HETATM   19  C10 UNL     1      28.733   9.019  48.476  1.00  0.00     0.049 C 
HETATM   20  C11 UNL     1      28.612  10.136  49.128  1.00  0.00     0.102 C 
HETATM   21  N4  UNL     1      29.142  11.427  49.273  1.00  0.00    -0.377 N 
HETATM   22  C12 UNL     1      28.582  12.702  48.982  1.00  0.00     0.110 C 
HETATM   23  H14 UNL     1      29.951  11.995  49.572  1.00  0.00     0.164 HD
HETATM   24  C13 UNL     1      28.040  12.801  47.778  1.00  0.00     0.017 C 
HETATM   25  C14 UNL     1      28.205  11.806  46.922  1.00  0.00    -0.009 C 
HETATM   26  P1  UNL     1      30.019  11.612  46.967  1.00  0.00    -0.084 P 
HETATM   27  C15 UNL     1      30.558  10.082  46.099  1.00  0.00     0.202 C 
HETATM   28  H17 UNL     1      30.731  12.792  46.516  1.00  0.00     0.063 HD
HETATM   29  O2  UNL     1      30.576   8.995  46.863  1.00  0.00    -0.382 OA
HETATM   30  C16 UNL     1      29.565   8.388  47.444  1.00  0.00     0.213 C 
ENDBRANCH   2  19
TORSDOF 4
ENDMDL
MODEL 9
REMARK VINA RESULT:      -7.1      2.739      3.855
REMARK  4 active torsions:
REMARK  status: ('A' for Active; 'I' for Inactive)
REMARK    1  A    between atoms: N2_5  and  C4_6 
REMARK    2  A    between atoms: C4_6  and  C5_7 
REMARK    3  A    between atoms: C8_10  and  N3_11 
REMARK       I    between atoms: N3_11  and  C9_12 
REMARK    4  A    between atoms: C9_12  and  C10_14 
ROOT
HETATM    1  N3  UNL     1      25.136   3.690  50.620  1.00  0.00    -0.323 N 
HETATM    2  C9  UNL     1      24.506   3.524  51.864  1.00  0.00     0.255 C 
HETATM    3  O1  UNL     1      23.854   4.584  52.147  1.00  0.00    -0.268 OA
HETATM    4  H12 UNL     1      25.683   2.848  50.344  1.00  0.00     0.169 HD
ENDROOT
BRANCH   1   5
HETATM    5  C8  UNL     1      25.156   4.765  49.706  1.00  0.00     0.035 A 
HETATM    6  C7  UNL     1      24.105   5.379  49.081  1.00  0.00     0.030 A 
HETATM    7  C6  UNL     1      24.194   6.414  48.208  1.00  0.00     0.011 A 
HETATM    8  C5  UNL     1      25.439   6.898  47.919  1.00  0.00    -0.030 A 
HETATM    9  C18 UNL     1      26.557   6.352  48.494  1.00  0.00     0.011 A 
HETATM   10  C17 UNL     1      26.397   5.307  49.366  1.00  0.00     0.030 A 
BRANCH   8  11
HETATM   11  C4  UNL     1      25.609   8.022  46.977  1.00  0.00     0.311 C 
BRANCH  11  12
HETATM   12  N2  UNL     1      24.643   9.032  47.268  1.00  0.00     0.096 N 
HETATM   13  C3  UNL     1      25.062  10.055  48.174  1.00  0.00     0.303 C 
HETATM   14  C2  UNL     1      26.034  11.025  47.569  1.00  0.00     0.302 C 
HETATM   15  N1  UNL     1      26.345  10.745  46.180  1.00  0.00     0.087 N 
HETATM   16  C1  UNL     1      27.048  11.895  45.655  1.00  0.00     0.310 C 
HETATM   17  C20 UNL     1      25.142  10.534  45.396  1.00  0.00     0.302 C 
HETATM   18  C19 UNL     1      24.129   9.683  46.083  1.00  0.00     0.303 C 
ENDBRANCH  11  12
ENDBRANCH   8  11
ENDBRANCH   1   5
BRANCH   2  19
HETATM   19  C10 UNL     1      24.518   2.364  52.789  1.00  0.00     0.049 C 
HETATM   20  C11 UNL     1      25.664   2.278  53.395  1.00  0.00     0.102 C 
HETATM   21  N4  UNL     1      26.400   1.533  54.329  1.00  0.00    -0.377 N 
HETATM   22  C12 UNL     1      27.559   0.725  54.171  1.00  0.00     0.110 C 
HETATM   23  H14 UNL     1      26.494   1.248  55.317  1.00  0.00     0.164 HD
HETATM   24  C13 UNL     1      27.489  -0.144  53.175  1.00  0.00     0.017 C 
HETATM   25  C14 UNL     1      26.336  -0.299  52.545  1.00  0.00    -0.009 C 
HETATM   26  P1  UNL     1      25.215  -0.606  53.951  1.00  0.00    -0.084 P 
HETATM   27  C15 UNL     1      23.450  -0.561  53.432  1.00  0.00     0.202 C 
HETATM   28  H17 UNL     1      25.549  -1.802  54.698  1.00  0.00     0.063 HD
HETATM   29  O2  UNL     1      22.902   0.649  53.455  1.00  0.00    -0.382 OA
HETATM   30  C16 UNL     1      23.210   1.700  52.728  1.00  0.00     0.213 C 
ENDBRANCH   2  19
TORSDOF 4
ENDMDL
