MODEL 1
REMARK VINA RESULT:      -8.4      0.000      0.000
REMARK  3 active torsions:
REMARK  status: ('A' for Active; 'I' for Inactive)
REMARK    1  A    between atoms: C2_2  and  C3_3 
REMARK    2  A    between atoms: C7_10  and  O1_11 
REMARK    3  A    between atoms: C15_20  and  C16_22 
ROOT
HETATM    1  C3  UNL     1      22.439   2.498  49.802  1.00  0.00     0.031 C 
HETATM    2  N1  UNL     1      23.152   2.710  50.845  1.00  0.00    -0.279 NA
HETATM    3  C4  UNL     1      24.482   3.318  50.748  1.00  0.00     0.253 C 
HETATM    4  N2  UNL     1      25.086   3.427  52.057  1.00  0.00    -0.242 NA
HETATM    5  N3  UNL     1      25.305   2.189  52.643  1.00  0.00    -0.259 NA
HETATM    6  C5  UNL     1      26.222   2.372  53.766  1.00  0.00     0.111 C 
HETATM    7  C6  UNL     1      26.454   1.041  54.454  1.00  0.00     0.080 C 
HETATM    8  C7  UNL     1      27.213   0.079  53.582  1.00  0.00     0.055 C 
HETATM    9  C9  UNL     1      26.455  -0.913  53.063  1.00  0.00     0.099 C 
HETATM   10  C10 UNL     1      25.097  -0.904  53.391  1.00  0.00    -0.045 C 
HETATM   11  C11 UNL     1      24.011  -0.897  53.640  1.00  0.00     0.064 C 
HETATM   12  O2  UNL     1      22.645  -0.866  53.942  1.00  0.00    -0.273 OA
HETATM   13  C12 UNL     1      21.937   0.105  53.111  1.00  0.00     0.157 C 
HETATM   14  C13 UNL     1      20.656  -0.368  53.054  1.00  0.00     0.056 C 
HETATM   15  C14 UNL     1      19.329  -0.081  52.479  1.00  0.00     0.052 C 
HETATM   16  C15 UNL     1      18.083  -0.476  52.390  1.00  0.00     0.046 C 
HETATM   17 CL1  UNL     1      18.027  -1.929  53.385  1.00  0.00    -0.086 Cl
HETATM   18  N4  UNL     1      19.678   1.157  51.807  1.00  0.00    -0.365 N 
HETATM   19  C18 UNL     1      20.211   1.486  50.549  1.00  0.00     0.090 C 
HETATM   20  C19 UNL     1      21.103   1.935  49.700  1.00  0.00     0.044 C 
HETATM   21  H8  UNL     1      24.668   4.130  52.670  1.00  0.00     0.142 HD
HETATM   22  H9  UNL     1      25.753   1.540  51.966  1.00  0.00     0.140 HD
HETATM   23  H22 UNL     1      19.417   1.899  52.524  1.00  0.00     0.165 HD
ENDROOT
BRANCH  16  24
HETATM   24  C16 UNL     1      17.285   0.341  51.500  1.00  0.00     0.145 C 
HETATM   25  C17 UNL     1      16.175   0.198  52.278  1.00  0.00     0.367 C 
HETATM   26  F1  UNL     1      15.430  -0.226  53.326  1.00  0.00    -0.461 F 
ENDBRANCH  16  24
BRANCH   1  27
HETATM   27  C2  UNL     1      23.066   2.908  48.502  1.00  0.00     0.054 C 
HETATM   28  C1  UNL     1      22.301   2.344  47.330  1.00  0.00     0.011 C 
ENDBRANCH   1  27
BRANCH   8  29
HETATM   29  O1  UNL     1      28.504  -0.075  53.144  1.00  0.00    -0.360 OA
HETATM   30  C8  UNL     1      29.396  -0.957  53.759  1.00  0.00     0.209 C 
ENDBRANCH   8  29
TORSDOF 3
ENDMDL
MODEL 2
REMARK VINA RESULT:      -8.0      4.031      7.734
REMARK  3 active torsions:
REMARK  status: ('A' for Active; 'I' for Inactive)
REMARK    1  A    between atoms: C2_2  and  C3_3 
REMARK    2  A    between atoms: C7_10  and  O1_11 
REMARK    3  A    between atoms: C15_20  and  C16_22 
ROOT
HETATM    1  C3  UNL     1      25.090   3.872  49.577  1.00  0.00     0.031 C 
HETATM    2  N1  UNL     1      24.118   3.084  49.302  1.00  0.00    -0.279 NA
HETATM    3  C4  UNL     1      23.059   3.476  48.367  1.00  0.00     0.253 C 
HETATM    4  N2  UNL     1      22.074   2.425  48.248  1.00  0.00    -0.242 NA
HETATM    5  N3  UNL     1      21.416   2.178  49.444  1.00  0.00    -0.259 NA
HETATM    6  C5  UNL     1      20.224   1.384  49.154  1.00  0.00     0.111 C 
HETATM    7  C6  UNL     1      19.500   1.065  50.447  1.00  0.00     0.080 C 
HETATM    8  C7  UNL     1      18.912   2.293  51.084  1.00  0.00     0.055 C 
HETATM    9  C9  UNL     1      19.583   2.725  52.175  1.00  0.00     0.099 C 
HETATM   10  C10 UNL     1      20.713   1.994  52.549  1.00  0.00    -0.045 C 
HETATM   11  C11 UNL     1      21.621   1.421  52.847  1.00  0.00     0.064 C 
HETATM   12  O2  UNL     1      22.772   0.708  53.198  1.00  0.00    -0.273 OA
HETATM   13  C12 UNL     1      23.908   1.080  52.358  1.00  0.00     0.157 C 
HETATM   14  C13 UNL     1      25.003   0.821  53.133  1.00  0.00     0.056 C 
HETATM   15  C14 UNL     1      26.476   0.889  53.135  1.00  0.00     0.052 C 
HETATM   16  C15 UNL     1      27.566   0.657  53.824  1.00  0.00     0.046 C 
HETATM   17 CL1  UNL     1      26.974  -0.017  55.341  1.00  0.00    -0.086 Cl
HETATM   18  N4  UNL     1      26.644   1.394  51.784  1.00  0.00    -0.365 N 
HETATM   19  C18 UNL     1      26.661   2.670  51.199  1.00  0.00     0.090 C 
HETATM   20  C19 UNL     1      26.232   3.655  50.448  1.00  0.00     0.044 C 
HETATM   21  H8  UNL     1      22.387   1.592  47.745  1.00  0.00     0.142 HD
HETATM   22  H9  UNL     1      21.109   3.070  49.881  1.00  0.00     0.140 HD
HETATM   23  H22 UNL     1      26.786   0.506  51.216  1.00  0.00     0.165 HD
ENDROOT
BRANCH  16  24
HETATM   24  C16 UNL     1      28.773   1.084  53.148  1.00  0.00     0.145 C 
HETATM   25  C17 UNL     1      29.452  -0.030  53.541  1.00  0.00     0.367 C 
HETATM   26  F1  UNL     1      29.647  -1.225  54.148  1.00  0.00    -0.461 F 
ENDBRANCH  16  24
BRANCH   1  27
HETATM   27  C2  UNL     1      25.052   5.203  48.884  1.00  0.00     0.054 C 
HETATM   28  C1  UNL     1      26.423   5.829  48.838  1.00  0.00     0.011 C 
ENDBRANCH   1  27
BRANCH   8  29
HETATM   29  O1  UNL     1      17.851   3.133  50.855  1.00  0.00    -0.360 OA
HETATM   30  C8  UNL     1      18.013   4.387  50.262  1.00  0.00     0.209 C 
ENDBRANCH   8  29
TORSDOF 3
ENDMDL
MODEL 3
REMARK VINA RESULT:      -8.0      3.555      5.804
REMARK  3 active torsions:
REMARK  status: ('A' for Active; 'I' for Inactive)
REMARK    1  A    between atoms: C2_2  and  C3_3 
REMARK    2  A    between atoms: C7_10  and  O1_11 
REMARK    3  A    between atoms: C15_20  and  C16_22 
ROOT
HETATM    1  C3  UNL     1      25.126   1.720  52.843  1.00  0.00     0.031 C 
HETATM    2  N1  UNL     1      25.460   2.303  51.753  1.00  0.00    -0.279 NA
HETATM    3  C4  UNL     1      26.830   2.774  51.529  1.00  0.00     0.253 C 
HETATM    4  N2  UNL     1      26.941   3.416  50.238  1.00  0.00    -0.242 NA
HETATM    5  N3  UNL     1      26.156   4.555  50.144  1.00  0.00    -0.259 NA
HETATM    6  C5  UNL     1      26.595   5.318  48.978  1.00  0.00     0.111 C 
HETATM    7  C6  UNL     1      25.731   6.554  48.824  1.00  0.00     0.080 C 
HETATM    8  C7  UNL     1      25.949   7.537  49.941  1.00  0.00     0.055 C 
HETATM    9  C9  UNL     1      24.940   7.581  50.842  1.00  0.00     0.099 C 
HETATM   10  C10 UNL     1      23.863   6.719  50.623  1.00  0.00    -0.045 C 
HETATM   11  C11 UNL     1      23.005   6.027  50.460  1.00  0.00     0.064 C 
HETATM   12  O2  UNL     1      21.944   5.138  50.258  1.00  0.00    -0.273 OA
HETATM   13  C12 UNL     1      22.283   3.791  50.709  1.00  0.00     0.157 C 
HETATM   14  C13 UNL     1      21.079   3.225  51.021  1.00  0.00     0.056 C 
HETATM   15  C14 UNL     1      20.468   1.984  51.533  1.00  0.00     0.052 C 
HETATM   16  C15 UNL     1      19.347   1.381  51.843  1.00  0.00     0.046 C 
HETATM   17 CL1  UNL     1      18.106   2.574  51.469  1.00  0.00    -0.086 Cl
HETATM   18  N4  UNL     1      21.691   1.214  51.669  1.00  0.00    -0.365 N 
HETATM   19  C18 UNL     1      22.660   1.063  52.675  1.00  0.00     0.090 C 
HETATM   20  C19 UNL     1      23.840   1.168  53.234  1.00  0.00     0.044 C 
HETATM   21  H8  UNL     1      26.889   2.785  49.434  1.00  0.00     0.142 HD
HETATM   22  H9  UNL     1      26.282   5.154  50.985  1.00  0.00     0.140 HD
HETATM   23  H22 UNL     1      21.745   0.688  50.745  1.00  0.00     0.165 HD
ENDROOT
BRANCH  16  24
HETATM   24  C16 UNL     1      19.543   0.064  52.413  1.00  0.00     0.145 C 
HETATM   25  C17 UNL     1      18.419  -0.421  51.814  1.00  0.00     0.367 C 
HETATM   26  F1  UNL     1      17.304  -0.399  51.047  1.00  0.00    -0.461 F 
ENDBRANCH  16  24
BRANCH   1  27
HETATM   27  C2  UNL     1      26.226   1.567  53.852  1.00  0.00     0.054 C 
HETATM   28  C1  UNL     1      26.201   0.195  54.478  1.00  0.00     0.011 C 
ENDBRANCH   1  27
BRANCH   8  29
HETATM   29  O1  UNL     1      26.920   8.427  50.321  1.00  0.00    -0.360 OA
HETATM   30  C8  UNL     1      27.908   8.869  49.436  1.00  0.00     0.209 C 
ENDBRANCH   8  29
TORSDOF 3
ENDMDL
MODEL 4
REMARK VINA RESULT:      -7.8      4.243      6.371
REMARK  3 active torsions:
REMARK  status: ('A' for Active; 'I' for Inactive)
REMARK    1  A    between atoms: C2_2  and  C3_3 
REMARK    2  A    between atoms: C7_10  and  O1_11 
REMARK    3  A    between atoms: C15_20  and  C16_22 
ROOT
HETATM    1  C3  UNL     1      20.546   3.862  51.039  1.00  0.00     0.031 C 
HETATM    2  N1  UNL     1      21.351   4.823  51.300  1.00  0.00    -0.279 NA
HETATM    3  C4  UNL     1      21.115   6.175  50.785  1.00  0.00     0.253 C 
HETATM    4  N2  UNL     1      22.176   7.066  51.199  1.00  0.00    -0.242 NA
HETATM    5  N3  UNL     1      23.408   6.701  50.678  1.00  0.00    -0.259 NA
HETATM    6  C5  UNL     1      24.326   7.826  50.841  1.00  0.00     0.111 C 
HETATM    7  C6  UNL     1      25.695   7.446  50.315  1.00  0.00     0.080 C 
HETATM    8  C7  UNL     1      25.694   7.256  48.823  1.00  0.00     0.055 C 
HETATM    9  C9  UNL     1      25.759   5.964  48.431  1.00  0.00     0.099 C 
HETATM   10  C10 UNL     1      25.806   5.001  49.442  1.00  0.00    -0.045 C 
HETATM   11  C11 UNL     1      25.834   4.227  50.243  1.00  0.00     0.064 C 
HETATM   12  O2  UNL     1      25.846   3.263  51.257  1.00  0.00    -0.273 OA
HETATM   13  C12 UNL     1      24.505   3.030  51.788  1.00  0.00     0.157 C 
HETATM   14  C13 UNL     1      24.547   1.750  52.265  1.00  0.00     0.056 C 
HETATM   15  C14 UNL     1      23.720   0.720  52.921  1.00  0.00     0.052 C 
HETATM   16  C15 UNL     1      23.696  -0.498  53.404  1.00  0.00     0.046 C 
HETATM   17 CL1  UNL     1      25.337  -1.087  53.151  1.00  0.00    -0.086 Cl
HETATM   18  N4  UNL     1      22.506   1.506  53.050  1.00  0.00    -0.365 N 
HETATM   19  C18 UNL     1      21.399   1.761  52.223  1.00  0.00     0.090 C 
HETATM   20  C19 UNL     1      20.597   2.476  51.473  1.00  0.00     0.044 C 
HETATM   21  H8  UNL     1      22.178   7.306  52.194  1.00  0.00     0.142 HD
HETATM   22  H9  UNL     1      23.327   6.497  49.662  1.00  0.00     0.140 HD
HETATM   23  H22 UNL     1      22.591   1.917  54.027  1.00  0.00     0.165 HD
ENDROOT
BRANCH  16  24
HETATM   24  C16 UNL     1      22.386  -0.904  53.869  1.00  0.00     0.145 C 
HETATM   25  C17 UNL     1      22.863  -1.214  55.107  1.00  0.00     0.367 C 
HETATM   26  F1  UNL     1      23.779  -1.353  56.094  1.00  0.00    -0.461 F 
ENDBRANCH  16  24
BRANCH   1  27
HETATM   27  C2  UNL     1      19.371   4.224  50.179  1.00  0.00     0.054 C 
HETATM   28  C1  UNL     1      18.073   4.005  50.914  1.00  0.00     0.011 C 
ENDBRANCH   1  27
BRANCH   8  29
HETATM   29  O1  UNL     1      25.636   8.055  47.710  1.00  0.00    -0.360 OA
HETATM   30  C8  UNL     1      24.459   8.217  46.974  1.00  0.00     0.209 C 
ENDBRANCH   8  29
TORSDOF 3
ENDMDL
MODEL 5
REMARK VINA RESULT:      -7.4      4.242      7.942
REMARK  3 active torsions:
REMARK  status: ('A' for Active; 'I' for Inactive)
REMARK    1  A    between atoms: C2_2  and  C3_3 
REMARK    2  A    between atoms: C7_10  and  O1_11 
REMARK    3  A    between atoms: C15_20  and  C16_22 
ROOT
HETATM    1  C3  UNL     1      19.684   0.644  52.249  1.00  0.00     0.031 C 
HETATM    2  N1  UNL     1      19.653   1.875  51.899  1.00  0.00    -0.279 NA
HETATM    3  C4  UNL     1      18.415   2.501  51.424  1.00  0.00     0.253 C 
HETATM    4  N2  UNL     1      18.650   3.883  51.071  1.00  0.00    -0.242 NA
HETATM    5  N3  UNL     1      19.540   4.016  50.015  1.00  0.00    -0.259 NA
HETATM    6  C5  UNL     1      19.440   5.380  49.502  1.00  0.00     0.111 C 
HETATM    7  C6  UNL     1      20.429   5.570  48.369  1.00  0.00     0.080 C 
HETATM    8  C7  UNL     1      20.066   4.753  47.160  1.00  0.00     0.055 C 
HETATM    9  C9  UNL     1      20.853   3.669  46.969  1.00  0.00     0.099 C 
HETATM   10  C10 UNL     1      21.866   3.455  47.907  1.00  0.00    -0.045 C 
HETATM   11  C11 UNL     1      22.670   3.272  48.657  1.00  0.00     0.064 C 
HETATM   12  O2  UNL     1      23.662   3.041  49.616  1.00  0.00    -0.273 OA
HETATM   13  C12 UNL     1      23.107   2.422  50.818  1.00  0.00     0.157 C 
HETATM   14  C13 UNL     1      24.155   1.732  51.358  1.00  0.00     0.056 C 
HETATM   15  C14 UNL     1      24.520   0.856  52.487  1.00  0.00     0.052 C 
HETATM   16  C15 UNL     1      25.485   0.179  53.060  1.00  0.00     0.046 C 
HETATM   17 CL1  UNL     1      26.884   0.483  52.034  1.00  0.00    -0.086 Cl
HETATM   18  N4  UNL     1      23.230   0.859  53.153  1.00  0.00    -0.365 N 
HETATM   19  C18 UNL     1      22.055   0.097  53.040  1.00  0.00     0.090 C 
HETATM   20  C19 UNL     1      20.796  -0.139  52.762  1.00  0.00     0.044 C 
HETATM   21  H8  UNL     1      18.817   4.511  51.861  1.00  0.00     0.142 HD
HETATM   22  H9  UNL     1      19.290   3.364  49.245  1.00  0.00     0.140 HD
HETATM   23  H22 UNL     1      23.330   1.646  53.862  1.00  0.00     0.165 HD
ENDROOT
BRANCH  16  24
HETATM   24  C16 UNL     1      25.046  -0.579  54.214  1.00  0.00     0.145 C 
HETATM   25  C17 UNL     1      26.130  -0.195  54.945  1.00  0.00     0.367 C 
HETATM   26  F1  UNL     1      27.296   0.439  55.212  1.00  0.00    -0.461 F 
ENDBRANCH  16  24
BRANCH   1  27
HETATM   27  C2  UNL     1      18.381  -0.091  52.130  1.00  0.00     0.054 C 
HETATM   28  C1  UNL     1      18.251  -1.142  53.204  1.00  0.00     0.011 C 
ENDBRANCH   1  27
BRANCH   8  29
HETATM   29  O1  UNL     1      19.123   4.795  46.165  1.00  0.00    -0.360 OA
HETATM   30  C8  UNL     1      18.048   3.904  46.123  1.00  0.00     0.209 C 
ENDBRANCH   8  29
TORSDOF 3
ENDMDL
MODEL 6
REMARK VINA RESULT:      -7.3     10.532     13.751
REMARK  3 active torsions:
REMARK  status: ('A' for Active; 'I' for Inactive)
REMARK    1  A    between atoms: C2_2  and  C3_3 
REMARK    2  A    between atoms: C7_10  and  O1_11 
REMARK    3  A    between atoms: C15_20  and  C16_22 
ROOT
HETATM    1  C3  UNL     1      27.752   7.004  48.621  1.00  0.00     0.031 C 
HETATM    2  N1  UNL     1      28.178   8.153  48.991  1.00  0.00    -0.279 NA
HETATM    3  C4  UNL     1      27.255   9.201  49.437  1.00  0.00     0.253 C 
HETATM    4  N2  UNL     1      27.981  10.405  49.776  1.00  0.00    -0.242 NA
HETATM    5  N3  UNL     1      28.636  10.953  48.684  1.00  0.00    -0.259 NA
HETATM    6  C5  UNL     1      29.028  12.319  49.024  1.00  0.00     0.111 C 
HETATM    7  C6  UNL     1      29.781  12.936  47.862  1.00  0.00     0.080 C 
HETATM    8  C7  UNL     1      28.896  13.152  46.666  1.00  0.00     0.055 C 
HETATM    9  C9  UNL     1      29.105  12.275  45.658  1.00  0.00     0.099 C 
HETATM   10  C10 UNL     1      30.086  11.302  45.865  1.00  0.00    -0.045 C 
HETATM   11  C11 UNL     1      30.860  10.517  46.026  1.00  0.00     0.064 C 
HETATM   12  O2  UNL     1      31.818   9.522  46.249  1.00  0.00    -0.273 OA
HETATM   13  C12 UNL     1      31.283   8.441  47.074  1.00  0.00     0.157 C 
HETATM   14  C13 UNL     1      32.023   7.347  46.721  1.00  0.00     0.056 C 
HETATM   15  C14 UNL     1      32.184   5.908  46.994  1.00  0.00     0.052 C 
HETATM   16  C15 UNL     1      32.860   4.823  46.706  1.00  0.00     0.046 C 
HETATM   17 CL1  UNL     1      34.046   5.365  45.521  1.00  0.00    -0.086 Cl
HETATM   18  N4  UNL     1      31.159   5.794  48.016  1.00  0.00    -0.365 N 
HETATM   19  C18 UNL     1      29.774   5.561  48.008  1.00  0.00     0.090 C 
HETATM   20  C19 UNL     1      28.505   5.843  48.175  1.00  0.00     0.044 C 
HETATM   21  H8  UNL     1      28.536  10.350  50.633  1.00  0.00     0.142 HD
HETATM   22  H9  UNL     1      28.000  10.997  47.862  1.00  0.00     0.140 HD
HETATM   23  H22 UNL     1      31.707   5.925  48.919  1.00  0.00     0.165 HD
ENDROOT
BRANCH  16  24
HETATM   24  C16 UNL     1      32.361   3.641  47.377  1.00  0.00     0.145 C 
HETATM   25  C17 UNL     1      33.620   3.175  47.609  1.00  0.00     0.367 C 
HETATM   26  F1  UNL     1      34.974   3.170  47.588  1.00  0.00    -0.461 F 
ENDBRANCH  16  24
BRANCH   1  27
HETATM   27  C2  UNL     1      26.263   6.824  48.673  1.00  0.00     0.054 C 
HETATM   28  C1  UNL     1      25.901   5.411  49.057  1.00  0.00     0.011 C 
ENDBRANCH   1  27
BRANCH   8  29
HETATM   29  O1  UNL     1      27.895  14.016  46.301  1.00  0.00    -0.360 OA
HETATM   30  C8  UNL     1      27.821  15.319  46.800  1.00  0.00     0.209 C 
ENDBRANCH   8  29
TORSDOF 3
ENDMDL
MODEL 7
REMARK VINA RESULT:      -7.3      4.449      8.181
REMARK  3 active torsions:
REMARK  status: ('A' for Active; 'I' for Inactive)
REMARK    1  A    between atoms: C2_2  and  C3_3 
REMARK    2  A    between atoms: C7_10  and  O1_11 
REMARK    3  A    between atoms: C15_20  and  C16_22 
ROOT
HETATM    1  C3  UNL     1      22.062   0.193  53.206  1.00  0.00     0.031 C 
HETATM    2  N1  UNL     1      21.682   1.391  52.963  1.00  0.00    -0.279 NA
HETATM    3  C4  UNL     1      20.301   1.688  52.571  1.00  0.00     0.253 C 
HETATM    4  N2  UNL     1      20.136   3.104  52.331  1.00  0.00    -0.242 NA
HETATM    5  N3  UNL     1      20.908   3.555  51.272  1.00  0.00    -0.259 NA
HETATM    6  C5  UNL     1      20.419   4.875  50.878  1.00  0.00     0.111 C 
HETATM    7  C6  UNL     1      21.267   5.414  49.744  1.00  0.00     0.080 C 
HETATM    8  C7  UNL     1      21.086   4.623  48.478  1.00  0.00     0.055 C 
HETATM    9  C9  UNL     1      22.128   3.814  48.179  1.00  0.00     0.099 C 
HETATM   10  C10 UNL     1      23.202   3.816  49.072  1.00  0.00    -0.045 C 
HETATM   11  C11 UNL     1      24.059   3.804  49.785  1.00  0.00     0.064 C 
HETATM   12  O2  UNL     1      25.117   3.781  50.699  1.00  0.00    -0.273 OA
HETATM   13  C12 UNL     1      24.806   2.945  51.856  1.00  0.00     0.157 C 
HETATM   14  C13 UNL     1      26.025   2.529  52.312  1.00  0.00     0.056 C 
HETATM   15  C14 UNL     1      26.664   1.704  53.354  1.00  0.00     0.052 C 
HETATM   16  C15 UNL     1      27.800   1.276  53.846  1.00  0.00     0.046 C 
HETATM   17 CL1  UNL     1      29.018   2.028  52.818  1.00  0.00    -0.086 Cl
HETATM   18  N4  UNL     1      25.452   1.302  54.046  1.00  0.00    -0.365 N 
HETATM   19  C18 UNL     1      24.525   0.259  53.894  1.00  0.00     0.090 C 
HETATM   20  C19 UNL     1      23.366  -0.292  53.626  1.00  0.00     0.044 C 
HETATM   21  H8  UNL     1      20.161   3.692  53.169  1.00  0.00     0.142 HD
HETATM   22  H9  UNL     1      20.810   2.920  50.454  1.00  0.00     0.140 HD
HETATM   23  H22 UNL     1      25.367   2.031  54.817  1.00  0.00     0.165 HD
ENDROOT
BRANCH  16  24
HETATM   24  C16 UNL     1      27.636   0.341  54.940  1.00  0.00     0.145 C 
HETATM   25  C17 UNL     1      28.789  -0.314  54.624  1.00  0.00     0.367 C 
HETATM   26  F1  UNL     1      29.924  -0.584  53.937  1.00  0.00    -0.461 F 
ENDBRANCH  16  24
BRANCH   1  27
HETATM   27  C2  UNL     1      21.003  -0.859  53.054  1.00  0.00     0.054 C 
HETATM   28  C1  UNL     1      20.907  -1.715  54.293  1.00  0.00     0.011 C 
ENDBRANCH   1  27
BRANCH   8  29
HETATM   29  O1  UNL     1      20.124   4.481  47.512  1.00  0.00    -0.360 OA
HETATM   30  C8  UNL     1      19.597   3.234  47.167  1.00  0.00     0.209 C 
ENDBRANCH   8  29
TORSDOF 3
ENDMDL
MODEL 8
REMARK VINA RESULT:      -7.2      3.931      5.550
REMARK  3 active torsions:
REMARK  status: ('A' for Active; 'I' for Inactive)
REMARK    1  A    between atoms: C2_2  and  C3_3 
REMARK    2  A    between atoms: C7_10  and  O1_11 
REMARK    3  A    between atoms: C15_20  and  C16_22 
ROOT
HETATM    1  C3  UNL     1      21.718   3.813  47.086  1.00  0.00     0.031 C 
HETATM    2  N1  UNL     1      22.314   4.819  47.608  1.00  0.00    -0.279 NA
HETATM    3  C4  UNL     1      22.760   5.950  46.790  1.00  0.00     0.253 C 
HETATM    4  N2  UNL     1      23.422   6.939  47.611  1.00  0.00    -0.242 NA
HETATM    5  N3  UNL     1      24.579   6.451  48.198  1.00  0.00    -0.259 NA
HETATM    6  C5  UNL     1      25.353   7.586  48.696  1.00  0.00     0.111 C 
HETATM    7  C6  UNL     1      26.610   7.084  49.378  1.00  0.00     0.080 C 
HETATM    8  C7  UNL     1      27.568   6.454  48.405  1.00  0.00     0.055 C 
HETATM    9  C9  UNL     1      27.618   5.104  48.475  1.00  0.00     0.099 C 
HETATM   10  C10 UNL     1      26.783   4.491  49.412  1.00  0.00    -0.045 C 
HETATM   11  C11 UNL     1      26.112   3.995  50.151  1.00  0.00     0.064 C 
HETATM   12  O2  UNL     1      25.250   3.381  51.066  1.00  0.00    -0.273 OA
HETATM   13  C12 UNL     1      23.887   3.301  50.544  1.00  0.00     0.157 C 
HETATM   14  C13 UNL     1      23.342   2.224  51.186  1.00  0.00     0.056 C 
HETATM   15  C14 UNL     1      22.105   1.428  51.287  1.00  0.00     0.052 C 
HETATM   16  C15 UNL     1      21.521   0.412  51.872  1.00  0.00     0.046 C 
HETATM   17 CL1  UNL     1      22.747  -0.203  52.978  1.00  0.00    -0.086 Cl
HETATM   18  N4  UNL     1      21.307   2.199  50.351  1.00  0.00    -0.365 N 
HETATM   19  C18 UNL     1      21.117   2.178  48.959  1.00  0.00     0.090 C 
HETATM   20  C19 UNL     1      21.187   2.622  47.728  1.00  0.00     0.044 C 
HETATM   21  H8  UNL     1      22.807   7.467  48.235  1.00  0.00     0.142 HD
HETATM   22  H9  UNL     1      25.160   5.950  47.496  1.00  0.00     0.140 HD
HETATM   23  H22 UNL     1      20.797   2.886  50.983  1.00  0.00     0.165 HD
ENDROOT
BRANCH  16  24
HETATM   24  C16 UNL     1      20.190   0.146  51.366  1.00  0.00     0.145 C 
HETATM   25  C17 UNL     1      19.695  -0.053  52.620  1.00  0.00     0.367 C 
HETATM   26  F1  UNL     1      19.713  -0.139  53.971  1.00  0.00    -0.461 F 
ENDBRANCH  16  24
BRANCH   1  27
HETATM   27  C2  UNL     1      21.524   3.883  45.599  1.00  0.00     0.054 C 
HETATM   28  C1  UNL     1      20.059   3.870  45.243  1.00  0.00     0.011 C 
ENDBRANCH   1  27
BRANCH   8  29
HETATM   29  O1  UNL     1      28.430   6.879  47.428  1.00  0.00    -0.360 OA
HETATM   30  C8  UNL     1      29.814   6.718  47.538  1.00  0.00     0.209 C 
ENDBRANCH   8  29
TORSDOF 3
ENDMDL
MODEL 9
REMARK VINA RESULT:      -6.9      6.050      8.925
REMARK  3 active torsions:
REMARK  status: ('A' for Active; 'I' for Inactive)
REMARK    1  A    between atoms: C2_2  and  C3_3 
REMARK    2  A    between atoms: C7_10  and  O1_11 
REMARK    3  A    between atoms: C15_20  and  C16_22 
ROOT
HETATM    1  C3  UNL     1      23.158   7.400  49.325  1.00  0.00     0.031 C 
HETATM    2  N1  UNL     1      22.786   6.188  49.142  1.00  0.00    -0.279 NA
HETATM    3  C4  UNL     1      21.435   5.744  49.499  1.00  0.00     0.253 C 
HETATM    4  N2  UNL     1      21.275   4.335  49.218  1.00  0.00    -0.242 NA
HETATM    5  N3  UNL     1      22.119   3.544  49.981  1.00  0.00    -0.259 NA
HETATM    6  C5  UNL     1      21.647   2.163  49.901  1.00  0.00     0.111 C 
HETATM    7  C6  UNL     1      22.573   1.263  50.696  1.00  0.00     0.080 C 
HETATM    8  C7  UNL     1      22.494   1.536  52.173  1.00  0.00     0.055 C 
HETATM    9  C9  UNL     1      23.563   2.199  52.670  1.00  0.00     0.099 C 
HETATM   10  C10 UNL     1      24.568   2.542  51.762  1.00  0.00    -0.045 C 
HETATM   11  C11 UNL     1      25.369   2.828  51.041  1.00  0.00     0.064 C 
HETATM   12  O2  UNL     1      26.357   3.202  50.124  1.00  0.00    -0.273 OA
HETATM   13  C12 UNL     1      25.969   4.395  49.377  1.00  0.00     0.157 C 
HETATM   14  C13 UNL     1      27.154   4.971  49.016  1.00  0.00     0.056 C 
HETATM   15  C14 UNL     1      27.722   6.130  48.303  1.00  0.00     0.052 C 
HETATM   16  C15 UNL     1      28.823   6.727  47.919  1.00  0.00     0.046 C 
HETATM   17 CL1  UNL     1      30.106   5.675  48.511  1.00  0.00    -0.086 Cl
HETATM   18  N4  UNL     1      26.466   6.733  47.894  1.00  0.00    -0.365 N 
HETATM   19  C18 UNL     1      25.562   7.633  48.483  1.00  0.00     0.090 C 
HETATM   20  C19 UNL     1      24.432   8.028  49.017  1.00  0.00     0.044 C 
HETATM   21  H8  UNL     1      21.232   4.093  48.224  1.00  0.00     0.142 HD
HETATM   22  H9  UNL     1      22.089   3.836  50.978  1.00  0.00     0.140 HD
HETATM   23  H22 UNL     1      26.316   6.334  46.920  1.00  0.00     0.165 HD
ENDROOT
BRANCH  16  24
HETATM   24  C16 UNL     1      28.586   7.993  47.256  1.00  0.00     0.145 C 
HETATM   25  C17 UNL     1      29.267   8.683  48.213  1.00  0.00     0.367 C 
HETATM   26  F1  UNL     1      29.990   8.869  49.343  1.00  0.00    -0.461 F 
ENDBRANCH  16  24
BRANCH   1  27
HETATM   27  C2  UNL     1      22.124   8.306  49.927  1.00  0.00     0.054 C 
HETATM   28  C1  UNL     1      21.770   9.427  48.982  1.00  0.00     0.011 C 
ENDBRANCH   1  27
BRANCH   8  29
HETATM   29  O1  UNL     1      21.608   1.300  53.192  1.00  0.00    -0.360 OA
HETATM   30  C8  UNL     1      21.636   0.121  53.941  1.00  0.00     0.209 C 
ENDBRANCH   8  29
TORSDOF 3
ENDMDL
