MODEL 1
REMARK VINA RESULT:      -7.8      0.000      0.000
REMARK  6 active torsions:
REMARK  status: ('A' for Active; 'I' for Inactive)
REMARK    1  A    between atoms: C7_7  and  C8_8 
REMARK    2  A    between atoms: C8_8  and  C9_9 
REMARK    3  A    between atoms: C9_9  and  C10_10 
REMARK    4  A    between atoms: N1_16  and  N2_17 
REMARK    5  A    between atoms: N2_17  and  C15_18 
REMARK    6  A    between atoms: C15_18  and  N3_19 
ROOT
HETATM    1  C8  UNL     1      26.071   0.195  52.902  1.00  0.00     0.066 C 
HETATM    2  N1  UNL     1      25.356  -0.433  53.791  1.00  0.00    -0.177 NA
ENDROOT
BRANCH   1   3
HETATM    3  C7  UNL     1      27.453  -0.156  53.133  1.00  0.00    -0.004 A 
HETATM    4  C2  UNL     1      28.434   0.724  53.519  1.00  0.00    -0.050 A 
HETATM    5  C1  UNL     1      28.159   2.155  53.740  1.00  0.00     0.049 C 
HETATM    6  C3  UNL     1      29.751   0.385  53.744  1.00  0.00     0.007 A 
HETATM    7  C4  UNL     1      30.058  -0.938  53.556  1.00  0.00     0.001 A 
HETATM    8  C5  UNL     1      29.143  -1.883  53.172  1.00  0.00     0.001 A 
HETATM    9  C6  UNL     1      27.829  -1.466  52.963  1.00  0.00     0.014 A 
ENDBRANCH   1   3
BRANCH   1  10
HETATM   10  C9  UNL     1      25.170   0.958  52.063  1.00  0.00     0.076 C 
BRANCH  10  11
HETATM   11  C10 UNL     1      25.464   2.399  51.851  1.00  0.00     0.059 A 
HETATM   12  C11 UNL     1      26.406   2.630  50.715  1.00  0.00    -0.016 A 
HETATM   13  C12 UNL     1      25.864   3.217  49.660  1.00  0.00    -0.002 A 
HETATM   14  C13 UNL     1      24.465   3.439  50.008  1.00  0.00     0.020 A 
HETATM   15  C14 UNL     1      24.209   2.992  51.227  1.00  0.00     0.019 A 
HETATM   16 CL1  UNL     1      22.641   3.076  52.006  1.00  0.00    -0.088 Cl
ENDBRANCH  10  11
ENDBRANCH   1  10
BRANCH   2  17
HETATM   17  N2  UNL     1      24.005  -0.400  53.952  1.00  0.00    -0.258 N 
HETATM   18  H14 UNL     1      23.796   0.332  53.247  1.00  0.00     0.191 HD
BRANCH  17  19
HETATM   19  C15 UNL     1      22.868  -0.905  54.619  1.00  0.00     0.164 C 
HETATM   20  S1  UNL     1      21.312  -0.570  54.285  1.00  0.00    -0.046 SA
BRANCH  19  21
HETATM   21  N3  UNL     1      22.884  -1.809  55.720  1.00  0.00    -0.278 NA
HETATM   22  H15 UNL     1      23.570  -2.614  55.769  1.00  0.00     0.126 HD
HETATM   23  H16 UNL     1      23.488  -2.618  55.888  1.00  0.00     0.126 HD
ENDBRANCH  19  21
ENDBRANCH  17  19
ENDBRANCH   2  17
TORSDOF 6
ENDMDL
MODEL 2
REMARK VINA RESULT:      -7.7      2.588      4.457
REMARK  6 active torsions:
REMARK  status: ('A' for Active; 'I' for Inactive)
REMARK    1  A    between atoms: C7_7  and  C8_8 
REMARK    2  A    between atoms: C8_8  and  C9_9 
REMARK    3  A    between atoms: C9_9  and  C10_10 
REMARK    4  A    between atoms: N1_16  and  N2_17 
REMARK    5  A    between atoms: N2_17  and  C15_18 
REMARK    6  A    between atoms: C15_18  and  N3_19 
ROOT
HETATM    1  C8  UNL     1      26.109   0.784  52.793  1.00  0.00     0.066 C 
HETATM    2  N1  UNL     1      26.280   1.550  51.755  1.00  0.00    -0.177 NA
ENDROOT
BRANCH   1   3
HETATM    3  C7  UNL     1      27.385   0.176  53.097  1.00  0.00    -0.004 A 
HETATM    4  C2  UNL     1      27.692  -1.147  52.901  1.00  0.00    -0.050 A 
HETATM    5  C1  UNL     1      26.718  -2.103  52.345  1.00  0.00     0.049 C 
HETATM    6  C3  UNL     1      28.911  -1.722  53.186  1.00  0.00     0.007 A 
HETATM    7  C4  UNL     1      29.857  -0.873  53.702  1.00  0.00     0.001 A 
HETATM    8  C5  UNL     1      29.636   0.460  53.929  1.00  0.00     0.001 A 
HETATM    9  C6  UNL     1      28.377   0.972  53.616  1.00  0.00     0.014 A 
ENDBRANCH   1   3
BRANCH   1  10
HETATM   10  C9  UNL     1      24.723   0.884  53.199  1.00  0.00     0.076 C 
BRANCH  10  11
HETATM   11  C10 UNL     1      23.880  -0.336  53.117  1.00  0.00     0.059 A 
HETATM   12  C11 UNL     1      23.515  -0.872  54.462  1.00  0.00    -0.016 A 
HETATM   13  C12 UNL     1      22.234  -0.755  54.775  1.00  0.00    -0.002 A 
HETATM   14  C13 UNL     1      21.607  -0.108  53.628  1.00  0.00     0.020 A 
HETATM   15  C14 UNL     1      22.500   0.140  52.683  1.00  0.00     0.019 A 
HETATM   16 CL1  UNL     1      22.137   0.908  51.151  1.00  0.00    -0.088 Cl
ENDBRANCH  10  11
ENDBRANCH   1  10
BRANCH   2  17
HETATM   17  N2  UNL     1      25.352   2.317  51.122  1.00  0.00    -0.258 N 
HETATM   18  H14 UNL     1      24.528   1.709  51.285  1.00  0.00     0.191 HD
BRANCH  17  19
HETATM   19  C15 UNL     1      25.068   3.496  50.397  1.00  0.00     0.164 C 
HETATM   20  S1  UNL     1      23.856   3.720  49.336  1.00  0.00    -0.046 SA
BRANCH  19  21
HETATM   21  N3  UNL     1      25.804   4.713  50.468  1.00  0.00    -0.278 NA
HETATM   22  H15 UNL     1      26.853   4.739  50.318  1.00  0.00     0.126 HD
HETATM   23  H16 UNL     1      26.808   4.874  50.344  1.00  0.00     0.126 HD
ENDBRANCH  19  21
ENDBRANCH  17  19
ENDBRANCH   2  17
TORSDOF 6
ENDMDL
MODEL 3
REMARK VINA RESULT:      -7.6      3.557      4.850
REMARK  6 active torsions:
REMARK  status: ('A' for Active; 'I' for Inactive)
REMARK    1  A    between atoms: C7_7  and  C8_8 
REMARK    2  A    between atoms: C8_8  and  C9_9 
REMARK    3  A    between atoms: C9_9  and  C10_10 
REMARK    4  A    between atoms: N1_16  and  N2_17 
REMARK    5  A    between atoms: N2_17  and  C15_18 
REMARK    6  A    between atoms: C15_18  and  N3_19 
ROOT
HETATM    1  C8  UNL     1      26.447   1.882  51.954  1.00  0.00     0.066 C 
HETATM    2  N1  UNL     1      27.104   2.751  51.242  1.00  0.00    -0.177 NA
ENDROOT
BRANCH   1   3
HETATM    3  C7  UNL     1      27.409   1.171  52.765  1.00  0.00    -0.004 A 
HETATM    4  C2  UNL     1      27.535  -0.194  52.820  1.00  0.00    -0.050 A 
HETATM    5  C1  UNL     1      26.671  -1.093  52.033  1.00  0.00     0.049 C 
HETATM    6  C3  UNL     1      28.458  -0.869  53.590  1.00  0.00     0.007 A 
HETATM    7  C4  UNL     1      29.290  -0.078  54.339  1.00  0.00     0.001 A 
HETATM    8  C5  UNL     1      29.235   1.291  54.343  1.00  0.00     0.001 A 
HETATM    9  C6  UNL     1      28.275   1.904  53.539  1.00  0.00     0.014 A 
ENDBRANCH   1   3
BRANCH   1  10
HETATM   10  C9  UNL     1      25.040   2.014  51.635  1.00  0.00     0.076 C 
BRANCH  10  11
HETATM   11  C10 UNL     1      24.120   2.472  52.707  1.00  0.00     0.059 A 
HETATM   12  C11 UNL     1      23.107   3.452  52.212  1.00  0.00    -0.016 A 
HETATM   13  C12 UNL     1      21.864   2.996  52.189  1.00  0.00    -0.002 A 
HETATM   14  C13 UNL     1      21.938   1.626  52.683  1.00  0.00     0.020 A 
HETATM   15  C14 UNL     1      23.186   1.302  52.981  1.00  0.00     0.019 A 
HETATM   16 CL1  UNL     1      23.684  -0.258  53.605  1.00  0.00    -0.088 Cl
ENDBRANCH  10  11
ENDBRANCH   1  10
BRANCH   2  17
HETATM   17  N2  UNL     1      26.606   3.638  50.339  1.00  0.00    -0.258 N 
HETATM   18  H14 UNL     1      25.633   3.277  50.306  1.00  0.00     0.191 HD
BRANCH  17  19
HETATM   19  C15 UNL     1      26.840   4.750  49.499  1.00  0.00     0.164 C 
HETATM   20  S1  UNL     1      25.737   5.816  48.962  1.00  0.00    -0.046 SA
BRANCH  19  21
HETATM   21  N3  UNL     1      28.103   5.137  48.967  1.00  0.00    -0.278 NA
HETATM   22  H15 UNL     1      28.865   4.427  48.768  1.00  0.00     0.126 HD
HETATM   23  H16 UNL     1      28.915   4.558  48.732  1.00  0.00     0.126 HD
ENDBRANCH  19  21
ENDBRANCH  17  19
ENDBRANCH   2  17
TORSDOF 6
ENDMDL
MODEL 4
REMARK VINA RESULT:      -7.4      3.061      5.920
REMARK  6 active torsions:
REMARK  status: ('A' for Active; 'I' for Inactive)
REMARK    1  A    between atoms: C7_7  and  C8_8 
REMARK    2  A    between atoms: C8_8  and  C9_9 
REMARK    3  A    between atoms: C9_9  and  C10_10 
REMARK    4  A    between atoms: N1_16  and  N2_17 
REMARK    5  A    between atoms: N2_17  and  C15_18 
REMARK    6  A    between atoms: C15_18  and  N3_19 
ROOT
HETATM    1  C8  UNL     1      25.164   0.673  52.599  1.00  0.00     0.066 C 
HETATM    2  N1  UNL     1      24.909   1.882  52.188  1.00  0.00    -0.177 NA
ENDROOT
BRANCH   1   3
HETATM    3  C7  UNL     1      23.922   0.107  53.073  1.00  0.00    -0.004 A 
HETATM    4  C2  UNL     1      23.778  -0.615  54.231  1.00  0.00    -0.050 A 
HETATM    5  C1  UNL     1      24.913  -0.889  55.129  1.00  0.00     0.049 C 
HETATM    6  C3  UNL     1      22.590  -1.149  54.683  1.00  0.00     0.007 A 
HETATM    7  C4  UNL     1      21.499  -0.918  53.885  1.00  0.00     0.001 A 
HETATM    8  C5  UNL     1      21.553  -0.208  52.714  1.00  0.00     0.001 A 
HETATM    9  C6  UNL     1      22.789   0.302  52.320  1.00  0.00     0.014 A 
ENDBRANCH   1   3
BRANCH   1  10
HETATM   10  C9  UNL     1      26.574   0.419  52.392  1.00  0.00     0.076 C 
BRANCH  10  11
HETATM   11  C10 UNL     1      27.389   0.001  53.561  1.00  0.00     0.059 A 
HETATM   12  C11 UNL     1      28.039  -1.329  53.359  1.00  0.00    -0.016 A 
HETATM   13  C12 UNL     1      29.356  -1.286  53.236  1.00  0.00    -0.002 A 
HETATM   14  C13 UNL     1      29.716   0.122  53.347  1.00  0.00     0.020 A 
HETATM   15  C14 UNL     1      28.639   0.869  53.529  1.00  0.00     0.019 A 
HETATM   16 CL1  UNL     1      28.657   2.612  53.709  1.00  0.00    -0.088 Cl
ENDBRANCH  10  11
ENDBRANCH   1  10
BRANCH   2  17
HETATM   17  N2  UNL     1      25.779   2.786  51.661  1.00  0.00    -0.258 N 
HETATM   18  H14 UNL     1      26.539   2.675  52.358  1.00  0.00     0.191 HD
BRANCH  17  19
HETATM   19  C15 UNL     1      26.054   3.730  50.647  1.00  0.00     0.164 C 
HETATM   20  S1  UNL     1      25.047   4.872  50.079  1.00  0.00    -0.046 SA
BRANCH  19  21
HETATM   21  N3  UNL     1      27.282   3.849  49.935  1.00  0.00    -0.278 NA
HETATM   22  H15 UNL     1      27.823   2.997  49.612  1.00  0.00     0.126 HD
HETATM   23  H16 UNL     1      27.896   3.115  49.571  1.00  0.00     0.126 HD
ENDBRANCH  19  21
ENDBRANCH  17  19
ENDBRANCH   2  17
TORSDOF 6
ENDMDL
MODEL 5
REMARK VINA RESULT:      -7.1      2.958      4.635
REMARK  6 active torsions:
REMARK  status: ('A' for Active; 'I' for Inactive)
REMARK    1  A    between atoms: C7_7  and  C8_8 
REMARK    2  A    between atoms: C8_8  and  C9_9 
REMARK    3  A    between atoms: C9_9  and  C10_10 
REMARK    4  A    between atoms: N1_16  and  N2_17 
REMARK    5  A    between atoms: N2_17  and  C15_18 
REMARK    6  A    between atoms: C15_18  and  N3_19 
ROOT
HETATM    1  C8  UNL     1      24.691   1.594  53.258  1.00  0.00     0.066 C 
HETATM    2  N1  UNL     1      24.850   2.885  53.300  1.00  0.00    -0.177 NA
ENDROOT
BRANCH   1   3
HETATM    3  C7  UNL     1      25.983   0.991  53.492  1.00  0.00    -0.004 A 
HETATM    4  C2  UNL     1      26.926   0.752  52.525  1.00  0.00    -0.050 A 
HETATM    5  C1  UNL     1      26.702   1.098  51.110  1.00  0.00     0.049 C 
HETATM    6  C3  UNL     1      28.160   0.182  52.752  1.00  0.00     0.007 A 
HETATM    7  C4  UNL     1      28.422  -0.155  54.056  1.00  0.00     0.001 A 
HETATM    8  C5  UNL     1      27.539   0.048  55.083  1.00  0.00     0.001 A 
HETATM    9  C6  UNL     1      26.309   0.629  54.777  1.00  0.00     0.014 A 
ENDBRANCH   1   3
BRANCH   1  10
HETATM   10  C9  UNL     1      23.290   1.324  53.009  1.00  0.00     0.076 C 
BRANCH  10  11
HETATM   11  C10 UNL     1      22.846  -0.093  52.972  1.00  0.00     0.059 A 
HETATM   12  C11 UNL     1      22.700  -0.684  54.336  1.00  0.00    -0.016 A 
HETATM   13  C12 UNL     1      21.453  -0.946  54.693  1.00  0.00    -0.002 A 
HETATM   14  C13 UNL     1      20.626  -0.540  53.563  1.00  0.00     0.020 A 
HETATM   15  C14 UNL     1      21.375  -0.058  52.583  1.00  0.00     0.019 A 
HETATM   16 CL1  UNL     1      20.752   0.533  51.056  1.00  0.00    -0.088 Cl
ENDBRANCH  10  11
ENDBRANCH   1  10
BRANCH   2  17
HETATM   17  N2  UNL     1      23.905   3.849  53.134  1.00  0.00    -0.258 N 
HETATM   18  H14 UNL     1      23.228   3.508  53.843  1.00  0.00     0.191 HD
BRANCH  17  19
HETATM   19  C15 UNL     1      23.495   5.019  52.458  1.00  0.00     0.164 C 
HETATM   20  S1  UNL     1      22.147   5.211  51.569  1.00  0.00    -0.046 SA
BRANCH  19  21
HETATM   21  N3  UNL     1      24.202   6.255  52.435  1.00  0.00    -0.278 NA
HETATM   22  H15 UNL     1      24.117   6.931  51.623  1.00  0.00     0.126 HD
HETATM   23  H16 UNL     1      24.207   6.989  51.719  1.00  0.00     0.126 HD
ENDBRANCH  19  21
ENDBRANCH  17  19
ENDBRANCH   2  17
TORSDOF 6
ENDMDL
MODEL 6
REMARK VINA RESULT:      -7.0      2.582      5.827
REMARK  6 active torsions:
REMARK  status: ('A' for Active; 'I' for Inactive)
REMARK    1  A    between atoms: C7_7  and  C8_8 
REMARK    2  A    between atoms: C8_8  and  C9_9 
REMARK    3  A    between atoms: C9_9  and  C10_10 
REMARK    4  A    between atoms: N1_16  and  N2_17 
REMARK    5  A    between atoms: N2_17  and  C15_18 
REMARK    6  A    between atoms: C15_18  and  N3_19 
ROOT
HETATM    1  C8  UNL     1      24.286   1.634  51.906  1.00  0.00     0.066 C 
HETATM    2  N1  UNL     1      25.380   0.957  51.707  1.00  0.00    -0.177 NA
ENDROOT
BRANCH   1   3
HETATM    3  C7  UNL     1      24.214   2.650  50.882  1.00  0.00    -0.004 A 
HETATM    4  C2  UNL     1      23.302   2.670  49.857  1.00  0.00    -0.050 A 
HETATM    5  C1  UNL     1      22.279   1.621  49.698  1.00  0.00     0.049 C 
HETATM    6  C3  UNL     1      23.231   3.644  48.884  1.00  0.00     0.007 A 
HETATM    7  C4  UNL     1      24.160   4.648  48.989  1.00  0.00     0.001 A 
HETATM    8  C5  UNL     1      25.105   4.707  49.980  1.00  0.00     0.001 A 
HETATM    9  C6  UNL     1      25.115   3.686  50.928  1.00  0.00     0.014 A 
ENDBRANCH   1   3
BRANCH   1  10
HETATM   10  C9  UNL     1      23.614   1.066  53.057  1.00  0.00     0.076 C 
BRANCH  10  11
HETATM   11  C10 UNL     1      22.464   0.157  52.816  1.00  0.00     0.059 A 
HETATM   12  C11 UNL     1      22.459  -1.017  53.740  1.00  0.00    -0.016 A 
HETATM   13  C12 UNL     1      21.479  -1.015  54.630  1.00  0.00    -0.002 A 
HETATM   14  C13 UNL     1      20.716   0.201  54.371  1.00  0.00     0.020 A 
HETATM   15  C14 UNL     1      21.241   0.878  53.363  1.00  0.00     0.019 A 
HETATM   16 CL1  UNL     1      20.609   2.394  52.750  1.00  0.00    -0.088 Cl
ENDBRANCH  10  11
ENDBRANCH   1  10
BRANCH   2  17
HETATM   17  N2  UNL     1      25.856  -0.094  52.429  1.00  0.00    -0.258 N 
HETATM   18  H14 UNL     1      25.071  -0.751  52.257  1.00  0.00     0.191 HD
BRANCH  17  19
HETATM   19  C15 UNL     1      26.883  -0.619  53.243  1.00  0.00     0.164 C 
HETATM   20  S1  UNL     1      27.793   0.200  54.314  1.00  0.00    -0.046 SA
BRANCH  19  21
HETATM   21  N3  UNL     1      27.310  -1.977  53.270  1.00  0.00    -0.278 NA
HETATM   22  H15 UNL     1      28.186  -2.276  53.787  1.00  0.00     0.126 HD
HETATM   23  H16 UNL     1      28.127  -2.393  53.727  1.00  0.00     0.126 HD
ENDBRANCH  19  21
ENDBRANCH  17  19
ENDBRANCH   2  17
TORSDOF 6
ENDMDL
MODEL 7
REMARK VINA RESULT:      -6.9      3.597      4.929
REMARK  6 active torsions:
REMARK  status: ('A' for Active; 'I' for Inactive)
REMARK    1  A    between atoms: C7_7  and  C8_8 
REMARK    2  A    between atoms: C8_8  and  C9_9 
REMARK    3  A    between atoms: C9_9  and  C10_10 
REMARK    4  A    between atoms: N1_16  and  N2_17 
REMARK    5  A    between atoms: N2_17  and  C15_18 
REMARK    6  A    between atoms: C15_18  and  N3_19 
ROOT
HETATM    1  C8  UNL     1      23.753   2.205  52.590  1.00  0.00     0.066 C 
HETATM    2  N1  UNL     1      24.026   3.451  52.846  1.00  0.00    -0.177 NA
ENDROOT
BRANCH   1   3
HETATM    3  C7  UNL     1      24.764   1.399  53.234  1.00  0.00    -0.004 A 
HETATM    4  C2  UNL     1      24.580   0.116  53.683  1.00  0.00    -0.050 A 
HETATM    5  C1  UNL     1      23.289  -0.583  53.548  1.00  0.00     0.049 C 
HETATM    6  C3  UNL     1      25.549  -0.652  54.292  1.00  0.00     0.007 A 
HETATM    7  C4  UNL     1      26.772  -0.049  54.438  1.00  0.00     0.001 A 
HETATM    8  C5  UNL     1      27.044   1.226  54.018  1.00  0.00     0.001 A 
HETATM    9  C6  UNL     1      26.014   1.943  53.411  1.00  0.00     0.014 A 
ENDBRANCH   1   3
BRANCH   1  10
HETATM   10  C9  UNL     1      22.549   2.168  51.785  1.00  0.00     0.076 C 
BRANCH  10  11
HETATM   11  C10 UNL     1      22.565   1.357  50.540  1.00  0.00     0.059 A 
HETATM   12  C11 UNL     1      21.214   0.830  50.183  1.00  0.00    -0.016 A 
HETATM   13  C12 UNL     1      20.683   1.366  49.095  1.00  0.00    -0.002 A 
HETATM   14  C13 UNL     1      21.664   2.331  48.613  1.00  0.00     0.020 A 
HETATM   15  C14 UNL     1      22.728   2.351  49.399  1.00  0.00     0.019 A 
HETATM   16 CL1  UNL     1      24.125   3.379  49.152  1.00  0.00    -0.088 Cl
ENDBRANCH  10  11
ENDBRANCH   1  10
BRANCH   2  17
HETATM   17  N2  UNL     1      23.342   4.556  52.443  1.00  0.00    -0.258 N 
HETATM   18  H14 UNL     1      22.417   4.306  52.843  1.00  0.00     0.191 HD
BRANCH  17  19
HETATM   19  C15 UNL     1      23.364   5.796  51.766  1.00  0.00     0.164 C 
HETATM   20  S1  UNL     1      22.288   6.326  50.668  1.00  0.00    -0.046 SA
BRANCH  19  21
HETATM   21  N3  UNL     1      24.347   6.814  51.928  1.00  0.00    -0.278 NA
HETATM   22  H15 UNL     1      24.943   6.878  52.802  1.00  0.00     0.126 HD
HETATM   23  H16 UNL     1      24.981   6.985  52.714  1.00  0.00     0.126 HD
ENDBRANCH  19  21
ENDBRANCH  17  19
ENDBRANCH   2  17
TORSDOF 6
ENDMDL
MODEL 8
REMARK VINA RESULT:      -6.9      2.909      5.423
REMARK  6 active torsions:
REMARK  status: ('A' for Active; 'I' for Inactive)
REMARK    1  A    between atoms: C7_7  and  C8_8 
REMARK    2  A    between atoms: C8_8  and  C9_9 
REMARK    3  A    between atoms: C9_9  and  C10_10 
REMARK    4  A    between atoms: N1_16  and  N2_17 
REMARK    5  A    between atoms: N2_17  and  C15_18 
REMARK    6  A    between atoms: C15_18  and  N3_19 
ROOT
HETATM    1  C8  UNL     1      23.774   1.576  52.795  1.00  0.00     0.066 C 
HETATM    2  N1  UNL     1      24.897   1.281  53.384  1.00  0.00    -0.177 NA
ENDROOT
BRANCH   1   3
HETATM    3  C7  UNL     1      22.770   0.668  53.298  1.00  0.00    -0.004 A 
HETATM    4  C2  UNL     1      21.416   0.892  53.259  1.00  0.00    -0.050 A 
HETATM    5  C1  UNL     1      20.842   2.121  52.684  1.00  0.00     0.049 C 
HETATM    6  C3  UNL     1      20.460   0.021  53.735  1.00  0.00     0.007 A 
HETATM    7  C4  UNL     1      20.943  -1.143  54.277  1.00  0.00     0.001 A 
HETATM    8  C5  UNL     1      22.276  -1.448  54.356  1.00  0.00     0.001 A 
HETATM    9  C6  UNL     1      23.185  -0.518  53.854  1.00  0.00     0.014 A 
ENDBRANCH   1   3
BRANCH   1  10
HETATM   10  C9  UNL     1      24.017   2.693  51.905  1.00  0.00     0.076 C 
BRANCH  10  11
HETATM   11  C10 UNL     1      23.950   2.447  50.441  1.00  0.00     0.059 A 
HETATM   12  C11 UNL     1      22.684   2.956  49.833  1.00  0.00    -0.016 A 
HETATM   13  C12 UNL     1      22.837   3.997  49.030  1.00  0.00    -0.002 A 
HETATM   14  C13 UNL     1      24.266   4.286  49.028  1.00  0.00     0.020 A 
HETATM   15  C14 UNL     1      24.917   3.438  49.808  1.00  0.00     0.019 A 
HETATM   16 CL1  UNL     1      26.650   3.458  50.069  1.00  0.00    -0.088 Cl
ENDBRANCH  10  11
ENDBRANCH   1  10
BRANCH   2  17
HETATM   17  N2  UNL     1      26.109   1.876  53.218  1.00  0.00    -0.258 N 
HETATM   18  H14 UNL     1      25.785   2.720  52.708  1.00  0.00     0.191 HD
BRANCH  17  19
HETATM   19  C15 UNL     1      27.504   1.829  53.433  1.00  0.00     0.164 C 
HETATM   20  S1  UNL     1      28.333   0.663  54.206  1.00  0.00    -0.046 SA
BRANCH  19  21
HETATM   21  N3  UNL     1      28.444   2.809  53.003  1.00  0.00    -0.278 NA
HETATM   22  H15 UNL     1      28.469   3.156  52.002  1.00  0.00     0.126 HD
HETATM   23  H16 UNL     1      28.572   3.225  52.076  1.00  0.00     0.126 HD
ENDBRANCH  19  21
ENDBRANCH  17  19
ENDBRANCH   2  17
TORSDOF 6
ENDMDL
MODEL 9
REMARK VINA RESULT:      -6.8      3.312      6.025
REMARK  6 active torsions:
REMARK  status: ('A' for Active; 'I' for Inactive)
REMARK    1  A    between atoms: C7_7  and  C8_8 
REMARK    2  A    between atoms: C8_8  and  C9_9 
REMARK    3  A    between atoms: C9_9  and  C10_10 
REMARK    4  A    between atoms: N1_16  and  N2_17 
REMARK    5  A    between atoms: N2_17  and  C15_18 
REMARK    6  A    between atoms: C15_18  and  N3_19 
ROOT
HETATM    1  C8  UNL     1      26.193   3.724  49.659  1.00  0.00     0.066 C 
HETATM    2  N1  UNL     1      26.944   3.406  50.673  1.00  0.00    -0.177 NA
ENDROOT
BRANCH   1   3
HETATM    3  C7  UNL     1      26.722   4.944  49.094  1.00  0.00    -0.004 A 
HETATM    4  C2  UNL     1      26.064   6.147  49.064  1.00  0.00    -0.050 A 
HETATM    5  C1  UNL     1      24.710   6.313  49.623  1.00  0.00     0.049 C 
HETATM    6  C3  UNL     1      26.574   7.311  48.530  1.00  0.00     0.007 A 
HETATM    7  C4  UNL     1      27.836   7.211  48.000  1.00  0.00     0.001 A 
HETATM    8  C5  UNL     1      28.564   6.051  47.988  1.00  0.00     0.001 A 
HETATM    9  C6  UNL     1      27.983   4.914  48.547  1.00  0.00     0.014 A 
ENDBRANCH   1   3
BRANCH   1  10
HETATM   10  C9  UNL     1      25.164   2.712  49.530  1.00  0.00     0.076 C 
BRANCH  10  11
HETATM   11  C10 UNL     1      23.746   3.136  49.660  1.00  0.00     0.059 A 
HETATM   12  C11 UNL     1      22.977   2.956  48.392  1.00  0.00    -0.016 A 
HETATM   13  C12 UNL     1      22.055   2.007  48.437  1.00  0.00    -0.002 A 
HETATM   14  C13 UNL     1      22.128   1.450  49.782  1.00  0.00     0.020 A 
HETATM   15  C14 UNL     1      23.064   2.059  50.492  1.00  0.00     0.019 A 
HETATM   16 CL1  UNL     1      23.458   1.674  52.156  1.00  0.00    -0.088 Cl
ENDBRANCH  10  11
ENDBRANCH   1  10
BRANCH   2  17
HETATM   17  N2  UNL     1      26.820   2.333  51.501  1.00  0.00    -0.258 N 
HETATM   18  H14 UNL     1      26.326   1.701  50.842  1.00  0.00     0.191 HD
BRANCH  17  19
HETATM   19  C15 UNL     1      27.061   1.769  52.773  1.00  0.00     0.164 C 
HETATM   20  S1  UNL     1      27.349   0.205  53.108  1.00  0.00    -0.046 SA
BRANCH  19  21
HETATM   21  N3  UNL     1      27.095   2.484  54.005  1.00  0.00    -0.278 NA
HETATM   22  H15 UNL     1      27.860   3.185  54.221  1.00  0.00     0.126 HD
HETATM   23  H16 UNL     1      27.770   3.180  54.334  1.00  0.00     0.126 HD
ENDBRANCH  19  21
ENDBRANCH  17  19
ENDBRANCH   2  17
TORSDOF 6
ENDMDL
