MODEL 1
REMARK VINA RESULT:      -7.3      0.000      0.000
REMARK  3 active torsions:
REMARK  status: ('A' for Active; 'I' for Inactive)
REMARK    1  A    between atoms: C2_2  and  C3_3 
REMARK    2  A    between atoms: C4_5  and  C5_6 
REMARK    3  A    between atoms: C5_6  and  O2_7 
ROOT
HETATM    1  C3  UNL     1      26.314   1.513  52.645  1.00  0.00     0.212 C 
HETATM    2  O1  UNL     1      26.490   0.480  53.488  1.00  0.00    -0.345 OA
HETATM    3  C4  UNL     1      26.199  -0.685  52.763  1.00  0.00     0.247 C 
HETATM    4  N1  UNL     1      24.855  -1.114  53.236  1.00  0.00    -0.346 N 
HETATM    5  C6  UNL     1      23.607  -0.369  53.295  1.00  0.00     0.139 A 
HETATM    6  N2  UNL     1      22.959  -0.942  54.309  1.00  0.00    -0.224 NA
HETATM    7  C7  UNL     1      21.764  -0.660  54.825  1.00  0.00     0.234 A 
HETATM    8  N3  UNL     1      21.107   0.347  54.247  1.00  0.00    -0.253 NA
HETATM    9  C8  UNL     1      21.746   0.958  53.201  1.00  0.00     0.134 A 
HETATM   10  C9  UNL     1      23.005   0.666  52.652  1.00  0.00     0.035 A 
HETATM   11  C10 UNL     1      23.105   1.722  51.588  1.00  0.00    -0.030 C 
HETATM   12  C11 UNL     1      23.926   2.807  51.550  1.00  0.00    -0.012 C 
HETATM   13  C12 UNL     1      23.648   3.552  50.308  1.00  0.00     0.046 C 
HETATM   14  C13 UNL     1      23.084   2.505  49.357  1.00  0.00     0.010 C 
HETATM   15  C14 UNL     1      22.264   1.697  50.325  1.00  0.00     0.041 C 
HETATM   16  S1  UNL     1      24.805   2.465  53.109  1.00  0.00    -0.098 SA
HETATM   17  H9  UNL     1      24.964  -2.114  53.522  1.00  0.00     0.163 HD
ENDROOT
BRANCH   3  18
HETATM   18  C5  UNL     1      27.225  -1.745  52.924  1.00  0.00     0.217 C 
BRANCH  18  19
HETATM   19  O2  UNL     1      28.260  -1.312  53.768  1.00  0.00    -0.397 OA
HETATM   20  H8  UNL     1      28.933  -2.052  53.720  1.00  0.00     0.209 HD
ENDBRANCH  18  19
ENDBRANCH   3  18
BRANCH   1  21
HETATM   21  C2  UNL     1      27.431   2.367  52.336  1.00  0.00     0.006 C 
HETATM   22  C1  UNL     1      28.198   2.322  53.424  1.00  0.00     0.010 C 
ENDBRANCH   1  21
TORSDOF 3
ENDMDL
MODEL 2
REMARK VINA RESULT:      -6.9      2.445      4.678
REMARK  3 active torsions:
REMARK  status: ('A' for Active; 'I' for Inactive)
REMARK    1  A    between atoms: C2_2  and  C3_3 
REMARK    2  A    between atoms: C4_5  and  C5_6 
REMARK    3  A    between atoms: C5_6  and  O2_7 
ROOT
HETATM    1  C3  UNL     1      21.234   0.360  52.215  1.00  0.00     0.212 C 
HETATM    2  O1  UNL     1      21.814  -0.772  52.653  1.00  0.00    -0.345 OA
HETATM    3  C4  UNL     1      22.271  -0.511  53.954  1.00  0.00     0.247 C 
HETATM    4  N1  UNL     1      23.743  -0.342  53.825  1.00  0.00    -0.346 N 
HETATM    5  C6  UNL     1      24.507   0.544  52.960  1.00  0.00     0.139 A 
HETATM    6  N2  UNL     1      25.651  -0.115  52.783  1.00  0.00    -0.224 NA
HETATM    7  C7  UNL     1      26.724   0.217  52.068  1.00  0.00     0.234 A 
HETATM    8  N3  UNL     1      26.654   1.384  51.427  1.00  0.00    -0.253 NA
HETATM    9  C8  UNL     1      25.490   2.088  51.588  1.00  0.00     0.134 A 
HETATM   10  C9  UNL     1      24.355   1.744  52.339  1.00  0.00     0.035 A 
HETATM   11  C10 UNL     1      23.454   2.911  52.048  1.00  0.00    -0.030 C 
HETATM   12  C11 UNL     1      22.309   2.929  51.311  1.00  0.00    -0.012 C 
HETATM   13  C12 UNL     1      21.788   4.309  51.305  1.00  0.00     0.046 C 
HETATM   14  C13 UNL     1      22.342   4.928  52.581  1.00  0.00     0.010 C 
HETATM   15  C14 UNL     1      23.710   4.303  52.594  1.00  0.00     0.041 C 
HETATM   16  S1  UNL     1      22.279   1.151  50.918  1.00  0.00    -0.098 SA
HETATM   17  H9  UNL     1      24.164  -0.999  54.521  1.00  0.00     0.163 HD
ENDROOT
BRANCH   3  18
HETATM   18  C5  UNL     1      21.903  -1.571  54.925  1.00  0.00     0.217 C 
BRANCH  18  19
HETATM   19  O2  UNL     1      22.966  -1.831  55.806  1.00  0.00    -0.397 OA
HETATM   20  H8  UNL     1      22.722  -1.322  56.633  1.00  0.00     0.209 HD
ENDBRANCH  18  19
ENDBRANCH   3  18
BRANCH   1  21
HETATM   21  C2  UNL     1      19.838   0.345  51.865  1.00  0.00     0.006 C 
HETATM   22  C1  UNL     1      19.818   0.610  50.560  1.00  0.00     0.010 C 
ENDBRANCH   1  21
TORSDOF 3
ENDMDL
MODEL 3
REMARK VINA RESULT:      -6.8      3.177      5.104
REMARK  3 active torsions:
REMARK  status: ('A' for Active; 'I' for Inactive)
REMARK    1  A    between atoms: C2_2  and  C3_3 
REMARK    2  A    between atoms: C4_5  and  C5_6 
REMARK    3  A    between atoms: C5_6  and  O2_7 
ROOT
HETATM    1  C3  UNL     1      24.079   4.127  51.423  1.00  0.00     0.212 C 
HETATM    2  O1  UNL     1      25.272   4.653  51.095  1.00  0.00    -0.345 OA
HETATM    3  C4  UNL     1      25.865   3.766  50.184  1.00  0.00     0.247 C 
HETATM    4  N1  UNL     1      26.906   3.043  50.964  1.00  0.00    -0.346 N 
HETATM    5  C6  UNL     1      26.788   2.301  52.210  1.00  0.00     0.139 A 
HETATM    6  N2  UNL     1      28.001   2.422  52.750  1.00  0.00    -0.224 NA
HETATM    7  C7  UNL     1      28.469   1.950  53.904  1.00  0.00     0.234 A 
HETATM    8  N3  UNL     1      27.604   1.251  54.639  1.00  0.00    -0.253 NA
HETATM    9  C8  UNL     1      26.347   1.108  54.111  1.00  0.00     0.134 A 
HETATM   10  C9  UNL     1      25.846   1.602  52.897  1.00  0.00     0.035 A 
HETATM   11  C10 UNL     1      24.421   1.131  52.962  1.00  0.00    -0.030 C 
HETATM   12  C11 UNL     1      23.292   1.876  53.123  1.00  0.00    -0.012 C 
HETATM   13  C12 UNL     1      22.135   0.961  53.135  1.00  0.00     0.046 C 
HETATM   14  C13 UNL     1      22.606  -0.255  52.349  1.00  0.00     0.010 C 
HETATM   15  C14 UNL     1      24.032  -0.329  52.825  1.00  0.00     0.041 C 
HETATM   16  S1  UNL     1      24.112   3.502  53.157  1.00  0.00    -0.098 SA
HETATM   17  H9  UNL     1      27.792   3.151  50.419  1.00  0.00     0.163 HD
ENDROOT
BRANCH   3  18
HETATM   18  C5  UNL     1      26.420   4.443  48.986  1.00  0.00     0.217 C 
BRANCH  18  19
HETATM   19  O2  UNL     1      27.804   4.642  49.123  1.00  0.00    -0.397 OA
HETATM   20  H8  UNL     1      27.883   5.612  49.358  1.00  0.00     0.209 HD
ENDBRANCH  18  19
ENDBRANCH   3  18
BRANCH   1  21
HETATM   21  C2  UNL     1      22.879   4.865  51.126  1.00  0.00     0.006 C 
HETATM   22  C1  UNL     1      22.148   4.033  50.388  1.00  0.00     0.010 C 
ENDBRANCH   1  21
TORSDOF 3
ENDMDL
MODEL 4
REMARK VINA RESULT:      -6.7      3.781      5.727
REMARK  3 active torsions:
REMARK  status: ('A' for Active; 'I' for Inactive)
REMARK    1  A    between atoms: C2_2  and  C3_3 
REMARK    2  A    between atoms: C4_5  and  C5_6 
REMARK    3  A    between atoms: C5_6  and  O2_7 
ROOT
HETATM    1  C3  UNL     1      25.401   4.981  49.946  1.00  0.00     0.212 C 
HETATM    2  O1  UNL     1      24.346   5.806  49.823  1.00  0.00    -0.345 OA
HETATM    3  C4  UNL     1      24.224   6.485  51.045  1.00  0.00     0.247 C 
HETATM    4  N1  UNL     1      23.070   5.846  51.733  1.00  0.00    -0.346 N 
HETATM    5  C6  UNL     1      22.828   4.445  52.041  1.00  0.00     0.139 A 
HETATM    6  N2  UNL     1      21.498   4.361  52.052  1.00  0.00    -0.224 NA
HETATM    7  C7  UNL     1      20.713   3.308  52.269  1.00  0.00     0.234 A 
HETATM    8  N3  UNL     1      21.341   2.157  52.512  1.00  0.00    -0.253 NA
HETATM    9  C8  UNL     1      22.710   2.208  52.508  1.00  0.00     0.134 A 
HETATM   10  C9  UNL     1      23.544   3.314  52.279  1.00  0.00     0.035 A 
HETATM   11  C10 UNL     1      24.900   2.674  52.373  1.00  0.00    -0.030 C 
HETATM   12  C11 UNL     1      25.801   2.457  51.375  1.00  0.00    -0.012 C 
HETATM   13  C12 UNL     1      26.981   1.789  51.958  1.00  0.00     0.046 C 
HETATM   14  C13 UNL     1      26.967   2.207  53.422  1.00  0.00     0.010 C 
HETATM   15  C14 UNL     1      25.486   2.177  53.682  1.00  0.00     0.041 C 
HETATM   16  S1  UNL     1      24.833   3.229  50.040  1.00  0.00    -0.098 SA
HETATM   17  H9  UNL     1      22.427   6.629  51.991  1.00  0.00     0.163 HD
ENDROOT
BRANCH   3  18
HETATM   18  C5  UNL     1      24.050   7.950  50.884  1.00  0.00     0.217 C 
BRANCH  18  19
HETATM   19  O2  UNL     1      25.296   8.596  50.828  1.00  0.00    -0.397 OA
HETATM   20  H8  UNL     1      25.536   8.736  51.790  1.00  0.00     0.209 HD
ENDBRANCH  18  19
ENDBRANCH   3  18
BRANCH   1  21
HETATM   21  C2  UNL     1      26.530   5.147  49.069  1.00  0.00     0.006 C 
HETATM   22  C1  UNL     1      26.279   6.278  48.412  1.00  0.00     0.010 C 
ENDBRANCH   1  21
TORSDOF 3
ENDMDL
MODEL 5
REMARK VINA RESULT:      -6.6      2.526      4.638
REMARK  3 active torsions:
REMARK  status: ('A' for Active; 'I' for Inactive)
REMARK    1  A    between atoms: C2_2  and  C3_3 
REMARK    2  A    between atoms: C4_5  and  C5_6 
REMARK    3  A    between atoms: C5_6  and  O2_7 
ROOT
HETATM    1  C3  UNL     1      25.719   2.908  51.197  1.00  0.00     0.212 C 
HETATM    2  O1  UNL     1      24.480   3.385  50.987  1.00  0.00    -0.345 OA
HETATM    3  C4  UNL     1      24.050   3.938  52.203  1.00  0.00     0.247 C 
HETATM    4  N1  UNL     1      23.087   2.951  52.762  1.00  0.00    -0.346 N 
HETATM    5  C6  UNL     1      23.254   1.529  53.018  1.00  0.00     0.139 A 
HETATM    6  N2  UNL     1      22.016   1.051  52.897  1.00  0.00    -0.224 NA
HETATM    7  C7  UNL     1      21.569  -0.198  53.015  1.00  0.00     0.234 A 
HETATM    8  N3  UNL     1      22.491  -1.118  53.298  1.00  0.00    -0.253 NA
HETATM    9  C8  UNL     1      23.776  -0.660  53.429  1.00  0.00     0.134 A 
HETATM   10  C9  UNL     1      24.254   0.654  53.305  1.00  0.00     0.035 A 
HETATM   11  C10 UNL     1      25.726   0.445  53.519  1.00  0.00    -0.030 C 
HETATM   12  C11 UNL     1      26.735   0.554  52.612  1.00  0.00    -0.012 C 
HETATM   13  C12 UNL     1      28.005   0.243  53.296  1.00  0.00     0.046 C 
HETATM   14  C13 UNL     1      27.736   0.567  54.759  1.00  0.00     0.010 C 
HETATM   15  C14 UNL     1      26.316   0.084  54.870  1.00  0.00     0.041 C 
HETATM   16  S1  UNL     1      25.701   1.064  51.202  1.00  0.00    -0.098 SA
HETATM   17  H9  UNL     1      22.218   3.494  52.969  1.00  0.00     0.163 HD
ENDROOT
BRANCH   3  18
HETATM   18  C5  UNL     1      23.458   5.290  52.053  1.00  0.00     0.217 C 
BRANCH  18  19
HETATM   19  O2  UNL     1      24.291   6.265  52.624  1.00  0.00    -0.397 OA
HETATM   20  H8  UNL     1      24.002   6.296  53.582  1.00  0.00     0.209 HD
ENDBRANCH  18  19
ENDBRANCH   3  18
BRANCH   1  21
HETATM   21  C2  UNL     1      26.818   3.446  50.439  1.00  0.00     0.006 C 
HETATM   22  C1  UNL     1      26.249   3.986  49.363  1.00  0.00     0.010 C 
ENDBRANCH   1  21
TORSDOF 3
ENDMDL
MODEL 6
REMARK VINA RESULT:      -6.6      1.951      2.681
REMARK  3 active torsions:
REMARK  status: ('A' for Active; 'I' for Inactive)
REMARK    1  A    between atoms: C2_2  and  C3_3 
REMARK    2  A    between atoms: C4_5  and  C5_6 
REMARK    3  A    between atoms: C5_6  and  O2_7 
ROOT
HETATM    1  C3  UNL     1      24.209   3.345  51.676  1.00  0.00     0.212 C 
HETATM    2  O1  UNL     1      25.009   2.855  52.638  1.00  0.00    -0.345 OA
HETATM    3  C4  UNL     1      25.602   1.696  52.116  1.00  0.00     0.247 C 
HETATM    4  N1  UNL     1      24.886   0.564  52.764  1.00  0.00    -0.346 N 
HETATM    5  C6  UNL     1      23.461   0.278  52.828  1.00  0.00     0.139 A 
HETATM    6  N2  UNL     1      23.339  -0.403  53.967  1.00  0.00    -0.224 NA
HETATM    7  C7  UNL     1      22.252  -0.913  54.542  1.00  0.00     0.234 A 
HETATM    8  N3  UNL     1      21.106  -0.719  53.888  1.00  0.00    -0.253 NA
HETATM    9  C8  UNL     1      21.197  -0.023  52.712  1.00  0.00     0.134 A 
HETATM   10  C9  UNL     1      22.339   0.518  52.100  1.00  0.00     0.035 A 
HETATM   11  C10 UNL     1      21.733   1.174  50.891  1.00  0.00    -0.030 C 
HETATM   12  C11 UNL     1      21.608   2.503  50.626  1.00  0.00    -0.012 C 
HETATM   13  C12 UNL     1      20.938   2.651  49.320  1.00  0.00     0.046 C 
HETATM   14  C13 UNL     1      21.257   1.358  48.583  1.00  0.00     0.010 C 
HETATM   15  C14 UNL     1      21.167   0.384  49.726  1.00  0.00     0.041 C 
HETATM   16  S1  UNL     1      22.439   3.101  52.133  1.00  0.00    -0.098 SA
HETATM   17  H9  UNL     1      25.632  -0.040  53.179  1.00  0.00     0.163 HD
ENDROOT
BRANCH   3  18
HETATM   18  C5  UNL     1      27.069   1.641  52.334  1.00  0.00     0.217 C 
BRANCH  18  19
HETATM   19  O2  UNL     1      27.672   2.858  51.973  1.00  0.00    -0.397 OA
HETATM   20  H8  UNL     1      26.909   3.506  51.954  1.00  0.00     0.209 HD
ENDBRANCH  18  19
ENDBRANCH   3  18
BRANCH   1  21
HETATM   21  C2  UNL     1      24.465   4.660  51.150  1.00  0.00     0.006 C 
HETATM   22  C1  UNL     1      24.649   4.469  49.845  1.00  0.00     0.010 C 
ENDBRANCH   1  21
TORSDOF 3
ENDMDL
MODEL 7
REMARK VINA RESULT:      -6.3      3.637      5.654
REMARK  3 active torsions:
REMARK  status: ('A' for Active; 'I' for Inactive)
REMARK    1  A    between atoms: C2_2  and  C3_3 
REMARK    2  A    between atoms: C4_5  and  C5_6 
REMARK    3  A    between atoms: C5_6  and  O2_7 
ROOT
HETATM    1  C3  UNL     1      23.750   5.946  50.850  1.00  0.00     0.212 C 
HETATM    2  O1  UNL     1      25.069   6.208  50.840  1.00  0.00    -0.345 OA
HETATM    3  C4  UNL     1      25.573   5.684  49.640  1.00  0.00     0.247 C 
HETATM    4  N1  UNL     1      26.282   4.434  50.026  1.00  0.00    -0.346 N 
HETATM    5  C6  UNL     1      25.804   3.287  50.781  1.00  0.00     0.139 A 
HETATM    6  N2  UNL     1      26.912   2.815  51.352  1.00  0.00    -0.224 NA
HETATM    7  C7  UNL     1      27.073   1.776  52.168  1.00  0.00     0.234 A 
HETATM    8  N3  UNL     1      25.965   1.097  52.467  1.00  0.00    -0.253 NA
HETATM    9  C8  UNL     1      24.807   1.556  51.896  1.00  0.00     0.134 A 
HETATM   10  C9  UNL     1      24.630   2.651  51.036  1.00  0.00     0.035 A 
HETATM   11  C10 UNL     1      23.142   2.616  50.832  1.00  0.00    -0.030 C 
HETATM   12  C11 UNL     1      22.207   3.496  51.286  1.00  0.00    -0.012 C 
HETATM   13  C12 UNL     1      20.881   3.031  50.837  1.00  0.00     0.046 C 
HETATM   14  C13 UNL     1      21.171   2.205  49.591  1.00  0.00     0.010 C 
HETATM   15  C14 UNL     1      22.449   1.537  50.021  1.00  0.00     0.041 C 
HETATM   16  S1  UNL     1      23.368   4.642  52.096  1.00  0.00    -0.098 SA
HETATM   17  H9  UNL     1      27.242   4.520  49.621  1.00  0.00     0.163 HD
ENDROOT
BRANCH   3  18
HETATM   18  C5  UNL     1      26.449   6.634  48.910  1.00  0.00     0.217 C 
BRANCH  18  19
HETATM   19  O2  UNL     1      27.152   7.453  49.809  1.00  0.00    -0.397 OA
HETATM   20  H8  UNL     1      27.047   6.987  50.689  1.00  0.00     0.209 HD
ENDBRANCH  18  19
ENDBRANCH   3  18
BRANCH   1  21
HETATM   21  C2  UNL     1      22.816   7.041  50.894  1.00  0.00     0.006 C 
HETATM   22  C1  UNL     1      21.986   6.814  49.878  1.00  0.00     0.010 C 
ENDBRANCH   1  21
TORSDOF 3
ENDMDL
MODEL 8
REMARK VINA RESULT:      -6.0      2.155      3.078
REMARK  3 active torsions:
REMARK  status: ('A' for Active; 'I' for Inactive)
REMARK    1  A    between atoms: C2_2  and  C3_3 
REMARK    2  A    between atoms: C4_5  and  C5_6 
REMARK    3  A    between atoms: C5_6  and  O2_7 
ROOT
HETATM    1  C3  UNL     1      24.527   3.927  51.037  1.00  0.00     0.212 C 
HETATM    2  O1  UNL     1      24.980   3.448  52.209  1.00  0.00    -0.345 OA
HETATM    3  C4  UNL     1      25.519   2.180  51.944  1.00  0.00     0.247 C 
HETATM    4  N1  UNL     1      24.511   1.212  52.454  1.00  0.00    -0.346 N 
HETATM    5  C6  UNL     1      23.091   1.102  52.156  1.00  0.00     0.139 A 
HETATM    6  N2  UNL     1      22.589   0.561  53.266  1.00  0.00    -0.224 NA
HETATM    7  C7  UNL     1      21.331   0.243  53.565  1.00  0.00     0.234 A 
HETATM    8  N3  UNL     1      20.428   0.500  52.618  1.00  0.00    -0.253 NA
HETATM    9  C8  UNL     1      20.912   1.057  51.463  1.00  0.00     0.134 A 
HETATM   10  C9  UNL     1      22.235   1.395  51.142  1.00  0.00     0.035 A 
HETATM   11  C10 UNL     1      22.055   1.989  49.773  1.00  0.00    -0.030 C 
HETATM   12  C11 UNL     1      22.188   3.290  49.394  1.00  0.00    -0.012 C 
HETATM   13  C12 UNL     1      21.900   3.379  47.949  1.00  0.00     0.046 C 
HETATM   14  C13 UNL     1      22.214   1.989  47.414  1.00  0.00     0.010 C 
HETATM   15  C14 UNL     1      21.701   1.155  48.556  1.00  0.00     0.041 C 
HETATM   16  S1  UNL     1      22.683   3.939  51.022  1.00  0.00    -0.098 SA
HETATM   17  H9  UNL     1      25.035   0.571  53.093  1.00  0.00     0.163 HD
ENDROOT
BRANCH   3  18
HETATM   18  C5  UNL     1      26.859   1.977  52.547  1.00  0.00     0.217 C 
BRANCH  18  19
HETATM   19  O2  UNL     1      27.807   2.825  51.950  1.00  0.00    -0.397 OA
HETATM   20  H8  UNL     1      27.715   3.682  52.459  1.00  0.00     0.209 HD
ENDBRANCH  18  19
ENDBRANCH   3  18
BRANCH   1  21
HETATM   21  C2  UNL     1      25.090   5.141  50.509  1.00  0.00     0.006 C 
HETATM   22  C1  UNL     1      24.147   6.061  50.706  1.00  0.00     0.010 C 
ENDBRANCH   1  21
TORSDOF 3
ENDMDL
MODEL 9
REMARK VINA RESULT:      -5.9     24.477     26.073
REMARK  3 active torsions:
REMARK  status: ('A' for Active; 'I' for Inactive)
REMARK    1  A    between atoms: C2_2  and  C3_3 
REMARK    2  A    between atoms: C4_5  and  C5_6 
REMARK    3  A    between atoms: C5_6  and  O2_7 
ROOT
HETATM    1  C3  UNL     1      42.823   4.997  69.792  1.00  0.00     0.212 C 
HETATM    2  O1  UNL     1      42.844   4.104  68.786  1.00  0.00    -0.345 OA
HETATM    3  C4  UNL     1      44.177   3.690  68.646  1.00  0.00     0.247 C 
HETATM    4  N1  UNL     1      44.679   4.391  67.433  1.00  0.00    -0.346 N 
HETATM    5  C6  UNL     1      44.676   5.809  67.108  1.00  0.00     0.139 A 
HETATM    6  N2  UNL     1      44.628   5.815  65.777  1.00  0.00    -0.224 NA
HETATM    7  C7  UNL     1      44.592   6.843  64.931  1.00  0.00     0.234 A 
HETATM    8  N3  UNL     1      44.606   8.054  65.490  1.00  0.00    -0.253 NA
HETATM    9  C8  UNL     1      44.656   8.083  66.858  1.00  0.00     0.134 A 
HETATM   10  C9  UNL     1      44.692   7.004  67.756  1.00  0.00     0.035 A 
HETATM   11  C10 UNL     1      44.691   7.727  69.073  1.00  0.00    -0.030 C 
HETATM   12  C11 UNL     1      43.699   7.783  70.004  1.00  0.00    -0.012 C 
HETATM   13  C12 UNL     1      44.164   8.625  71.123  1.00  0.00     0.046 C 
HETATM   14  C13 UNL     1      45.682   8.522  71.067  1.00  0.00     0.010 C 
HETATM   15  C14 UNL     1      45.883   8.520  69.576  1.00  0.00     0.041 C 
HETATM   16  S1  UNL     1      42.527   6.693  69.134  1.00  0.00    -0.098 SA
HETATM   17  H9  UNL     1      45.076   3.642  66.820  1.00  0.00     0.163 HD
ENDROOT
BRANCH   3  18
HETATM   18  C5  UNL     1      44.324   2.216  68.553  1.00  0.00     0.217 C 
BRANCH  18  19
HETATM   19  O2  UNL     1      43.436   1.686  67.603  1.00  0.00    -0.397 OA
HETATM   20  H8  UNL     1      42.690   1.311  68.155  1.00  0.00     0.209 HD
ENDBRANCH  18  19
ENDBRANCH   3  18
BRANCH   1  21
HETATM   21  C2  UNL     1      42.037   4.716  70.965  1.00  0.00     0.006 C 
HETATM   22  C1  UNL     1      40.884   5.348  70.754  1.00  0.00     0.010 C 
ENDBRANCH   1  21
TORSDOF 3
ENDMDL
