MODEL 1
REMARK VINA RESULT:      -8.4      0.000      0.000
REMARK  7 active torsions:
REMARK  status: ('A' for Active; 'I' for Inactive)
REMARK    1  A    between atoms: N1_1  and  C1_2 
REMARK    2  A    between atoms: C1_2  and  C2_3 
REMARK    3  A    between atoms: C8_10  and  C9_11 
REMARK    4  A    between atoms: C9_11  and  C10_13 
REMARK    5  A    between atoms: C12_17  and  C13_18 
REMARK    6  A    between atoms: C13_18  and  C14_19 
REMARK    7  A    between atoms: C14_19  and  C15_20 
ROOT
HETATM    1  C2  UNL     1      23.777   1.313  51.820  1.00  0.00    -0.019 C 
HETATM    2  C3  UNL     1      25.016   1.773  51.786  1.00  0.00    -0.001 C 
HETATM    3  C4  UNL     1      26.210   1.638  52.648  1.00  0.00     0.037 C 
HETATM    4  C5  UNL     1      26.570   0.895  53.684  1.00  0.00     0.033 C 
HETATM    5  C6  UNL     1      25.888  -0.153  54.430  1.00  0.00     0.045 C 
HETATM    6  C7  UNL     1      24.641  -0.573  54.470  1.00  0.00     0.125 C 
HETATM    7  F1  UNL     1      24.540  -1.597  55.349  1.00  0.00    -0.205 F 
HETATM    8  C8  UNL     1      23.335  -0.317  53.888  1.00  0.00     0.017 C 
HETATM    9  C11 UNL     1      23.118   0.466  52.815  1.00  0.00     0.022 C 
HETATM   10  N2  UNL     1      26.851   2.645  51.878  1.00  0.00    -0.381 N 
HETATM   11  C12 UNL     1      25.764   2.666  50.877  1.00  0.00     0.118 C 
HETATM   12  H11 UNL     1      27.750   3.208  51.936  1.00  0.00     0.160 HD
ENDROOT
BRANCH  11  13
HETATM   13  C13 UNL     1      25.296   4.074  50.736  1.00  0.00     0.034 C 
BRANCH  13  14
HETATM   14  C14 UNL     1      25.317   4.406  49.257  1.00  0.00     0.041 C 
BRANCH  14  15
HETATM   15  C15 UNL     1      26.434   5.284  48.888  1.00  0.00    -0.058 A 
HETATM   16  C16 UNL     1      26.234   6.664  48.785  1.00  0.00     0.007 A 
HETATM   17  C17 UNL     1      27.313   7.451  48.435  1.00  0.00     0.001 A 
HETATM   18  C18 UNL     1      28.561   6.924  48.187  1.00  0.00     0.000 A 
HETATM   19  C19 UNL     1      28.757   5.559  48.289  1.00  0.00     0.001 A 
HETATM   20  C20 UNL     1      27.694   4.736  48.640  1.00  0.00     0.007 A 
ENDBRANCH  14  15
ENDBRANCH  13  14
ENDBRANCH  11  13
BRANCH   1  21
HETATM   21  C1  UNL     1      22.854   1.693  50.720  1.00  0.00     0.306 C 
BRANCH  21  22
HETATM   22  N1  UNL     1      21.714   0.806  50.652  1.00  0.00     0.082 N 
HETATM   23  H1  UNL     1      21.311   0.566  51.575  1.00  0.00     0.313 HD
HETATM   24  H2  UNL     1      20.996   1.215  49.999  1.00  0.00     0.313 HD
ENDBRANCH  21  22
ENDBRANCH   1  21
BRANCH   8  25
HETATM   25  C9  UNL     1      22.129  -0.908  54.482  1.00  0.00     0.234 C 
HETATM   26  F2  UNL     1      21.954  -2.148  53.855  1.00  0.00    -0.242 F 
BRANCH  25  27
HETATM   27  C10 UNL     1      20.865  -0.149  54.293  1.00  0.00     0.264 C 
HETATM   28  F3  UNL     1      20.565   0.705  55.321  1.00  0.00    -0.252 F 
ENDBRANCH  25  27
ENDBRANCH   8  25
TORSDOF 7
ENDMDL
MODEL 2
REMARK VINA RESULT:      -8.2      3.735      7.422
REMARK  7 active torsions:
REMARK  status: ('A' for Active; 'I' for Inactive)
REMARK    1  A    between atoms: N1_1  and  C1_2 
REMARK    2  A    between atoms: C1_2  and  C2_3 
REMARK    3  A    between atoms: C8_10  and  C9_11 
REMARK    4  A    between atoms: C9_11  and  C10_13 
REMARK    5  A    between atoms: C12_17  and  C13_18 
REMARK    6  A    between atoms: C13_18  and  C14_19 
REMARK    7  A    between atoms: C14_19  and  C15_20 
ROOT
HETATM    1  C2  UNL     1      25.451   2.765  50.710  1.00  0.00    -0.019 C 
HETATM    2  C3  UNL     1      24.273   2.275  51.058  1.00  0.00    -0.001 C 
HETATM    3  C4  UNL     1      22.865   2.662  50.825  1.00  0.00     0.037 C 
HETATM    4  C5  UNL     1      22.220   3.532  50.063  1.00  0.00     0.033 C 
HETATM    5  C6  UNL     1      22.671   4.513  49.087  1.00  0.00     0.045 C 
HETATM    6  C7  UNL     1      23.851   5.010  48.779  1.00  0.00     0.125 C 
HETATM    7  F1  UNL     1      23.713   5.908  47.777  1.00  0.00    -0.205 F 
HETATM    8  C8  UNL     1      25.254   4.919  49.146  1.00  0.00     0.017 C 
HETATM    9  C11 UNL     1      25.777   3.962  49.935  1.00  0.00     0.022 C 
HETATM   10  N2  UNL     1      22.463   1.675  51.764  1.00  0.00    -0.381 N 
HETATM   11  C12 UNL     1      23.830   1.124  51.872  1.00  0.00     0.118 C 
HETATM   12  H11 UNL     1      21.561   1.387  52.245  1.00  0.00     0.160 HD
ENDROOT
BRANCH  11  13
HETATM   13  C13 UNL     1      24.204   1.102  53.315  1.00  0.00     0.034 C 
BRANCH  13  14
HETATM   14  C14 UNL     1      24.677  -0.303  53.633  1.00  0.00     0.041 C 
BRANCH  14  15
HETATM   15  C15 UNL     1      26.137  -0.399  53.746  1.00  0.00    -0.058 A 
HETATM   16  C16 UNL     1      26.855  -1.204  52.856  1.00  0.00     0.007 A 
HETATM   17  C17 UNL     1      28.227  -1.264  52.999  1.00  0.00     0.001 A 
HETATM   18  C18 UNL     1      28.898  -0.566  53.979  1.00  0.00     0.000 A 
HETATM   19  C19 UNL     1      28.186   0.229  54.858  1.00  0.00     0.001 A 
HETATM   20  C20 UNL     1      26.804   0.314  54.743  1.00  0.00     0.007 A 
ENDBRANCH  14  15
ENDBRANCH  13  14
ENDBRANCH  11  13
BRANCH   1  21
HETATM   21  C1  UNL     1      26.672   2.049  51.161  1.00  0.00     0.306 C 
BRANCH  21  22
HETATM   22  N1  UNL     1      27.344   2.762  52.225  1.00  0.00     0.082 N 
HETATM   23  H1  UNL     1      27.190   2.358  53.166  1.00  0.00     0.313 HD
HETATM   24  H2  UNL     1      28.367   2.848  51.991  1.00  0.00     0.313 HD
ENDBRANCH  21  22
ENDBRANCH   1  21
BRANCH   8  25
HETATM   25  C9  UNL     1      26.211   5.926  48.669  1.00  0.00     0.234 C 
HETATM   26  F2  UNL     1      27.450   5.277  48.584  1.00  0.00    -0.242 F 
BRANCH  25  27
HETATM   27  C10 UNL     1      26.408   7.111  49.546  1.00  0.00     0.264 C 
HETATM   28  F3  UNL     1      25.645   7.098  50.684  1.00  0.00    -0.252 F 
ENDBRANCH  25  27
ENDBRANCH   8  25
TORSDOF 7
ENDMDL
MODEL 3
REMARK VINA RESULT:      -7.9      4.767      6.288
REMARK  7 active torsions:
REMARK  status: ('A' for Active; 'I' for Inactive)
REMARK    1  A    between atoms: N1_1  and  C1_2 
REMARK    2  A    between atoms: C1_2  and  C2_3 
REMARK    3  A    between atoms: C8_10  and  C9_11 
REMARK    4  A    between atoms: C9_11  and  C10_13 
REMARK    5  A    between atoms: C12_17  and  C13_18 
REMARK    6  A    between atoms: C13_18  and  C14_19 
REMARK    7  A    between atoms: C14_19  and  C15_20 
ROOT
HETATM    1  C2  UNL     1      21.128  -0.153  53.484  1.00  0.00    -0.019 C 
HETATM    2  C3  UNL     1      21.956   0.503  52.689  1.00  0.00    -0.001 C 
HETATM    3  C4  UNL     1      21.893   1.023  51.305  1.00  0.00     0.037 C 
HETATM    4  C5  UNL     1      20.959   1.187  50.381  1.00  0.00     0.033 C 
HETATM    5  C6  UNL     1      19.531   0.904  50.361  1.00  0.00     0.045 C 
HETATM    6  C7  UNL     1      18.731   0.219  51.151  1.00  0.00     0.125 C 
HETATM    7  F1  UNL     1      17.468   0.275  50.669  1.00  0.00    -0.205 F 
HETATM    8  C8  UNL     1      18.740  -0.575  52.367  1.00  0.00     0.017 C 
HETATM    9  C11 UNL     1      19.772  -0.640  53.229  1.00  0.00     0.022 C 
HETATM   10  N2  UNL     1      23.283   1.308  51.375  1.00  0.00    -0.381 N 
HETATM   11  C12 UNL     1      23.345   0.991  52.817  1.00  0.00     0.118 C 
HETATM   12  H11 UNL     1      24.041   1.626  50.703  1.00  0.00     0.160 HD
ENDROOT
BRANCH  11  13
HETATM   13  C13 UNL     1      24.425  -0.016  53.019  1.00  0.00     0.034 C 
BRANCH  13  14
HETATM   14  C14 UNL     1      25.495   0.639  53.870  1.00  0.00     0.041 C 
BRANCH  14  15
HETATM   15  C15 UNL     1      26.799  -0.025  53.754  1.00  0.00    -0.058 A 
HETATM   16  C16 UNL     1      27.916   0.513  54.400  1.00  0.00     0.007 A 
HETATM   17  C17 UNL     1      29.122  -0.145  54.264  1.00  0.00     0.001 A 
HETATM   18  C18 UNL     1      29.254  -1.297  53.521  1.00  0.00     0.000 A 
HETATM   19  C19 UNL     1      28.149  -1.827  52.883  1.00  0.00     0.001 A 
HETATM   20  C20 UNL     1      26.918  -1.192  52.998  1.00  0.00     0.007 A 
ENDBRANCH  14  15
ENDBRANCH  13  14
ENDBRANCH  11  13
BRANCH   1  21
HETATM   21  C1  UNL     1      21.590  -0.496  54.853  1.00  0.00     0.306 C 
BRANCH  21  22
HETATM   22  N1  UNL     1      21.989  -1.883  54.948  1.00  0.00     0.082 N 
HETATM   23  H1  UNL     1      22.296  -2.296  54.049  1.00  0.00     0.313 HD
HETATM   24  H2  UNL     1      22.717  -1.983  55.701  1.00  0.00     0.313 HD
ENDBRANCH  21  22
ENDBRANCH   1  21
BRANCH   8  25
HETATM   25  C9  UNL     1      17.578  -1.399  52.724  1.00  0.00     0.234 C 
HETATM   26  F2  UNL     1      16.660  -0.536  53.336  1.00  0.00    -0.242 F 
BRANCH  25  27
HETATM   27  C10 UNL     1      17.829  -2.508  53.682  1.00  0.00     0.264 C 
HETATM   28  F3  UNL     1      17.391  -3.732  53.249  1.00  0.00    -0.252 F 
ENDBRANCH  25  27
ENDBRANCH   8  25
TORSDOF 7
ENDMDL
MODEL 4
REMARK VINA RESULT:      -7.9      3.879      5.397
REMARK  7 active torsions:
REMARK  status: ('A' for Active; 'I' for Inactive)
REMARK    1  A    between atoms: N1_1  and  C1_2 
REMARK    2  A    between atoms: C1_2  and  C2_3 
REMARK    3  A    between atoms: C8_10  and  C9_11 
REMARK    4  A    between atoms: C9_11  and  C10_13 
REMARK    5  A    between atoms: C12_17  and  C13_18 
REMARK    6  A    between atoms: C13_18  and  C14_19 
REMARK    7  A    between atoms: C14_19  and  C15_20 
ROOT
HETATM    1  C2  UNL     1      21.824   0.591  51.663  1.00  0.00    -0.019 C 
HETATM    2  C3  UNL     1      22.659   0.100  52.563  1.00  0.00    -0.001 C 
HETATM    3  C4  UNL     1      22.517  -0.663  53.822  1.00  0.00     0.037 C 
HETATM    4  C5  UNL     1      21.542  -1.291  54.460  1.00  0.00     0.033 C 
HETATM    5  C6  UNL     1      20.133  -1.495  54.154  1.00  0.00     0.045 C 
HETATM    6  C7  UNL     1      19.312  -0.969  53.270  1.00  0.00     0.125 C 
HETATM    7  F1  UNL     1      18.085  -1.520  53.413  1.00  0.00    -0.205 F 
HETATM    8  C8  UNL     1      19.274  -0.000  52.188  1.00  0.00     0.017 C 
HETATM    9  C11 UNL     1      20.362   0.557  51.624  1.00  0.00     0.022 C 
HETATM   10  N2  UNL     1      23.902  -0.466  54.070  1.00  0.00    -0.381 N 
HETATM   11  C12 UNL     1      24.127   0.121  52.733  1.00  0.00     0.118 C 
HETATM   12  H11 UNL     1      24.576  -0.642  54.871  1.00  0.00     0.160 HD
ENDROOT
BRANCH  11  13
HETATM   13  C13 UNL     1      24.792   1.443  52.917  1.00  0.00     0.034 C 
BRANCH  13  14
HETATM   14  C14 UNL     1      26.024   1.451  52.034  1.00  0.00     0.041 C 
BRANCH  14  15
HETATM   15  C15 UNL     1      27.210   0.909  52.708  1.00  0.00    -0.058 A 
HETATM   16  C16 UNL     1      28.091   1.769  53.370  1.00  0.00     0.007 A 
HETATM   17  C17 UNL     1      29.194   1.215  53.990  1.00  0.00     0.001 A 
HETATM   18  C18 UNL     1      29.446  -0.139  53.974  1.00  0.00     0.000 A 
HETATM   19  C19 UNL     1      28.574  -0.987  53.319  1.00  0.00     0.001 A 
HETATM   20  C20 UNL     1      27.454  -0.466  52.684  1.00  0.00     0.007 A 
ENDBRANCH  14  15
ENDBRANCH  13  14
ENDBRANCH  11  13
BRANCH   1  21
HETATM   21  C1  UNL     1      22.391   1.318  50.498  1.00  0.00     0.306 C 
BRANCH  21  22
HETATM   22  N1  UNL     1      21.612   1.094  49.301  1.00  0.00     0.082 N 
HETATM   23  H1  UNL     1      20.808   1.738  49.194  1.00  0.00     0.313 HD
HETATM   24  H2  UNL     1      22.251   1.111  48.464  1.00  0.00     0.313 HD
ENDBRANCH  21  22
ENDBRANCH   1  21
BRANCH   8  25
HETATM   25  C9  UNL     1      17.988   0.456  51.646  1.00  0.00     0.234 C 
HETATM   26  F2  UNL     1      17.635  -0.465  50.652  1.00  0.00    -0.242 F 
BRANCH  25  27
HETATM   27  C10 UNL     1      17.984   1.799  51.007  1.00  0.00     0.264 C 
HETATM   28  F3  UNL     1      17.744   2.832  51.875  1.00  0.00    -0.252 F 
ENDBRANCH  25  27
ENDBRANCH   8  25
TORSDOF 7
ENDMDL
MODEL 5
REMARK VINA RESULT:      -7.9      3.733      5.875
REMARK  7 active torsions:
REMARK  status: ('A' for Active; 'I' for Inactive)
REMARK    1  A    between atoms: N1_1  and  C1_2 
REMARK    2  A    between atoms: C1_2  and  C2_3 
REMARK    3  A    between atoms: C8_10  and  C9_11 
REMARK    4  A    between atoms: C9_11  and  C10_13 
REMARK    5  A    between atoms: C12_17  and  C13_18 
REMARK    6  A    between atoms: C13_18  and  C14_19 
REMARK    7  A    between atoms: C14_19  and  C15_20 
ROOT
HETATM    1  C2  UNL     1      22.746   0.983  52.925  1.00  0.00    -0.019 C 
HETATM    2  C3  UNL     1      23.531   2.043  52.830  1.00  0.00    -0.001 C 
HETATM    3  C4  UNL     1      23.353   3.446  52.396  1.00  0.00     0.037 C 
HETATM    4  C5  UNL     1      22.336   4.236  52.090  1.00  0.00     0.033 C 
HETATM    5  C6  UNL     1      20.896   4.024  52.061  1.00  0.00     0.045 C 
HETATM    6  C7  UNL     1      20.136   2.951  52.127  1.00  0.00     0.125 C 
HETATM    7  F1  UNL     1      18.835   3.318  52.055  1.00  0.00    -0.205 F 
HETATM    8  C8  UNL     1      20.216   1.507  52.254  1.00  0.00     0.017 C 
HETATM    9  C11 UNL     1      21.332   0.830  52.583  1.00  0.00     0.022 C 
HETATM   10  N2  UNL     1      24.761   3.620  52.462  1.00  0.00    -0.381 N 
HETATM   11  C12 UNL     1      24.964   2.297  53.089  1.00  0.00     0.118 C 
HETATM   12  H11 UNL     1      25.461   4.370  52.189  1.00  0.00     0.160 HD
ENDROOT
BRANCH  11  13
HETATM   13  C13 UNL     1      25.965   1.551  52.276  1.00  0.00     0.034 C 
BRANCH  13  14
HETATM   14  C14 UNL     1      27.193   1.359  53.144  1.00  0.00     0.041 C 
BRANCH  14  15
HETATM   15  C15 UNL     1      27.712  -0.013  53.099  1.00  0.00    -0.058 A 
HETATM   16  C16 UNL     1      29.015  -0.281  53.529  1.00  0.00     0.007 A 
HETATM   17  C17 UNL     1      29.462  -1.586  53.469  1.00  0.00     0.001 A 
HETATM   18  C18 UNL     1      28.672  -2.615  53.004  1.00  0.00     0.000 A 
HETATM   19  C19 UNL     1      27.385  -2.348  52.579  1.00  0.00     0.001 A 
HETATM   20  C20 UNL     1      26.901  -1.046  52.626  1.00  0.00     0.007 A 
ENDBRANCH  14  15
ENDBRANCH  13  14
ENDBRANCH  11  13
BRANCH   1  21
HETATM   21  C1  UNL     1      23.333  -0.284  53.431  1.00  0.00     0.306 C 
BRANCH  21  22
HETATM   22  N1  UNL     1      22.378  -1.369  53.381  1.00  0.00     0.082 N 
HETATM   23  H1  UNL     1      22.772  -2.290  53.642  1.00  0.00     0.313 HD
HETATM   24  H2  UNL     1      21.537  -1.117  53.963  1.00  0.00     0.313 HD
ENDBRANCH  21  22
ENDBRANCH   1  21
BRANCH   8  25
HETATM   25  C9  UNL     1      19.034   0.672  51.996  1.00  0.00     0.234 C 
HETATM   26  F2  UNL     1      19.296  -0.568  52.592  1.00  0.00    -0.242 F 
BRANCH  25  27
HETATM   27  C10 UNL     1      18.719   0.404  50.568  1.00  0.00     0.264 C 
HETATM   28  F3  UNL     1      17.392   0.536  50.254  1.00  0.00    -0.252 F 
ENDBRANCH  25  27
ENDBRANCH   8  25
TORSDOF 7
ENDMDL
MODEL 6
REMARK VINA RESULT:      -7.6      2.260      3.370
REMARK  7 active torsions:
REMARK  status: ('A' for Active; 'I' for Inactive)
REMARK    1  A    between atoms: N1_1  and  C1_2 
REMARK    2  A    between atoms: C1_2  and  C2_3 
REMARK    3  A    between atoms: C8_10  and  C9_11 
REMARK    4  A    between atoms: C9_11  and  C10_13 
REMARK    5  A    between atoms: C12_17  and  C13_18 
REMARK    6  A    between atoms: C13_18  and  C14_19 
REMARK    7  A    between atoms: C14_19  and  C15_20 
ROOT
HETATM    1  C2  UNL     1      22.283   1.106  51.270  1.00  0.00    -0.019 C 
HETATM    2  C3  UNL     1      23.307   0.816  52.055  1.00  0.00    -0.001 C 
HETATM    3  C4  UNL     1      23.467   0.166  53.374  1.00  0.00     0.037 C 
HETATM    4  C5  UNL     1      22.700  -0.518  54.209  1.00  0.00     0.033 C 
HETATM    5  C6  UNL     1      21.305  -0.930  54.153  1.00  0.00     0.045 C 
HETATM    6  C7  UNL     1      20.292  -0.602  53.378  1.00  0.00     0.125 C 
HETATM    7  F1  UNL     1      19.192  -1.291  53.761  1.00  0.00    -0.205 F 
HETATM    8  C8  UNL     1      19.953   0.244  52.247  1.00  0.00     0.017 C 
HETATM    9  C11 UNL     1      20.852   0.880  51.472  1.00  0.00     0.022 C 
HETATM   10  N2  UNL     1      24.831   0.563  53.377  1.00  0.00    -0.381 N 
HETATM   11  C12 UNL     1      24.765   1.042  51.980  1.00  0.00     0.118 C 
HETATM   12  H11 UNL     1      25.637   0.554  54.068  1.00  0.00     0.160 HD
ENDROOT
BRANCH  11  13
HETATM   13  C13 UNL     1      25.255   2.450  51.954  1.00  0.00     0.034 C 
BRANCH  13  14
HETATM   14  C14 UNL     1      26.231   2.563  50.800  1.00  0.00     0.041 C 
BRANCH  14  15
HETATM   15  C15 UNL     1      26.115   3.836  50.080  1.00  0.00    -0.058 A 
HETATM   16  C16 UNL     1      24.965   4.618  50.224  1.00  0.00     0.007 A 
HETATM   17  C17 UNL     1      24.900   5.809  49.528  1.00  0.00     0.001 A 
HETATM   18  C18 UNL     1      25.919   6.241  48.708  1.00  0.00     0.000 A 
HETATM   19  C19 UNL     1      27.055   5.466  48.567  1.00  0.00     0.001 A 
HETATM   20  C20 UNL     1      27.156   4.262  49.252  1.00  0.00     0.007 A 
ENDBRANCH  14  15
ENDBRANCH  13  14
ENDBRANCH  11  13
BRANCH   1  21
HETATM   21  C1  UNL     1      22.557   1.783  49.976  1.00  0.00     0.306 C 
BRANCH  21  22
HETATM   22  N1  UNL     1      21.719   1.266  48.917  1.00  0.00     0.082 N 
HETATM   23  H1  UNL     1      20.745   1.069  49.208  1.00  0.00     0.313 HD
HETATM   24  H2  UNL     1      21.764   1.918  48.091  1.00  0.00     0.313 HD
ENDBRANCH  21  22
ENDBRANCH   1  21
BRANCH   8  25
HETATM   25  C9  UNL     1      18.547   0.476  51.890  1.00  0.00     0.234 C 
HETATM   26  F2  UNL     1      18.197  -0.548  51.000  1.00  0.00    -0.242 F 
BRANCH  25  27
HETATM   27  C10 UNL     1      18.249   1.761  51.204  1.00  0.00     0.264 C 
HETATM   28  F3  UNL     1      17.291   2.518  51.825  1.00  0.00    -0.252 F 
ENDBRANCH  25  27
ENDBRANCH   8  25
TORSDOF 7
ENDMDL
MODEL 7
REMARK VINA RESULT:      -7.5      4.076      7.192
REMARK  7 active torsions:
REMARK  status: ('A' for Active; 'I' for Inactive)
REMARK    1  A    between atoms: N1_1  and  C1_2 
REMARK    2  A    between atoms: C1_2  and  C2_3 
REMARK    3  A    between atoms: C8_10  and  C9_11 
REMARK    4  A    between atoms: C9_11  and  C10_13 
REMARK    5  A    between atoms: C12_17  and  C13_18 
REMARK    6  A    between atoms: C13_18  and  C14_19 
REMARK    7  A    between atoms: C14_19  and  C15_20 
ROOT
HETATM    1  C2  UNL     1      23.635   2.742  50.176  1.00  0.00    -0.019 C 
HETATM    2  C3  UNL     1      24.855   3.089  50.550  1.00  0.00    -0.001 C 
HETATM    3  C4  UNL     1      25.818   4.137  50.148  1.00  0.00     0.037 C 
HETATM    4  C5  UNL     1      25.798   5.223  49.392  1.00  0.00     0.033 C 
HETATM    5  C6  UNL     1      24.748   5.859  48.608  1.00  0.00     0.045 C 
HETATM    6  C7  UNL     1      23.549   5.479  48.220  1.00  0.00     0.125 C 
HETATM    7  F1  UNL     1      22.976   6.470  47.498  1.00  0.00    -0.205 F 
HETATM    8  C8  UNL     1      22.627   4.361  48.308  1.00  0.00     0.017 C 
HETATM    9  C11 UNL     1      22.774   3.314  49.141  1.00  0.00     0.022 C 
HETATM   10  N2  UNL     1      26.806   3.501  50.946  1.00  0.00    -0.381 N 
HETATM   11  C12 UNL     1      25.827   2.560  51.529  1.00  0.00     0.118 C 
HETATM   12  H11 UNL     1      27.851   3.603  51.111  1.00  0.00     0.160 HD
ENDROOT
BRANCH  11  13
HETATM   13  C13 UNL     1      26.343   1.176  51.325  1.00  0.00     0.034 C 
BRANCH  13  14
HETATM   14  C14 UNL     1      26.203   0.447  52.647  1.00  0.00     0.041 C 
BRANCH  14  15
HETATM   15  C15 UNL     1      27.288  -0.512  52.885  1.00  0.00    -0.058 A 
HETATM   16  C16 UNL     1      27.090  -1.870  52.621  1.00  0.00     0.007 A 
HETATM   17  C17 UNL     1      28.139  -2.736  52.860  1.00  0.00     0.001 A 
HETATM   18  C18 UNL     1      29.355  -2.306  53.344  1.00  0.00     0.000 A 
HETATM   19  C19 UNL     1      29.548  -0.963  53.605  1.00  0.00     0.001 A 
HETATM   20  C20 UNL     1      28.515  -0.062  53.376  1.00  0.00     0.007 A 
ENDBRANCH  14  15
ENDBRANCH  13  14
ENDBRANCH  11  13
BRANCH   1  21
HETATM   21  C1  UNL     1      22.990   1.590  50.858  1.00  0.00     0.306 C 
BRANCH  21  22
HETATM   22  N1  UNL     1      22.419   1.977  52.129  1.00  0.00     0.082 N 
HETATM   23  H1  UNL     1      21.511   2.467  52.052  1.00  0.00     0.313 HD
HETATM   24  H2  UNL     1      22.365   1.132  52.755  1.00  0.00     0.313 HD
ENDBRANCH  21  22
ENDBRANCH   1  21
BRANCH   8  25
HETATM   25  C9  UNL     1      21.445   4.303  47.436  1.00  0.00     0.234 C 
HETATM   26  F2  UNL     1      20.489   3.548  48.127  1.00  0.00    -0.242 F 
BRANCH  25  27
HETATM   27  C10 UNL     1      21.636   3.649  46.115  1.00  0.00     0.264 C 
HETATM   28  F3  UNL     1      22.361   4.393  45.221  1.00  0.00    -0.252 F 
ENDBRANCH  25  27
ENDBRANCH   8  25
TORSDOF 7
ENDMDL
MODEL 8
REMARK VINA RESULT:      -7.4      1.994      4.093
REMARK  7 active torsions:
REMARK  status: ('A' for Active; 'I' for Inactive)
REMARK    1  A    between atoms: N1_1  and  C1_2 
REMARK    2  A    between atoms: C1_2  and  C2_3 
REMARK    3  A    between atoms: C8_10  and  C9_11 
REMARK    4  A    between atoms: C9_11  and  C10_13 
REMARK    5  A    between atoms: C12_17  and  C13_18 
REMARK    6  A    between atoms: C13_18  and  C14_19 
REMARK    7  A    between atoms: C14_19  and  C15_20 
ROOT
HETATM    1  C2  UNL     1      23.526   2.007  52.524  1.00  0.00    -0.019 C 
HETATM    2  C3  UNL     1      22.225   2.210  52.412  1.00  0.00    -0.001 C 
HETATM    3  C4  UNL     1      21.008   1.473  52.817  1.00  0.00     0.037 C 
HETATM    4  C5  UNL     1      20.727   0.425  53.576  1.00  0.00     0.033 C 
HETATM    5  C6  UNL     1      21.559  -0.472  54.367  1.00  0.00     0.045 C 
HETATM    6  C7  UNL     1      22.857  -0.678  54.438  1.00  0.00     0.125 C 
HETATM    7  F1  UNL     1      23.109  -1.642  55.354  1.00  0.00    -0.205 F 
HETATM    8  C8  UNL     1      24.114  -0.220  53.873  1.00  0.00     0.017 C 
HETATM    9  C11 UNL     1      24.253   0.884  53.115  1.00  0.00     0.022 C 
HETATM   10  N2  UNL     1      20.230   2.385  52.056  1.00  0.00    -0.381 N 
HETATM   11  C12 UNL     1      21.390   3.263  51.796  1.00  0.00     0.118 C 
HETATM   12  H11 UNL     1      19.217   2.469  51.750  1.00  0.00     0.160 HD
ENDROOT
BRANCH  11  13
HETATM   13  C13 UNL     1      21.492   3.466  50.323  1.00  0.00     0.034 C 
BRANCH  13  14
HETATM   14  C14 UNL     1      21.540   4.961  50.080  1.00  0.00     0.041 C 
BRANCH  14  15
HETATM   15  C15 UNL     1      22.910   5.483  50.012  1.00  0.00    -0.058 A 
HETATM   16  C16 UNL     1      23.352   6.410  50.961  1.00  0.00     0.007 A 
HETATM   17  C17 UNL     1      24.649   6.874  50.859  1.00  0.00     0.001 A 
HETATM   18  C18 UNL     1      25.506   6.456  49.864  1.00  0.00     0.000 A 
HETATM   19  C19 UNL     1      25.066   5.539  48.928  1.00  0.00     0.001 A 
HETATM   20  C20 UNL     1      23.768   5.050  48.999  1.00  0.00     0.007 A 
ENDBRANCH  14  15
ENDBRANCH  13  14
ENDBRANCH  11  13
BRANCH   1  21
HETATM   21  C1  UNL     1      24.449   3.030  51.967  1.00  0.00     0.306 C 
BRANCH  21  22
HETATM   22  N1  UNL     1      25.812   2.807  52.396  1.00  0.00     0.082 N 
HETATM   23  H1  UNL     1      25.905   2.575  53.400  1.00  0.00     0.313 HD
HETATM   24  H2  UNL     1      26.254   2.080  51.776  1.00  0.00     0.313 HD
ENDBRANCH  21  22
ENDBRANCH   1  21
BRANCH   8  25
HETATM   25  C9  UNL     1      25.349  -0.985  54.092  1.00  0.00     0.234 C 
HETATM   26  F2  UNL     1      25.907  -0.492  55.278  1.00  0.00    -0.242 F 
BRANCH  25  27
HETATM   27  C10 UNL     1      26.393  -0.860  53.042  1.00  0.00     0.264 C 
HETATM   28  F3  UNL     1      26.483  -1.944  52.209  1.00  0.00    -0.252 F 
ENDBRANCH  25  27
ENDBRANCH   8  25
TORSDOF 7
ENDMDL
MODEL 9
REMARK VINA RESULT:      -7.2      3.280      4.998
REMARK  7 active torsions:
REMARK  status: ('A' for Active; 'I' for Inactive)
REMARK    1  A    between atoms: N1_1  and  C1_2 
REMARK    2  A    between atoms: C1_2  and  C2_3 
REMARK    3  A    between atoms: C8_10  and  C9_11 
REMARK    4  A    between atoms: C9_11  and  C10_13 
REMARK    5  A    between atoms: C12_17  and  C13_18 
REMARK    6  A    between atoms: C13_18  and  C14_19 
REMARK    7  A    between atoms: C14_19  and  C15_20 
ROOT
HETATM    1  C2  UNL     1      20.930   0.626  50.997  1.00  0.00    -0.019 C 
HETATM    2  C3  UNL     1      21.671   0.276  52.034  1.00  0.00    -0.001 C 
HETATM    3  C4  UNL     1      21.409  -0.350  53.348  1.00  0.00     0.037 C 
HETATM    4  C5  UNL     1      20.388  -0.947  53.943  1.00  0.00     0.033 C 
HETATM    5  C6  UNL     1      19.032  -1.247  53.507  1.00  0.00     0.045 C 
HETATM    6  C7  UNL     1      18.301  -0.860  52.482  1.00  0.00     0.125 C 
HETATM    7  F1  UNL     1      17.085  -1.448  52.550  1.00  0.00    -0.205 F 
HETATM    8  C8  UNL     1      18.357  -0.020  51.299  1.00  0.00     0.017 C 
HETATM    9  C11 UNL     1      19.484   0.521  50.799  1.00  0.00     0.022 C 
HETATM   10  N2  UNL     1      22.749  -0.063  53.725  1.00  0.00    -0.381 N 
HETATM   11  C12 UNL     1      23.108   0.383  52.363  1.00  0.00     0.118 C 
HETATM   12  H11 UNL     1      23.331  -0.119  54.611  1.00  0.00     0.160 HD
ENDROOT
BRANCH  11  13
HETATM   13  C13 UNL     1      23.703   1.745  52.467  1.00  0.00     0.034 C 
BRANCH  13  14
HETATM   14  C14 UNL     1      25.065   1.691  51.804  1.00  0.00     0.041 C 
BRANCH  14  15
HETATM   15  C15 UNL     1      25.297   2.813  50.888  1.00  0.00    -0.058 A 
HETATM   16  C16 UNL     1      24.289   3.756  50.670  1.00  0.00     0.007 A 
HETATM   17  C17 UNL     1      24.551   4.796  49.800  1.00  0.00     0.001 A 
HETATM   18  C18 UNL     1      25.759   4.928  49.150  1.00  0.00     0.000 A 
HETATM   19  C19 UNL     1      26.755   3.994  49.368  1.00  0.00     0.001 A 
HETATM   20  C20 UNL     1      26.527   2.935  50.237  1.00  0.00     0.007 A 
ENDBRANCH  14  15
ENDBRANCH  13  14
ENDBRANCH  11  13
BRANCH   1  21
HETATM   21  C1  UNL     1      21.604   1.245  49.826  1.00  0.00     0.306 C 
BRANCH  21  22
HETATM   22  N1  UNL     1      20.714   1.343  48.690  1.00  0.00     0.082 N 
HETATM   23  H1  UNL     1      20.243   2.260  48.602  1.00  0.00     0.313 HD
HETATM   24  H2  UNL     1      21.238   1.077  47.817  1.00  0.00     0.313 HD
ENDBRANCH  21  22
ENDBRANCH   1  21
BRANCH   8  25
HETATM   25  C9  UNL     1      17.128   0.314  50.568  1.00  0.00     0.234 C 
HETATM   26  F2  UNL     1      17.070  -0.566  49.480  1.00  0.00    -0.242 F 
BRANCH  25  27
HETATM   27  C10 UNL     1      17.050   1.691  50.011  1.00  0.00     0.264 C 
HETATM   28  F3  UNL     1      17.108   1.745  48.643  1.00  0.00    -0.252 F 
ENDBRANCH  25  27
ENDBRANCH   8  25
TORSDOF 7
ENDMDL
