MODEL 1
REMARK VINA RESULT:      -6.7      0.000      0.000
REMARK  4 active torsions:
REMARK  status: ('A' for Active; 'I' for Inactive)
REMARK    1  A    between atoms: C2_2  and  C3_3 
REMARK    2  A    between atoms: C3_3  and  C4_4 
REMARK    3  A    between atoms: C5_5  and  N1_6 
REMARK    4  A    between atoms: C10_14  and  C11_15 
ROOT
HETATM    1  N1  UNL     1      24.991   0.750  53.444  1.00  0.00    -0.347 N 
HETATM    2  C6  UNL     1      24.341  -0.518  53.832  1.00  0.00     0.275 C 
HETATM    3  N2  UNL     1      22.940  -0.388  53.924  1.00  0.00    -0.263 NA
HETATM    4  C7  UNL     1      21.980  -1.087  53.491  1.00  0.00     0.230 C 
HETATM    5  N3  UNL     1      21.318  -0.031  54.160  1.00  0.00    -0.230 NA
HETATM    6  C8  UNL     1      20.785   0.995  53.626  1.00  0.00     0.259 C 
HETATM    7  O1  UNL     1      20.239   2.072  52.945  1.00  0.00    -0.307 OA
HETATM    8  C9  UNL     1      20.902   2.645  51.840  1.00  0.00     0.083 C 
HETATM    9  C10 UNL     1      20.297   2.860  50.668  1.00  0.00     0.053 C 
HETATM   10  C14 UNL     1      22.310   2.926  52.266  1.00  0.00     0.336 C 
HETATM   11  N4  UNL     1      22.950   1.672  52.661  1.00  0.00     0.106 N 
HETATM   12  C15 UNL     1      24.348   1.997  52.991  1.00  0.00     0.396 C 
HETATM   13  H19 UNL     1      22.938   1.008  51.837  1.00  0.00     0.318 HD
ENDROOT
BRANCH   1  14
HETATM   14  C5  UNL     1      26.418   0.565  53.607  1.00  0.00     0.085 C 
HETATM   15  C4  UNL     1      27.074   0.257  54.747  1.00  0.00    -0.004 C 
BRANCH  15  16
HETATM   16  C3  UNL     1      28.439   0.196  54.337  1.00  0.00     0.021 C 
BRANCH  16  17
HETATM   17  C2  UNL     1      29.599   0.192  53.806  1.00  0.00    -0.006 C 
HETATM   18  C1  UNL     1      29.759  -1.269  53.495  1.00  0.00     0.011 C 
ENDBRANCH  16  17
ENDBRANCH  15  16
ENDBRANCH   1  14
BRANCH   9  19
HETATM   19  C11 UNL     1      20.692   3.416  49.379  1.00  0.00     0.009 C 
HETATM   20 BR1  UNL     1      20.380   5.246  48.888  1.00  0.00    -0.051 Br
HETATM   21  C12 UNL     1      21.297   2.656  48.472  1.00  0.00    -0.012 C 
HETATM   22  C13 UNL     1      21.715   1.235  48.441  1.00  0.00     0.037 C 
ENDBRANCH   9  19
TORSDOF 4
ENDMDL
MODEL 2
REMARK VINA RESULT:      -6.7      4.743      7.572
REMARK  4 active torsions:
REMARK  status: ('A' for Active; 'I' for Inactive)
REMARK    1  A    between atoms: C2_2  and  C3_3 
REMARK    2  A    between atoms: C3_3  and  C4_4 
REMARK    3  A    between atoms: C5_5  and  N1_6 
REMARK    4  A    between atoms: C10_14  and  C11_15 
ROOT
HETATM    1  N1  UNL     1      25.681   4.564  50.063  1.00  0.00    -0.347 N 
HETATM    2  C6  UNL     1      24.469   4.921  50.829  1.00  0.00     0.275 C 
HETATM    3  N2  UNL     1      23.937   3.814  51.523  1.00  0.00    -0.263 NA
HETATM    4  C7  UNL     1      23.533   3.656  52.710  1.00  0.00     0.230 C 
HETATM    5  N3  UNL     1      23.332   2.377  52.140  1.00  0.00    -0.230 NA
HETATM    6  C8  UNL     1      24.078   1.354  52.279  1.00  0.00     0.259 C 
HETATM    7  O1  UNL     1      24.958   0.305  52.495  1.00  0.00    -0.307 OA
HETATM    8  C9  UNL     1      26.351   0.519  52.527  1.00  0.00     0.083 C 
HETATM    9  C10 UNL     1      27.126   0.077  53.522  1.00  0.00     0.053 C 
HETATM   10  C14 UNL     1      26.710   1.287  51.293  1.00  0.00     0.336 C 
HETATM   11  N4  UNL     1      25.989   2.559  51.294  1.00  0.00     0.106 N 
HETATM   12  C15 UNL     1      26.440   3.301  50.104  1.00  0.00     0.396 C 
HETATM   13  H19 UNL     1      26.260   3.104  52.160  1.00  0.00     0.318 HD
ENDROOT
BRANCH   1  14
HETATM   14  C5  UNL     1      26.000   5.696  49.219  1.00  0.00     0.085 C 
HETATM   15  C4  UNL     1      27.152   5.911  48.546  1.00  0.00    -0.004 C 
BRANCH  15  16
HETATM   16  C3  UNL     1      26.924   7.156  47.887  1.00  0.00     0.021 C 
BRANCH  16  17
HETATM   17  C2  UNL     1      26.892   8.308  47.342  1.00  0.00    -0.006 C 
HETATM   18  C1  UNL     1      25.645   8.191  46.513  1.00  0.00     0.011 C 
ENDBRANCH  16  17
ENDBRANCH  15  16
ENDBRANCH   1  14
BRANCH   9  19
HETATM   19  C11 UNL     1      28.548   0.132  53.837  1.00  0.00     0.009 C 
HETATM   20 BR1  UNL     1      29.416   1.718  54.487  1.00  0.00    -0.051 Br
HETATM   21  C12 UNL     1      29.318  -0.940  53.680  1.00  0.00    -0.012 C 
HETATM   22  C13 UNL     1      29.064  -2.324  53.217  1.00  0.00     0.037 C 
ENDBRANCH   9  19
TORSDOF 4
ENDMDL
MODEL 3
REMARK VINA RESULT:      -6.6      3.876      5.055
REMARK  4 active torsions:
REMARK  status: ('A' for Active; 'I' for Inactive)
REMARK    1  A    between atoms: C2_2  and  C3_3 
REMARK    2  A    between atoms: C3_3  and  C4_4 
REMARK    3  A    between atoms: C5_5  and  N1_6 
REMARK    4  A    between atoms: C10_14  and  C11_15 
ROOT
HETATM    1  N1  UNL     1      25.562   3.435  50.752  1.00  0.00    -0.347 N 
HETATM    2  C6  UNL     1      26.548   2.361  50.992  1.00  0.00     0.275 C 
HETATM    3  N2  UNL     1      26.094   1.432  51.950  1.00  0.00    -0.263 NA
HETATM    4  C7  UNL     1      26.072   0.168  51.981  1.00  0.00     0.230 C 
HETATM    5  N3  UNL     1      25.494   0.519  53.223  1.00  0.00    -0.230 NA
HETATM    6  C8  UNL     1      24.254   0.528  53.512  1.00  0.00     0.259 C 
HETATM    7  O1  UNL     1      22.883   0.504  53.720  1.00  0.00    -0.307 OA
HETATM    8  C9  UNL     1      21.989   0.937  52.720  1.00  0.00     0.083 C 
HETATM    9  C10 UNL     1      20.947   0.203  52.316  1.00  0.00     0.053 C 
HETATM   10  C14 UNL     1      22.449   2.289  52.269  1.00  0.00     0.336 C 
HETATM   11  N4  UNL     1      23.807   2.181  51.739  1.00  0.00     0.106 N 
HETATM   12  C15 UNL     1      24.174   3.517  51.241  1.00  0.00     0.396 C 
HETATM   13  H19 UNL     1      23.802   1.502  50.927  1.00  0.00     0.318 HD
ENDROOT
BRANCH   1  14
HETATM   14  C5  UNL     1      26.217   4.441  49.942  1.00  0.00     0.085 C 
HETATM   15  C4  UNL     1      27.148   4.236  48.984  1.00  0.00    -0.004 C 
BRANCH  15  16
HETATM   16  C3  UNL     1      27.439   5.553  48.518  1.00  0.00     0.021 C 
BRANCH  16  17
HETATM   17  C2  UNL     1      27.868   6.670  48.077  1.00  0.00    -0.006 C 
HETATM   18  C1  UNL     1      29.319   6.347  47.861  1.00  0.00     0.011 C 
ENDBRANCH  16  17
ENDBRANCH  15  16
ENDBRANCH   1  14
BRANCH   9  19
HETATM   19  C11 UNL     1      19.876   0.364  51.340  1.00  0.00     0.009 C 
HETATM   20 BR1  UNL     1      20.108   1.292  49.674  1.00  0.00    -0.051 Br
HETATM   21  C12 UNL     1      18.668  -0.137  51.574  1.00  0.00    -0.012 C 
HETATM   22  C13 UNL     1      18.075  -0.899  52.697  1.00  0.00     0.037 C 
ENDBRANCH   9  19
TORSDOF 4
ENDMDL
MODEL 4
REMARK VINA RESULT:      -6.6      1.761      2.240
REMARK  4 active torsions:
REMARK  status: ('A' for Active; 'I' for Inactive)
REMARK    1  A    between atoms: C2_2  and  C3_3 
REMARK    2  A    between atoms: C3_3  and  C4_4 
REMARK    3  A    between atoms: C5_5  and  N1_6 
REMARK    4  A    between atoms: C10_14  and  C11_15 
ROOT
HETATM    1  N1  UNL     1      24.579   0.768  53.093  1.00  0.00    -0.347 N 
HETATM    2  C6  UNL     1      23.590  -0.329  53.116  1.00  0.00     0.275 C 
HETATM    3  N2  UNL     1      22.266   0.155  53.153  1.00  0.00    -0.263 NA
HETATM    4  C7  UNL     1      21.222  -0.141  52.505  1.00  0.00     0.230 C 
HETATM    5  N3  UNL     1      20.769   0.879  53.374  1.00  0.00    -0.230 NA
HETATM    6  C8  UNL     1      20.580   2.103  53.080  1.00  0.00     0.259 C 
HETATM    7  O1  UNL     1      20.409   3.412  52.656  1.00  0.00    -0.307 OA
HETATM    8  C9  UNL     1      21.325   4.014  51.769  1.00  0.00     0.083 C 
HETATM    9  C10 UNL     1      20.943   4.642  50.653  1.00  0.00     0.053 C 
HETATM   10  C14 UNL     1      22.695   3.798  52.334  1.00  0.00     0.336 C 
HETATM   11  N4  UNL     1      22.947   2.362  52.443  1.00  0.00     0.106 N 
HETATM   12  C15 UNL     1      24.330   2.210  52.926  1.00  0.00     0.396 C 
HETATM   13  H19 UNL     1      22.871   1.928  51.481  1.00  0.00     0.318 HD
ENDROOT
BRANCH   1  14
HETATM   14  C5  UNL     1      25.883   0.169  53.289  1.00  0.00     0.085 C 
HETATM   15  C4  UNL     1      26.794  -0.128  52.336  1.00  0.00    -0.004 C 
BRANCH  15  16
HETATM   16  C3  UNL     1      27.878  -0.688  53.077  1.00  0.00     0.021 C 
BRANCH  16  17
HETATM   17  C2  UNL     1      28.954  -1.089  53.632  1.00  0.00    -0.006 C 
HETATM   18  C1  UNL     1      29.680   0.213  53.811  1.00  0.00     0.011 C 
ENDBRANCH  16  17
ENDBRANCH  15  16
ENDBRANCH   1  14
BRANCH   9  19
HETATM   19  C11 UNL     1      21.620   5.342  49.568  1.00  0.00     0.009 C 
HETATM   20 BR1  UNL     1      22.473   4.433  48.106  1.00  0.00    -0.051 Br
HETATM   21  C12 UNL     1      21.677   6.669  49.552  1.00  0.00    -0.012 C 
HETATM   22  C13 UNL     1      21.168   7.727  50.455  1.00  0.00     0.037 C 
ENDBRANCH   9  19
TORSDOF 4
ENDMDL
MODEL 5
REMARK VINA RESULT:      -6.5      6.087      7.735
REMARK  4 active torsions:
REMARK  status: ('A' for Active; 'I' for Inactive)
REMARK    1  A    between atoms: C2_2  and  C3_3 
REMARK    2  A    between atoms: C3_3  and  C4_4 
REMARK    3  A    between atoms: C5_5  and  N1_6 
REMARK    4  A    between atoms: C10_14  and  C11_15 
ROOT
HETATM    1  N1  UNL     1      26.891   5.970  48.990  1.00  0.00    -0.347 N 
HETATM    2  C6  UNL     1      25.980   7.024  49.479  1.00  0.00     0.275 C 
HETATM    3  N2  UNL     1      24.877   6.488  50.177  1.00  0.00    -0.263 NA
HETATM    4  C7  UNL     1      24.332   6.778  51.280  1.00  0.00     0.230 C 
HETATM    5  N3  UNL     1      23.546   5.696  50.819  1.00  0.00    -0.230 NA
HETATM    6  C8  UNL     1      23.621   4.483  51.198  1.00  0.00     0.259 C 
HETATM    7  O1  UNL     1      23.788   3.194  51.680  1.00  0.00    -0.307 OA
HETATM    8  C9  UNL     1      25.072   2.676  51.944  1.00  0.00     0.083 C 
HETATM    9  C10 UNL     1      25.392   2.096  53.104  1.00  0.00     0.053 C 
HETATM   10  C14 UNL     1      25.905   2.915  50.722  1.00  0.00     0.336 C 
HETATM   11  N4  UNL     1      25.969   4.351  50.458  1.00  0.00     0.106 N 
HETATM   12  C15 UNL     1      26.861   4.530  49.301  1.00  0.00     0.396 C 
HETATM   13  H19 UNL     1      26.397   4.834  51.298  1.00  0.00     0.318 HD
ENDROOT
BRANCH   1  14
HETATM   14  C5  UNL     1      27.843   6.608  48.105  1.00  0.00     0.085 C 
HETATM   15  C4  UNL     1      29.136   6.262  47.915  1.00  0.00    -0.004 C 
BRANCH  15  16
HETATM   16  C3  UNL     1      29.593   7.210  46.951  1.00  0.00     0.021 C 
BRANCH  16  17
HETATM   17  C2  UNL     1      30.158   7.964  46.090  1.00  0.00    -0.006 C 
HETATM   18  C1  UNL     1      31.549   7.399  46.094  1.00  0.00     0.011 C 
ENDBRANCH  16  17
ENDBRANCH  15  16
ENDBRANCH   1  14
BRANCH   9  19
HETATM   19  C11 UNL     1      26.589   1.482  53.666  1.00  0.00     0.009 C 
HETATM   20 BR1  UNL     1      28.332   2.281  53.544  1.00  0.00    -0.051 Br
HETATM   21  C12 UNL     1      26.518   0.316  54.299  1.00  0.00    -0.012 C 
HETATM   22  C13 UNL     1      25.407  -0.614  54.610  1.00  0.00     0.037 C 
ENDBRANCH   9  19
TORSDOF 4
ENDMDL
MODEL 6
REMARK VINA RESULT:      -6.4      4.310      7.358
REMARK  4 active torsions:
REMARK  status: ('A' for Active; 'I' for Inactive)
REMARK    1  A    between atoms: C2_2  and  C3_3 
REMARK    2  A    between atoms: C3_3  and  C4_4 
REMARK    3  A    between atoms: C5_5  and  N1_6 
REMARK    4  A    between atoms: C10_14  and  C11_15 
ROOT
HETATM    1  N1  UNL     1      24.161   5.494  50.440  1.00  0.00    -0.347 N 
HETATM    2  C6  UNL     1      25.285   5.121  49.557  1.00  0.00     0.275 C 
HETATM    3  N2  UNL     1      26.058   4.074  50.100  1.00  0.00    -0.263 NA
HETATM    4  C7  UNL     1      26.515   3.000  49.615  1.00  0.00     0.230 C 
HETATM    5  N3  UNL     1      26.973   2.956  50.953  1.00  0.00    -0.230 NA
HETATM    6  C8  UNL     1      26.468   2.286  51.911  1.00  0.00     0.259 C 
HETATM    7  O1  UNL     1      25.840   1.520  52.880  1.00  0.00    -0.307 OA
HETATM    8  C9  UNL     1      24.435   1.420  52.931  1.00  0.00     0.083 C 
HETATM    9  C10 UNL     1      23.796   0.247  52.994  1.00  0.00     0.053 C 
HETATM   10  C14 UNL     1      23.890   2.814  52.900  1.00  0.00     0.336 C 
HETATM   11  N4  UNL     1      24.320   3.470  51.666  1.00  0.00     0.106 N 
HETATM   12  C15 UNL     1      23.693   4.802  51.653  1.00  0.00     0.396 C 
HETATM   13  H19 UNL     1      23.959   2.913  50.841  1.00  0.00     0.318 HD
ENDROOT
BRANCH   1  14
HETATM   14  C5  UNL     1      23.586   6.711  49.905  1.00  0.00     0.085 C 
HETATM   15  C4  UNL     1      23.689   7.956  50.422  1.00  0.00    -0.004 C 
BRANCH  15  16
HETATM   16  C3  UNL     1      22.946   8.757  49.505  1.00  0.00     0.021 C 
BRANCH  16  17
HETATM   17  C2  UNL     1      22.259   9.321  48.589  1.00  0.00    -0.006 C 
HETATM   18  C1  UNL     1      20.912   9.385  49.248  1.00  0.00     0.011 C 
ENDBRANCH  16  17
ENDBRANCH  15  16
ENDBRANCH   1  14
BRANCH   9  19
HETATM   19  C11 UNL     1      22.403  -0.177  53.055  1.00  0.00     0.009 C 
HETATM   20 BR1  UNL     1      21.656  -1.104  54.563  1.00  0.00    -0.051 Br
HETATM   21  C12 UNL     1      21.577   0.065  52.043  1.00  0.00    -0.012 C 
HETATM   22  C13 UNL     1      21.735   0.731  50.729  1.00  0.00     0.037 C 
ENDBRANCH   9  19
TORSDOF 4
ENDMDL
MODEL 7
REMARK VINA RESULT:      -6.3      3.937      6.429
REMARK  4 active torsions:
REMARK  status: ('A' for Active; 'I' for Inactive)
REMARK    1  A    between atoms: C2_2  and  C3_3 
REMARK    2  A    between atoms: C3_3  and  C4_4 
REMARK    3  A    between atoms: C5_5  and  N1_6 
REMARK    4  A    between atoms: C10_14  and  C11_15 
ROOT
HETATM    1  N1  UNL     1      22.494   1.433  51.656  1.00  0.00    -0.347 N 
HETATM    2  C6  UNL     1      23.195   1.338  52.953  1.00  0.00     0.275 C 
HETATM    3  N2  UNL     1      24.566   1.647  52.836  1.00  0.00    -0.263 NA
HETATM    4  C7  UNL     1      25.342   2.386  53.506  1.00  0.00     0.230 C 
HETATM    5  N3  UNL     1      26.196   1.865  52.505  1.00  0.00    -0.230 NA
HETATM    6  C8  UNL     1      26.579   2.457  51.445  1.00  0.00     0.259 C 
HETATM    7  O1  UNL     1      26.934   3.191  50.324  1.00  0.00    -0.307 OA
HETATM    8  C9  UNL     1      25.996   4.014  49.667  1.00  0.00     0.083 C 
HETATM    9  C10 UNL     1      26.243   5.293  49.369  1.00  0.00     0.053 C 
HETATM   10  C14 UNL     1      24.778   3.182  49.412  1.00  0.00     0.336 C 
HETATM   11  N4  UNL     1      24.246   2.706  50.688  1.00  0.00     0.106 N 
HETATM   12  C15 UNL     1      23.011   1.965  50.383  1.00  0.00     0.396 C 
HETATM   13  H19 UNL     1      24.003   3.543  51.289  1.00  0.00     0.318 HD
ENDROOT
BRANCH   1  14
HETATM   14  C5  UNL     1      21.170   0.879  51.846  1.00  0.00     0.085 C 
HETATM   15  C4  UNL     1      20.701   0.249  52.946  1.00  0.00    -0.004 C 
BRANCH  15  16
HETATM   16  C3  UNL     1      19.359  -0.081  52.591  1.00  0.00     0.021 C 
BRANCH  16  17
HETATM   17  C2  UNL     1      18.210  -0.550  52.296  1.00  0.00    -0.006 C 
HETATM   18  C1  UNL     1      18.064  -1.614  53.346  1.00  0.00     0.011 C 
ENDBRANCH  16  17
ENDBRANCH  15  16
ENDBRANCH   1  14
BRANCH   9  19
HETATM   19  C11 UNL     1      25.508   6.371  48.717  1.00  0.00     0.009 C 
HETATM   20 BR1  UNL     1      23.609   6.598  48.891  1.00  0.00    -0.051 Br
HETATM   21  C12 UNL     1      26.142   7.258  47.957  1.00  0.00    -0.012 C 
HETATM   22  C13 UNL     1      27.559   7.445  47.567  1.00  0.00     0.037 C 
ENDBRANCH   9  19
TORSDOF 4
ENDMDL
MODEL 8
REMARK VINA RESULT:      -6.1     11.551     13.314
REMARK  4 active torsions:
REMARK  status: ('A' for Active; 'I' for Inactive)
REMARK    1  A    between atoms: C2_2  and  C3_3 
REMARK    2  A    between atoms: C3_3  and  C4_4 
REMARK    3  A    between atoms: C5_5  and  N1_6 
REMARK    4  A    between atoms: C10_14  and  C11_15 
ROOT
HETATM    1  N1  UNL     1      34.054   5.080  44.538  1.00  0.00    -0.347 N 
HETATM    2  C6  UNL     1      34.688   4.076  45.416  1.00  0.00     0.275 C 
HETATM    3  N2  UNL     1      34.805   4.535  46.745  1.00  0.00    -0.263 NA
HETATM    4  C7  UNL     1      34.539   4.009  47.863  1.00  0.00     0.230 C 
HETATM    5  N3  UNL     1      35.031   5.284  48.228  1.00  0.00    -0.230 NA
HETATM    6  C8  UNL     1      34.341   6.301  48.564  1.00  0.00     0.259 C 
HETATM    7  O1  UNL     1      33.497   7.343  48.913  1.00  0.00    -0.307 OA
HETATM    8  C9  UNL     1      32.285   7.559  48.227  1.00  0.00     0.083 C 
HETATM    9  C10 UNL     1      31.115   7.706  48.857  1.00  0.00     0.053 C 
HETATM   10  C14 UNL     1      32.601   7.579  46.763  1.00  0.00     0.336 C 
HETATM   11  N4  UNL     1      33.193   6.298  46.383  1.00  0.00     0.106 N 
HETATM   12  C15 UNL     1      33.408   6.347  44.927  1.00  0.00     0.396 C 
HETATM   13  H19 UNL     1      32.502   5.526  46.601  1.00  0.00     0.318 HD
ENDROOT
BRANCH   1  14
HETATM   14  C5  UNL     1      34.196   4.606  43.177  1.00  0.00     0.085 C 
HETATM   15  C4  UNL     1      33.238   4.565  42.225  1.00  0.00    -0.004 C 
BRANCH  15  16
HETATM   16  C3  UNL     1      33.917   4.019  41.095  1.00  0.00     0.021 C 
BRANCH  16  17
HETATM   17  C2  UNL     1      34.417   3.639  39.985  1.00  0.00    -0.006 C 
HETATM   18  C1  UNL     1      34.192   2.156  40.070  1.00  0.00     0.011 C 
ENDBRANCH  16  17
ENDBRANCH  15  16
ENDBRANCH   1  14
BRANCH   9  19
HETATM   19  C11 UNL     1      29.734   7.934  48.449  1.00  0.00     0.009 C 
HETATM   20 BR1  UNL     1      28.976   9.688  48.250  1.00  0.00    -0.051 Br
HETATM   21  C12 UNL     1      28.926   6.910  48.195  1.00  0.00    -0.012 C 
HETATM   22  C13 UNL     1      29.098   5.439  48.224  1.00  0.00     0.037 C 
ENDBRANCH   9  19
TORSDOF 4
ENDMDL
MODEL 9
REMARK VINA RESULT:      -5.9      3.506      7.060
REMARK  4 active torsions:
REMARK  status: ('A' for Active; 'I' for Inactive)
REMARK    1  A    between atoms: C2_2  and  C3_3 
REMARK    2  A    between atoms: C3_3  and  C4_4 
REMARK    3  A    between atoms: C5_5  and  N1_6 
REMARK    4  A    between atoms: C10_14  and  C11_15 
ROOT
HETATM    1  N1  UNL     1      19.429  -0.084  51.998  1.00  0.00    -0.347 N 
HETATM    2  C6  UNL     1      19.588  -0.547  53.391  1.00  0.00     0.275 C 
HETATM    3  N2  UNL     1      20.945  -0.652  53.761  1.00  0.00    -0.263 NA
HETATM    4  C7  UNL     1      21.592  -0.271  54.777  1.00  0.00     0.230 C 
HETATM    5  N3  UNL     1      22.589  -0.893  53.990  1.00  0.00    -0.230 NA
HETATM    6  C8  UNL     1      23.448  -0.315  53.250  1.00  0.00     0.259 C 
HETATM    7  O1  UNL     1      24.338   0.414  52.476  1.00  0.00    -0.307 OA
HETATM    8  C9  UNL     1      23.916   1.556  51.765  1.00  0.00     0.083 C 
HETATM    9  C10 UNL     1      24.552   2.729  51.842  1.00  0.00     0.053 C 
HETATM   10  C14 UNL     1      22.701   1.167  50.981  1.00  0.00     0.336 C 
HETATM   11  N4  UNL     1      21.660   0.716  51.903  1.00  0.00     0.106 N 
HETATM   12  C15 UNL     1      20.470   0.424  51.086  1.00  0.00     0.396 C 
HETATM   13  H19 UNL     1      21.432   1.504  52.571  1.00  0.00     0.318 HD
ENDROOT
BRANCH   1  14
HETATM   14  C5  UNL     1      18.030  -0.235  51.656  1.00  0.00     0.085 C 
HETATM   15  C4  UNL     1      17.466  -0.063  50.440  1.00  0.00    -0.004 C 
BRANCH  15  16
HETATM   16  C3  UNL     1      16.085  -0.338  50.674  1.00  0.00     0.021 C 
BRANCH  16  17
HETATM   17  C2  UNL     1      14.847  -0.424  50.971  1.00  0.00    -0.006 C 
HETATM   18  C1  UNL     1      14.729  -1.895  51.250  1.00  0.00     0.011 C 
ENDBRANCH  16  17
ENDBRANCH  15  16
ENDBRANCH   1  14
BRANCH   9  19
HETATM   19  C11 UNL     1      24.374   4.051  51.252  1.00  0.00     0.009 C 
HETATM   20 BR1  UNL     1      22.993   5.267  51.805  1.00  0.00    -0.051 Br
HETATM   21  C12 UNL     1      25.180   4.474  50.284  1.00  0.00    -0.012 C 
HETATM   22  C13 UNL     1      26.337   3.874  49.581  1.00  0.00     0.037 C 
ENDBRANCH   9  19
TORSDOF 4
ENDMDL
