MODEL 1
REMARK VINA RESULT:      -7.2      0.000      0.000
REMARK  7 active torsions:
REMARK  status: ('A' for Active; 'I' for Inactive)
REMARK    1  A    between atoms: N1_2  and  C3_4 
REMARK    2  A    between atoms: C3_4  and  C4_5 
REMARK    3  A    between atoms: C5_6  and  C6_7 
REMARK       I    between atoms: C6_7  and  N2_9 
REMARK    4  A    between atoms: N2_9  and  C7_10 
REMARK    5  A    between atoms: C10_13  and  C11_14 
REMARK    6  A    between atoms: C17_23  and  O2_24 
REMARK    7  A    between atoms: O2_24  and  C18_25 
ROOT
HETATM    1  C7  UNL     1      25.038   1.559  53.338  1.00  0.00     0.069 A 
HETATM    2  C8  UNL     1      23.679   1.617  52.998  1.00  0.00     0.047 A 
HETATM    3  C9  UNL     1      22.856   0.564  53.339  1.00  0.00     0.005 A 
HETATM    4  C10 UNL     1      21.513   0.537  53.073  1.00  0.00     0.005 A 
HETATM    5  C12 UNL     1      20.797  -0.578  53.499  1.00  0.00     0.071 A 
HETATM    6  C13 UNL     1      19.386  -0.631  53.239  1.00  0.00     0.101 C 
HETATM    7  N3  UNL     1      18.240  -0.689  53.025  1.00  0.00    -0.191 NA
HETATM    8  C14 UNL     1      21.433  -1.608  54.159  1.00  0.00     0.140 A 
HETATM    9  N4  UNL     1      22.775  -1.565  54.416  1.00  0.00    -0.259 NA
HETATM   10  C15 UNL     1      23.479  -0.471  54.001  1.00  0.00     0.070 A 
HETATM   11  C16 UNL     1      24.811  -0.554  54.346  1.00  0.00     0.071 A 
HETATM   12  C17 UNL     1      25.623   0.503  54.002  1.00  0.00     0.101 A 
ENDROOT
BRANCH   4  13
HETATM   13  C11 UNL     1      20.879   1.668  52.363  1.00  0.00     0.263 C 
HETATM   14  F1  UNL     1      20.382   2.640  53.195  1.00  0.00    -0.251 F 
ENDBRANCH   4  13
BRANCH   1  15
HETATM   15  N2  UNL     1      25.765   2.738  52.924  1.00  0.00    -0.321 N 
HETATM   16  C6  UNL     1      25.994   2.465  51.548  1.00  0.00     0.245 C 
HETATM   17  O1  UNL     1      25.499   1.331  51.189  1.00  0.00    -0.268 OA
HETATM   18  H11 UNL     1      26.209   3.667  53.068  1.00  0.00     0.169 HD
BRANCH  16  19
HETATM   19  C5  UNL     1      26.608   3.013  50.358  1.00  0.00     0.072 C 
HETATM   20  C4  UNL     1      25.997   4.168  50.104  1.00  0.00     0.008 C 
BRANCH  20  21
HETATM   21  C3  UNL     1      26.329   5.024  48.976  1.00  0.00     0.299 C 
BRANCH  21  22
HETATM   22  N1  UNL     1      25.393   6.144  48.853  1.00  0.00     0.083 N 
HETATM   23  C1  UNL     1      24.016   5.629  48.869  1.00  0.00     0.309 C 
HETATM   24  C2  UNL     1      25.491   6.918  50.113  1.00  0.00     0.309 C 
ENDBRANCH  21  22
ENDBRANCH  20  21
ENDBRANCH  16  19
ENDBRANCH   1  15
BRANCH  12  25
HETATM   25  O2  UNL     1      26.972   0.632  54.248  1.00  0.00    -0.319 OA
BRANCH  25  26
HETATM   26  C18 UNL     1      27.839  -0.293  53.644  1.00  0.00     0.398 C 
HETATM   27  F2  UNL     1      27.416  -0.612  52.355  1.00  0.00    -0.227 F 
ENDBRANCH  25  26
ENDBRANCH  12  25
TORSDOF 7
ENDMDL
MODEL 2
REMARK VINA RESULT:      -7.1      3.759      6.922
REMARK  7 active torsions:
REMARK  status: ('A' for Active; 'I' for Inactive)
REMARK    1  A    between atoms: N1_2  and  C3_4 
REMARK    2  A    between atoms: C3_4  and  C4_5 
REMARK    3  A    between atoms: C5_6  and  C6_7 
REMARK       I    between atoms: C6_7  and  N2_9 
REMARK    4  A    between atoms: N2_9  and  C7_10 
REMARK    5  A    between atoms: C10_13  and  C11_14 
REMARK    6  A    between atoms: C17_23  and  O2_24 
REMARK    7  A    between atoms: O2_24  and  C18_25 
ROOT
HETATM    1  C7  UNL     1      20.575   0.156  52.446  1.00  0.00     0.069 A 
HETATM    2  C8  UNL     1      21.946   0.446  52.465  1.00  0.00     0.047 A 
HETATM    3  C9  UNL     1      22.736  -0.103  53.454  1.00  0.00     0.005 A 
HETATM    4  C10 UNL     1      24.087   0.100  53.542  1.00  0.00     0.005 A 
HETATM    5  C12 UNL     1      24.765  -0.540  54.576  1.00  0.00     0.071 A 
HETATM    6  C13 UNL     1      26.184  -0.349  54.690  1.00  0.00     0.101 C 
HETATM    7  N3  UNL     1      27.336  -0.194  54.798  1.00  0.00    -0.191 NA
HETATM    8  C14 UNL     1      24.085  -1.340  55.469  1.00  0.00     0.140 A 
HETATM    9  N4  UNL     1      22.736  -1.532  55.366  1.00  0.00    -0.259 NA
HETATM   10  C15 UNL     1      22.069  -0.908  54.351  1.00  0.00     0.070 A 
HETATM   11  C16 UNL     1      20.723  -1.209  54.357  1.00  0.00     0.071 A 
HETATM   12  C17 UNL     1      19.945  -0.656  53.366  1.00  0.00     0.101 A 
ENDROOT
BRANCH   4  13
HETATM   13  C11 UNL     1      24.769   0.967  52.558  1.00  0.00     0.263 C 
HETATM   14  F1  UNL     1      24.919   2.266  52.971  1.00  0.00    -0.251 F 
ENDBRANCH   4  13
BRANCH   1  15
HETATM   15  N2  UNL     1      19.886   0.794  51.348  1.00  0.00    -0.321 N 
HETATM   16  C6  UNL     1      19.637   2.089  51.880  1.00  0.00     0.245 C 
HETATM   17  O1  UNL     1      20.090   2.217  53.079  1.00  0.00    -0.268 OA
HETATM   18  H11 UNL     1      19.475   0.837  50.394  1.00  0.00     0.169 HD
BRANCH  16  19
HETATM   19  C5  UNL     1      19.034   3.364  51.556  1.00  0.00     0.072 C 
HETATM   20  C4  UNL     1      17.715   3.184  51.571  1.00  0.00     0.008 C 
BRANCH  20  21
HETATM   21  C3  UNL     1      16.755   4.237  51.286  1.00  0.00     0.299 C 
BRANCH  21  22
HETATM   22  N1  UNL     1      15.390   3.835  51.634  1.00  0.00     0.083 N 
HETATM   23  C1  UNL     1      15.280   2.372  51.550  1.00  0.00     0.309 C 
HETATM   24  C2  UNL     1      15.223   4.116  53.080  1.00  0.00     0.309 C 
ENDBRANCH  21  22
ENDBRANCH  20  21
ENDBRANCH  16  19
ENDBRANCH   1  15
BRANCH  12  25
HETATM   25  O2  UNL     1      18.591  -0.822  53.179  1.00  0.00    -0.319 OA
BRANCH  25  26
HETATM   26  C18 UNL     1      18.025  -2.053  53.553  1.00  0.00     0.398 C 
HETATM   27  F2  UNL     1      16.866  -2.316  52.825  1.00  0.00    -0.227 F 
ENDBRANCH  25  26
ENDBRANCH  12  25
TORSDOF 7
ENDMDL
MODEL 3
REMARK VINA RESULT:      -7.1      2.841      7.390
REMARK  7 active torsions:
REMARK  status: ('A' for Active; 'I' for Inactive)
REMARK    1  A    between atoms: N1_2  and  C3_4 
REMARK    2  A    between atoms: C3_4  and  C4_5 
REMARK    3  A    between atoms: C5_6  and  C6_7 
REMARK       I    between atoms: C6_7  and  N2_9 
REMARK    4  A    between atoms: N2_9  and  C7_10 
REMARK    5  A    between atoms: C10_13  and  C11_14 
REMARK    6  A    between atoms: C17_23  and  O2_24 
REMARK    7  A    between atoms: O2_24  and  C18_25 
ROOT
HETATM    1  C7  UNL     1      23.425   0.804  52.525  1.00  0.00     0.069 A 
HETATM    2  C8  UNL     1      24.498  -0.094  52.613  1.00  0.00     0.047 A 
HETATM    3  C9  UNL     1      25.733   0.373  53.009  1.00  0.00     0.005 A 
HETATM    4  C10 UNL     1      26.835  -0.429  53.149  1.00  0.00     0.005 A 
HETATM    5  C12 UNL     1      28.014   0.171  53.584  1.00  0.00     0.071 A 
HETATM    6  C13 UNL     1      29.183  -0.646  53.746  1.00  0.00     0.101 C 
HETATM    7  N3  UNL     1      30.142  -1.299  53.871  1.00  0.00    -0.191 NA
HETATM    8  C14 UNL     1      28.051   1.522  53.856  1.00  0.00     0.140 A 
HETATM    9  N4  UNL     1      26.943   2.308  53.711  1.00  0.00    -0.259 NA
HETATM   10  C15 UNL     1      25.784   1.721  53.286  1.00  0.00     0.070 A 
HETATM   11  C16 UNL     1      24.748   2.626  53.207  1.00  0.00     0.071 A 
HETATM   12  C17 UNL     1      23.518   2.149  52.811  1.00  0.00     0.101 A 
ENDROOT
BRANCH   4  13
HETATM   13  C11 UNL     1      26.740  -1.872  52.846  1.00  0.00     0.263 C 
HETATM   14  F1  UNL     1      26.735  -2.160  51.504  1.00  0.00    -0.251 F 
ENDBRANCH   4  13
BRANCH   1  15
HETATM   15  N2  UNL     1      22.197   0.165  52.108  1.00  0.00    -0.321 N 
HETATM   16  C6  UNL     1      21.697  -0.328  53.344  1.00  0.00     0.245 C 
HETATM   17  O1  UNL     1      22.474  -0.042  54.332  1.00  0.00    -0.268 OA
HETATM   18  H11 UNL     1      21.480  -0.132  51.416  1.00  0.00     0.169 HD
BRANCH  16  19
HETATM   19  C5  UNL     1      20.593  -1.065  53.921  1.00  0.00     0.072 C 
HETATM   20  C4  UNL     1      19.517  -0.787  53.190  1.00  0.00     0.008 C 
BRANCH  20  21
HETATM   21  C3  UNL     1      18.197  -1.335  53.457  1.00  0.00     0.299 C 
BRANCH  21  22
HETATM   22  N1  UNL     1      17.160  -0.656  52.677  1.00  0.00     0.083 N 
HETATM   23  C1  UNL     1      17.703  -0.295  51.360  1.00  0.00     0.309 C 
HETATM   24  C2  UNL     1      16.131  -1.676  52.363  1.00  0.00     0.309 C 
ENDBRANCH  21  22
ENDBRANCH  20  21
ENDBRANCH  16  19
ENDBRANCH   1  15
BRANCH  12  25
HETATM   25  O2  UNL     1      22.353   2.868  52.668  1.00  0.00    -0.319 OA
BRANCH  25  26
HETATM   26  C18 UNL     1      22.440   4.149  52.097  1.00  0.00     0.398 C 
HETATM   27  F2  UNL     1      22.524   5.134  53.079  1.00  0.00    -0.227 F 
ENDBRANCH  25  26
ENDBRANCH  12  25
TORSDOF 7
ENDMDL
MODEL 4
REMARK VINA RESULT:      -7.1      2.679      4.980
REMARK  7 active torsions:
REMARK  status: ('A' for Active; 'I' for Inactive)
REMARK    1  A    between atoms: N1_2  and  C3_4 
REMARK    2  A    between atoms: C3_4  and  C4_5 
REMARK    3  A    between atoms: C5_6  and  C6_7 
REMARK       I    between atoms: C6_7  and  N2_9 
REMARK    4  A    between atoms: N2_9  and  C7_10 
REMARK    5  A    between atoms: C10_13  and  C11_14 
REMARK    6  A    between atoms: C17_23  and  O2_24 
REMARK    7  A    between atoms: O2_24  and  C18_25 
ROOT
HETATM    1  C7  UNL     1      23.036   2.529  52.377  1.00  0.00     0.069 A 
HETATM    2  C8  UNL     1      22.394   1.467  53.031  1.00  0.00     0.047 A 
HETATM    3  C9  UNL     1      21.132   1.092  52.621  1.00  0.00     0.005 A 
HETATM    4  C10 UNL     1      20.434   0.053  53.179  1.00  0.00     0.005 A 
HETATM    5  C12 UNL     1      19.180  -0.235  52.648  1.00  0.00     0.071 A 
HETATM    6  C13 UNL     1      18.428  -1.321  53.209  1.00  0.00     0.101 C 
HETATM    7  N3  UNL     1      17.804  -2.197  53.664  1.00  0.00    -0.191 NA
HETATM    8  C14 UNL     1      18.675   0.510  51.603  1.00  0.00     0.140 A 
HETATM    9  N4  UNL     1      19.384   1.543  51.059  1.00  0.00    -0.259 NA
HETATM   10  C15 UNL     1      20.616   1.826  51.576  1.00  0.00     0.070 A 
HETATM   11  C16 UNL     1      21.223   2.874  50.917  1.00  0.00     0.071 A 
HETATM   12  C17 UNL     1      22.483   3.240  51.333  1.00  0.00     0.101 A 
ENDROOT
BRANCH   4  13
HETATM   13  C11 UNL     1      21.022  -0.714  54.297  1.00  0.00     0.263 C 
HETATM   14  F1  UNL     1      21.434  -1.976  53.950  1.00  0.00    -0.251 F 
ENDBRANCH   4  13
BRANCH   1  15
HETATM   15  N2  UNL     1      24.352   2.796  52.911  1.00  0.00    -0.321 N 
HETATM   16  C6  UNL     1      25.132   1.801  52.260  1.00  0.00     0.245 C 
HETATM   17  O1  UNL     1      24.424   1.064  51.476  1.00  0.00    -0.268 OA
HETATM   18  H11 UNL     1      25.043   3.306  53.498  1.00  0.00     0.169 HD
BRANCH  16  19
HETATM   19  C5  UNL     1      26.482   1.291  52.156  1.00  0.00     0.072 C 
HETATM   20  C4  UNL     1      26.503   0.119  52.787  1.00  0.00     0.008 C 
BRANCH  20  21
HETATM   21  C3  UNL     1      27.691  -0.710  52.909  1.00  0.00     0.299 C 
BRANCH  21  22
HETATM   22  N1  UNL     1      28.804   0.024  53.514  1.00  0.00     0.083 N 
HETATM   23  C1  UNL     1      28.503   0.281  54.930  1.00  0.00     0.309 C 
HETATM   24  C2  UNL     1      29.951  -0.913  53.566  1.00  0.00     0.309 C 
ENDBRANCH  21  22
ENDBRANCH  20  21
ENDBRANCH  16  19
ENDBRANCH   1  15
BRANCH  12  25
HETATM   25  O2  UNL     1      23.270   4.247  50.820  1.00  0.00    -0.319 OA
BRANCH  25  26
HETATM   26  C18 UNL     1      23.625   4.173  49.463  1.00  0.00     0.398 C 
HETATM   27  F2  UNL     1      24.670   3.273  49.263  1.00  0.00    -0.227 F 
ENDBRANCH  25  26
ENDBRANCH  12  25
TORSDOF 7
ENDMDL
MODEL 5
REMARK VINA RESULT:      -7.1      2.553      5.289
REMARK  7 active torsions:
REMARK  status: ('A' for Active; 'I' for Inactive)
REMARK    1  A    between atoms: N1_2  and  C3_4 
REMARK    2  A    between atoms: C3_4  and  C4_5 
REMARK    3  A    between atoms: C5_6  and  C6_7 
REMARK       I    between atoms: C6_7  and  N2_9 
REMARK    4  A    between atoms: N2_9  and  C7_10 
REMARK    5  A    between atoms: C10_13  and  C11_14 
REMARK    6  A    between atoms: C17_23  and  O2_24 
REMARK    7  A    between atoms: O2_24  and  C18_25 
ROOT
HETATM    1  C7  UNL     1      24.150   2.927  52.738  1.00  0.00     0.069 A 
HETATM    2  C8  UNL     1      25.525   2.711  52.910  1.00  0.00     0.047 A 
HETATM    3  C9  UNL     1      25.988   1.420  53.060  1.00  0.00     0.005 A 
HETATM    4  C10 UNL     1      27.313   1.105  53.208  1.00  0.00     0.005 A 
HETATM    5  C12 UNL     1      27.642  -0.243  53.321  1.00  0.00     0.071 A 
HETATM    6  C13 UNL     1      29.023  -0.604  53.472  1.00  0.00     0.101 C 
HETATM    7  N3  UNL     1      30.143  -0.907  53.605  1.00  0.00    -0.191 NA
HETATM    8  C14 UNL     1      26.659  -1.209  53.285  1.00  0.00     0.140 A 
HETATM    9  N4  UNL     1      25.342  -0.877  53.136  1.00  0.00    -0.259 NA
HETATM   10  C15 UNL     1      25.016   0.445  53.023  1.00  0.00     0.070 A 
HETATM   11  C16 UNL     1      23.660   0.629  52.857  1.00  0.00     0.071 A 
HETATM   12  C17 UNL     1      23.209   1.921  52.708  1.00  0.00     0.101 A 
ENDROOT
BRANCH   4  13
HETATM   13  C11 UNL     1      28.327   2.179  53.239  1.00  0.00     0.263 C 
HETATM   14  F1  UNL     1      28.859   2.406  54.483  1.00  0.00    -0.251 F 
ENDBRANCH   4  13
BRANCH   1  15
HETATM   15  N2  UNL     1      23.822   4.326  52.585  1.00  0.00    -0.321 N 
HETATM   16  C6  UNL     1      24.170   4.555  51.226  1.00  0.00     0.245 C 
HETATM   17  O1  UNL     1      24.625   3.493  50.655  1.00  0.00    -0.268 OA
HETATM   18  H11 UNL     1      23.476   5.251  52.910  1.00  0.00     0.169 HD
BRANCH  16  19
HETATM   19  C5  UNL     1      24.205   5.585  50.210  1.00  0.00     0.072 C 
HETATM   20  C4  UNL     1      25.487   5.877  49.999  1.00  0.00     0.008 C 
BRANCH  20  21
HETATM   21  C3  UNL     1      25.939   6.878  49.046  1.00  0.00     0.299 C 
BRANCH  21  22
HETATM   22  N1  UNL     1      26.999   6.360  48.178  1.00  0.00     0.083 N 
HETATM   23  C1  UNL     1      28.210   7.173  48.354  1.00  0.00     0.309 C 
HETATM   24  C2  UNL     1      27.384   5.036  48.724  1.00  0.00     0.309 C 
ENDBRANCH  21  22
ENDBRANCH  20  21
ENDBRANCH  16  19
ENDBRANCH   1  15
BRANCH  12  25
HETATM   25  O2  UNL     1      21.907   2.333  52.527  1.00  0.00    -0.319 OA
BRANCH  25  26
HETATM   26  C18 UNL     1      20.889   1.379  52.693  1.00  0.00     0.398 C 
HETATM   27  F2  UNL     1      20.608   1.172  54.042  1.00  0.00    -0.227 F 
ENDBRANCH  25  26
ENDBRANCH  12  25
TORSDOF 7
ENDMDL
MODEL 6
REMARK VINA RESULT:      -7.0      3.039      5.726
REMARK  7 active torsions:
REMARK  status: ('A' for Active; 'I' for Inactive)
REMARK    1  A    between atoms: N1_2  and  C3_4 
REMARK    2  A    between atoms: C3_4  and  C4_5 
REMARK    3  A    between atoms: C5_6  and  C6_7 
REMARK       I    between atoms: C6_7  and  N2_9 
REMARK    4  A    between atoms: N2_9  and  C7_10 
REMARK    5  A    between atoms: C10_13  and  C11_14 
REMARK    6  A    between atoms: C17_23  and  O2_24 
REMARK    7  A    between atoms: O2_24  and  C18_25 
ROOT
HETATM    1  C7  UNL     1      20.903   0.116  52.503  1.00  0.00     0.069 A 
HETATM    2  C8  UNL     1      22.279   0.389  52.509  1.00  0.00     0.047 A 
HETATM    3  C9  UNL     1      23.059  -0.118  53.527  1.00  0.00     0.005 A 
HETATM    4  C10 UNL     1      24.413   0.071  53.608  1.00  0.00     0.005 A 
HETATM    5  C12 UNL     1      25.081  -0.522  54.676  1.00  0.00     0.071 A 
HETATM    6  C13 UNL     1      26.501  -0.345  54.784  1.00  0.00     0.101 C 
HETATM    7  N3  UNL     1      27.655  -0.200  54.886  1.00  0.00    -0.191 NA
HETATM    8  C14 UNL     1      24.388  -1.266  55.608  1.00  0.00     0.140 A 
HETATM    9  N4  UNL     1      23.037  -1.445  55.512  1.00  0.00    -0.259 NA
HETATM   10  C15 UNL     1      22.379  -0.866  54.464  1.00  0.00     0.070 A 
HETATM   11  C16 UNL     1      21.030  -1.149  54.482  1.00  0.00     0.071 A 
HETATM   12  C17 UNL     1      20.261  -0.638  53.461  1.00  0.00     0.101 A 
ENDROOT
BRANCH   4  13
HETATM   13  C11 UNL     1      25.107   0.877  52.583  1.00  0.00     0.263 C 
HETATM   14  F1  UNL     1      25.921   0.145  51.756  1.00  0.00    -0.251 F 
ENDBRANCH   4  13
BRANCH   1  15
HETATM   15  N2  UNL     1      20.225   0.705  51.371  1.00  0.00    -0.321 N 
HETATM   16  C6  UNL     1      20.030   2.041  51.818  1.00  0.00     0.245 C 
HETATM   17  O1  UNL     1      20.501   2.231  53.002  1.00  0.00    -0.268 OA
HETATM   18  H11 UNL     1      19.805   0.700  50.420  1.00  0.00     0.169 HD
BRANCH  16  19
HETATM   19  C5  UNL     1      19.469   3.313  51.415  1.00  0.00     0.072 C 
HETATM   20  C4  UNL     1      20.469   4.037  50.918  1.00  0.00     0.008 C 
BRANCH  20  21
HETATM   21  C3  UNL     1      20.309   5.390  50.409  1.00  0.00     0.299 C 
BRANCH  21  22
HETATM   22  N1  UNL     1      21.598   6.070  50.264  1.00  0.00     0.083 N 
HETATM   23  C1  UNL     1      21.462   7.465  50.707  1.00  0.00     0.309 C 
HETATM   24  C2  UNL     1      22.507   5.471  51.270  1.00  0.00     0.309 C 
ENDBRANCH  21  22
ENDBRANCH  20  21
ENDBRANCH  16  19
ENDBRANCH   1  15
BRANCH  12  25
HETATM   25  O2  UNL     1      18.905  -0.796  53.281  1.00  0.00    -0.319 OA
BRANCH  25  26
HETATM   26  C18 UNL     1      18.340  -2.037  53.621  1.00  0.00     0.398 C 
HETATM   27  F2  UNL     1      17.044  -2.153  53.121  1.00  0.00    -0.227 F 
ENDBRANCH  25  26
ENDBRANCH  12  25
TORSDOF 7
ENDMDL
MODEL 7
REMARK VINA RESULT:      -7.0      1.857      6.159
REMARK  7 active torsions:
REMARK  status: ('A' for Active; 'I' for Inactive)
REMARK    1  A    between atoms: N1_2  and  C3_4 
REMARK    2  A    between atoms: C3_4  and  C4_5 
REMARK    3  A    between atoms: C5_6  and  C6_7 
REMARK       I    between atoms: C6_7  and  N2_9 
REMARK    4  A    between atoms: N2_9  and  C7_10 
REMARK    5  A    between atoms: C10_13  and  C11_14 
REMARK    6  A    between atoms: C17_23  and  O2_24 
REMARK    7  A    between atoms: O2_24  and  C18_25 
ROOT
HETATM    1  C7  UNL     1      24.861   0.286  53.462  1.00  0.00     0.069 A 
HETATM    2  C8  UNL     1      24.332   1.538  53.117  1.00  0.00     0.047 A 
HETATM    3  C9  UNL     1      24.957   2.285  52.140  1.00  0.00     0.005 A 
HETATM    4  C10 UNL     1      24.503   3.506  51.717  1.00  0.00     0.005 A 
HETATM    5  C12 UNL     1      25.217   4.138  50.702  1.00  0.00     0.071 A 
HETATM    6  C13 UNL     1      24.762   5.416  50.234  1.00  0.00     0.101 C 
HETATM    7  N3  UNL     1      24.406   6.461  49.852  1.00  0.00    -0.191 NA
HETATM    8  C14 UNL     1      26.336   3.543  50.158  1.00  0.00     0.140 A 
HETATM    9  N4  UNL     1      26.775   2.324  50.593  1.00  0.00    -0.259 NA
HETATM   10  C15 UNL     1      26.075   1.701  51.587  1.00  0.00     0.070 A 
HETATM   11  C16 UNL     1      26.617   0.474  51.907  1.00  0.00     0.071 A 
HETATM   12  C17 UNL     1      25.985  -0.263  52.883  1.00  0.00     0.101 A 
ENDROOT
BRANCH   4  13
HETATM   13  C11 UNL     1      23.298   4.099  52.332  1.00  0.00     0.263 C 
HETATM   14  F1  UNL     1      23.556   4.853  53.449  1.00  0.00    -0.251 F 
ENDBRANCH   4  13
BRANCH   1  15
HETATM   15  N2  UNL     1      24.093  -0.378  54.490  1.00  0.00    -0.321 N 
HETATM   16  C6  UNL     1      22.910  -0.727  53.783  1.00  0.00     0.245 C 
HETATM   17  O1  UNL     1      22.949  -0.347  52.552  1.00  0.00    -0.268 OA
HETATM   18  H11 UNL     1      23.923  -0.742  55.449  1.00  0.00     0.169 HD
BRANCH  16  19
HETATM   19  C5  UNL     1      21.626  -1.375  53.947  1.00  0.00     0.072 C 
HETATM   20  C4  UNL     1      20.711  -0.557  53.431  1.00  0.00     0.008 C 
BRANCH  20  21
HETATM   21  C3  UNL     1      19.287  -0.851  53.411  1.00  0.00     0.299 C 
BRANCH  21  22
HETATM   22  N1  UNL     1      18.674  -0.472  52.136  1.00  0.00     0.083 N 
HETATM   23  C1  UNL     1      17.215  -0.408  52.300  1.00  0.00     0.309 C 
HETATM   24  C2  UNL     1      19.060   0.937  51.884  1.00  0.00     0.309 C 
ENDBRANCH  21  22
ENDBRANCH  20  21
ENDBRANCH  16  19
ENDBRANCH   1  15
BRANCH  12  25
HETATM   25  O2  UNL     1      26.348  -1.505  53.354  1.00  0.00    -0.319 OA
BRANCH  25  26
HETATM   26  C18 UNL     1      27.109  -2.330  52.509  1.00  0.00     0.398 C 
HETATM   27  F2  UNL     1      28.424  -2.435  52.958  1.00  0.00    -0.227 F 
ENDBRANCH  25  26
ENDBRANCH  12  25
TORSDOF 7
ENDMDL
MODEL 8
REMARK VINA RESULT:      -6.9      2.727      5.328
REMARK  7 active torsions:
REMARK  status: ('A' for Active; 'I' for Inactive)
REMARK    1  A    between atoms: N1_2  and  C3_4 
REMARK    2  A    between atoms: C3_4  and  C4_5 
REMARK    3  A    between atoms: C5_6  and  C6_7 
REMARK       I    between atoms: C6_7  and  N2_9 
REMARK    4  A    between atoms: N2_9  and  C7_10 
REMARK    5  A    between atoms: C10_13  and  C11_14 
REMARK    6  A    between atoms: C17_23  and  O2_24 
REMARK    7  A    between atoms: O2_24  and  C18_25 
ROOT
HETATM    1  C7  UNL     1      22.208   1.176  51.322  1.00  0.00     0.069 A 
HETATM    2  C8  UNL     1      23.559   1.333  51.663  1.00  0.00     0.047 A 
HETATM    3  C9  UNL     1      24.066   0.631  52.736  1.00  0.00     0.005 A 
HETATM    4  C10 UNL     1      25.376   0.697  53.131  1.00  0.00     0.005 A 
HETATM    5  C12 UNL     1      25.759  -0.088  54.215  1.00  0.00     0.071 A 
HETATM    6  C13 UNL     1      27.127  -0.042  54.649  1.00  0.00     0.101 C 
HETATM    7  N3  UNL     1      28.235  -0.006  55.015  1.00  0.00    -0.191 NA
HETATM    8  C14 UNL     1      24.841  -0.893  54.855  1.00  0.00     0.140 A 
HETATM    9  N4  UNL     1      23.537  -0.947  54.448  1.00  0.00    -0.259 NA
HETATM   10  C15 UNL     1      23.160  -0.180  53.382  1.00  0.00     0.070 A 
HETATM   11  C16 UNL     1      21.828  -0.352  53.071  1.00  0.00     0.071 A 
HETATM   12  C17 UNL     1      21.332   0.353  51.997  1.00  0.00     0.101 A 
ENDROOT
BRANCH   4  13
HETATM   13  C11 UNL     1      26.320   1.576  52.410  1.00  0.00     0.263 C 
HETATM   14  F1  UNL     1      26.819   1.029  51.255  1.00  0.00    -0.251 F 
ENDBRANCH   4  13
BRANCH   1  15
HETATM   15  N2  UNL     1      21.828   1.966  50.173  1.00  0.00    -0.321 N 
HETATM   16  C6  UNL     1      21.499   3.210  50.777  1.00  0.00     0.245 C 
HETATM   17  O1  UNL     1      21.650   3.184  52.057  1.00  0.00    -0.268 OA
HETATM   18  H11 UNL     1      21.664   2.133  49.160  1.00  0.00     0.169 HD
BRANCH  16  19
HETATM   19  C5  UNL     1      21.034   4.546  50.470  1.00  0.00     0.072 C 
HETATM   20  C4  UNL     1      21.882   5.394  51.048  1.00  0.00     0.008 C 
BRANCH  20  21
HETATM   21  C3  UNL     1      21.751   6.840  50.975  1.00  0.00     0.299 C 
BRANCH  21  22
HETATM   22  N1  UNL     1      23.045   7.491  50.754  1.00  0.00     0.083 N 
HETATM   23  C1  UNL     1      24.122   6.585  51.178  1.00  0.00     0.309 C 
HETATM   24  C2  UNL     1      23.225   7.585  49.286  1.00  0.00     0.309 C 
ENDBRANCH  21  22
ENDBRANCH  20  21
ENDBRANCH  16  19
ENDBRANCH   1  15
BRANCH  12  25
HETATM   25  O2  UNL     1      20.044   0.331  51.510  1.00  0.00    -0.319 OA
BRANCH  25  26
HETATM   26  C18 UNL     1      19.026  -0.115  52.370  1.00  0.00     0.398 C 
HETATM   27  F2  UNL     1      18.107  -0.913  51.691  1.00  0.00    -0.227 F 
ENDBRANCH  25  26
ENDBRANCH  12  25
TORSDOF 7
ENDMDL
MODEL 9
REMARK VINA RESULT:      -6.7      1.951      2.431
REMARK  7 active torsions:
REMARK  status: ('A' for Active; 'I' for Inactive)
REMARK    1  A    between atoms: N1_2  and  C3_4 
REMARK    2  A    between atoms: C3_4  and  C4_5 
REMARK    3  A    between atoms: C5_6  and  C6_7 
REMARK       I    between atoms: C6_7  and  N2_9 
REMARK    4  A    between atoms: N2_9  and  C7_10 
REMARK    5  A    between atoms: C10_13  and  C11_14 
REMARK    6  A    between atoms: C17_23  and  O2_24 
REMARK    7  A    between atoms: O2_24  and  C18_25 
ROOT
HETATM    1  C7  UNL     1      25.475   2.159  51.238  1.00  0.00     0.069 A 
HETATM    2  C8  UNL     1      24.122   1.797  51.177  1.00  0.00     0.047 A 
HETATM    3  C9  UNL     1      23.599   0.988  52.163  1.00  0.00     0.005 A 
HETATM    4  C10 UNL     1      22.286   0.601  52.206  1.00  0.00     0.005 A 
HETATM    5  C12 UNL     1      21.886  -0.196  53.275  1.00  0.00     0.071 A 
HETATM    6  C13 UNL     1      20.515  -0.613  53.349  1.00  0.00     0.101 C 
HETATM    7  N3  UNL     1      19.403  -0.965  53.413  1.00  0.00    -0.191 NA
HETATM    8  C14 UNL     1      22.792  -0.573  54.244  1.00  0.00     0.140 A 
HETATM    9  N4  UNL     1      24.099  -0.177  54.186  1.00  0.00    -0.259 NA
HETATM   10  C15 UNL     1      24.493   0.606  53.139  1.00  0.00     0.070 A 
HETATM   11  C16 UNL     1      25.827   0.945  53.222  1.00  0.00     0.071 A 
HETATM   12  C17 UNL     1      26.339   1.755  52.233  1.00  0.00     0.101 A 
ENDROOT
BRANCH   4  13
HETATM   13  C11 UNL     1      21.355   1.033  51.142  1.00  0.00     0.263 C 
HETATM   14  F1  UNL     1      21.353   0.218  50.039  1.00  0.00    -0.251 F 
ENDBRANCH   4  13
BRANCH   1  15
HETATM   15  N2  UNL     1      25.872   3.016  50.143  1.00  0.00    -0.321 N 
HETATM   16  C6  UNL     1      25.273   4.251  50.515  1.00  0.00     0.245 C 
HETATM   17  O1  UNL     1      24.632   4.164  51.630  1.00  0.00    -0.268 OA
HETATM   18  H11 UNL     1      26.347   3.234  49.244  1.00  0.00     0.169 HD
BRANCH  16  19
HETATM   19  C5  UNL     1      25.111   5.622  50.082  1.00  0.00     0.072 C 
HETATM   20  C4  UNL     1      25.803   5.756  48.952  1.00  0.00     0.008 C 
BRANCH  20  21
HETATM   21  C3  UNL     1      25.894   7.000  48.205  1.00  0.00     0.299 C 
BRANCH  21  22
HETATM   22  N1  UNL     1      27.285   7.405  47.996  1.00  0.00     0.083 N 
HETATM   23  C1  UNL     1      27.704   8.287  49.095  1.00  0.00     0.309 C 
HETATM   24  C2  UNL     1      28.113   6.190  48.187  1.00  0.00     0.309 C 
ENDBRANCH  21  22
ENDBRANCH  20  21
ENDBRANCH  16  19
ENDBRANCH   1  15
BRANCH  12  25
HETATM   25  O2  UNL     1      27.631   2.216  52.120  1.00  0.00    -0.319 OA
BRANCH  25  26
HETATM   26  C18 UNL     1      28.410   2.275  53.289  1.00  0.00     0.398 C 
HETATM   27  F2  UNL     1      29.272   1.183  53.375  1.00  0.00    -0.227 F 
ENDBRANCH  25  26
ENDBRANCH  12  25
TORSDOF 7
ENDMDL
