MODEL 1
REMARK VINA RESULT:      -8.5      0.000      0.000
REMARK  5 active torsions:
REMARK  status: ('A' for Active; 'I' for Inactive)
REMARK    1  A    between atoms: C2_2  and  C3_4 
REMARK    2  A    between atoms: C4_6  and  C5_7 
REMARK    3  A    between atoms: C6_8  and  N1_9 
REMARK    4  A    between atoms: N1_9  and  C7_10 
REMARK    5  A    between atoms: C15_21  and  O1_22 
ROOT
HETATM    1  C7  UNL     1      23.847  -0.042  53.843  1.00  0.00     0.159 A 
HETATM    2  N2  UNL     1      24.301  -0.864  54.788  1.00  0.00    -0.222 NA
HETATM    3  C8  UNL     1      23.442  -1.612  55.541  1.00  0.00     0.238 A 
HETATM    4  N3  UNL     1      22.126  -1.492  55.296  1.00  0.00    -0.215 NA
HETATM    5  C9  UNL     1      21.661  -0.666  54.345  1.00  0.00     0.202 A 
HETATM    6  C10 UNL     1      22.515   0.081  53.594  1.00  0.00     0.129 A 
HETATM    7  N4  UNL     1      22.267   0.996  52.565  1.00  0.00    -0.379 N 
HETATM    8  C11 UNL     1      21.127   1.216  51.742  1.00  0.00     0.161 C 
HETATM    9  C12 UNL     1      19.948   0.420  52.066  1.00  0.00    -0.006 A 
HETATM   10  C13 UNL     1      19.086   0.593  51.004  1.00  0.00     0.014 A 
HETATM   11  C14 UNL     1      17.832  -0.012  50.934  1.00  0.00     0.037 A 
HETATM   12  C15 UNL     1      17.423  -0.824  51.970  1.00  0.00     0.070 A 
HETATM   13  C17 UNL     1      18.260  -1.026  53.060  1.00  0.00     0.074 A 
HETATM   14  C18 UNL     1      19.503  -0.399  53.083  1.00  0.00     0.088 A 
HETATM   15  O2  UNL     1      20.272  -0.669  54.230  1.00  0.00    -0.289 OA
HETATM   16  H8  UNL     1      23.070   1.631  52.373  1.00  0.00     0.160 HD
ENDROOT
BRANCH   1  17
HETATM   17  N1  UNL     1      24.860   0.656  53.159  1.00  0.00    -0.349 N 
HETATM   18  H6  UNL     1      25.351   1.562  53.054  1.00  0.00     0.167 HD
BRANCH  17  19
HETATM   19  C6  UNL     1      25.654   0.038  52.157  1.00  0.00     0.090 C 
HETATM   20  C5  UNL     1      26.799   0.586  51.782  1.00  0.00     0.020 C 
BRANCH  20  21
HETATM   21  C4  UNL     1      27.239   1.827  52.405  1.00  0.00     0.045 C 
HETATM   22  C3  UNL     1      28.254   1.852  53.230  1.00  0.00     0.135 C 
HETATM   23  F1  UNL     1      28.688   2.966  53.822  1.00  0.00    -0.204 F 
BRANCH  22  24
HETATM   24  C2  UNL     1      29.019   0.663  53.590  1.00  0.00     0.038 C 
HETATM   25  C1  UNL     1      28.858  -0.088  54.686  1.00  0.00     0.206 C 
HETATM   26 CL1  UNL     1      30.141  -0.656  53.625  1.00  0.00    -0.221 Cl
ENDBRANCH  22  24
ENDBRANCH  20  21
ENDBRANCH  17  19
ENDBRANCH   1  17
BRANCH  12  27
HETATM   27  O1  UNL     1      16.214  -1.499  52.060  1.00  0.00    -0.356 OA
HETATM   28  C16 UNL     1      14.985  -0.856  52.321  1.00  0.00     0.210 C 
ENDBRANCH  12  27
TORSDOF 5
ENDMDL
MODEL 2
REMARK VINA RESULT:      -8.1      4.929      7.039
REMARK  5 active torsions:
REMARK  status: ('A' for Active; 'I' for Inactive)
REMARK    1  A    between atoms: C2_2  and  C3_4 
REMARK    2  A    between atoms: C4_6  and  C5_7 
REMARK    3  A    between atoms: C6_8  and  N1_9 
REMARK    4  A    between atoms: N1_9  and  C7_10 
REMARK    5  A    between atoms: C15_21  and  O1_22 
ROOT
HETATM    1  C7  UNL     1      25.486   4.509  49.652  1.00  0.00     0.159 A 
HETATM    2  N2  UNL     1      24.471   5.240  49.191  1.00  0.00    -0.222 NA
HETATM    3  C8  UNL     1      23.179   4.825  49.346  1.00  0.00     0.238 A 
HETATM    4  N3  UNL     1      22.967   3.658  49.977  1.00  0.00    -0.215 NA
HETATM    5  C9  UNL     1      23.984   2.917  50.444  1.00  0.00     0.202 A 
HETATM    6  C10 UNL     1      25.272   3.328  50.291  1.00  0.00     0.129 A 
HETATM    7  N4  UNL     1      26.475   2.733  50.687  1.00  0.00    -0.379 N 
HETATM    8  C11 UNL     1      26.765   1.713  51.636  1.00  0.00     0.161 C 
HETATM    9  C12 UNL     1      25.608   1.084  52.264  1.00  0.00    -0.006 A 
HETATM   10  C13 UNL     1      26.116   0.347  53.312  1.00  0.00     0.014 A 
HETATM   11  C14 UNL     1      25.318  -0.412  54.168  1.00  0.00     0.037 A 
HETATM   12  C15 UNL     1      23.955  -0.432  53.967  1.00  0.00     0.070 A 
HETATM   13  C17 UNL     1      23.401   0.297  52.923  1.00  0.00     0.074 A 
HETATM   14  C18 UNL     1      24.240   1.039  52.095  1.00  0.00     0.088 A 
HETATM   15  O2  UNL     1      23.579   1.740  51.071  1.00  0.00    -0.289 OA
HETATM   16  H8  UNL     1      27.308   3.112  50.188  1.00  0.00     0.160 HD
ENDROOT
BRANCH   1  17
HETATM   17  N1  UNL     1      26.752   5.076  49.412  1.00  0.00    -0.349 N 
HETATM   18  H6  UNL     1      27.775   4.959  49.525  1.00  0.00     0.167 HD
BRANCH  17  19
HETATM   19  C6  UNL     1      26.904   6.324  48.753  1.00  0.00     0.090 C 
HETATM   20  C5  UNL     1      28.029   6.610  48.116  1.00  0.00     0.020 C 
BRANCH  20  21
HETATM   21  C4  UNL     1      29.109   5.632  48.095  1.00  0.00     0.045 C 
HETATM   22  C3  UNL     1      30.328   5.956  48.438  1.00  0.00     0.135 C 
HETATM   23  F1  UNL     1      31.345   5.091  48.432  1.00  0.00    -0.204 F 
BRANCH  22  24
HETATM   24  C2  UNL     1      30.708   7.299  48.863  1.00  0.00     0.038 C 
HETATM   25  C1  UNL     1      31.842   7.651  49.480  1.00  0.00     0.206 C 
HETATM   26 CL1  UNL     1      30.751   9.000  49.189  1.00  0.00    -0.221 Cl
ENDBRANCH  22  24
ENDBRANCH  20  21
ENDBRANCH  17  19
ENDBRANCH   1  17
BRANCH  12  27
HETATM   27  O1  UNL     1      23.022  -1.129  54.721  1.00  0.00    -0.356 OA
HETATM   28  C16 UNL     1      21.632  -1.071  54.482  1.00  0.00     0.210 C 
ENDBRANCH  12  27
TORSDOF 5
ENDMDL
MODEL 3
REMARK VINA RESULT:      -8.0      4.876      8.045
REMARK  5 active torsions:
REMARK  status: ('A' for Active; 'I' for Inactive)
REMARK    1  A    between atoms: C2_2  and  C3_4 
REMARK    2  A    between atoms: C4_6  and  C5_7 
REMARK    3  A    between atoms: C6_8  and  N1_9 
REMARK    4  A    between atoms: N1_9  and  C7_10 
REMARK    5  A    between atoms: C15_21  and  O1_22 
ROOT
HETATM    1  C7  UNL     1      24.785   4.738  50.275  1.00  0.00     0.159 A 
HETATM    2  N2  UNL     1      25.486   5.168  49.226  1.00  0.00    -0.222 NA
HETATM    3  C8  UNL     1      26.705   4.630  48.928  1.00  0.00     0.238 A 
HETATM    4  N3  UNL     1      27.174   3.655  49.725  1.00  0.00    -0.215 NA
HETATM    5  C9  UNL     1      26.473   3.217  50.784  1.00  0.00     0.202 A 
HETATM    6  C10 UNL     1      25.257   3.751  51.083  1.00  0.00     0.129 A 
HETATM    7  N4  UNL     1      24.361   3.461  52.118  1.00  0.00    -0.379 N 
HETATM    8  C11 UNL     1      24.239   2.338  52.983  1.00  0.00     0.161 C 
HETATM    9  C12 UNL     1      25.281   1.325  52.859  1.00  0.00    -0.006 A 
HETATM   10  C13 UNL     1      24.822   0.238  53.573  1.00  0.00     0.014 A 
HETATM   11  C14 UNL     1      25.541  -0.950  53.699  1.00  0.00     0.037 A 
HETATM   12  C15 UNL     1      26.770  -1.055  53.083  1.00  0.00     0.070 A 
HETATM   13  C17 UNL     1      27.270   0.015  52.353  1.00  0.00     0.074 A 
HETATM   14  C18 UNL     1      26.514   1.181  52.258  1.00  0.00     0.088 A 
HETATM   15  O2  UNL     1      27.110   2.203  51.497  1.00  0.00    -0.289 OA
HETATM   16  H8  UNL     1      23.657   4.212  52.278  1.00  0.00     0.160 HD
ENDROOT
BRANCH   1  17
HETATM   17  N1  UNL     1      23.552   5.393  50.444  1.00  0.00    -0.349 N 
HETATM   18  H6  UNL     1      22.976   5.982  51.074  1.00  0.00     0.167 HD
BRANCH  17  19
HETATM   19  C6  UNL     1      22.536   5.354  49.452  1.00  0.00     0.090 C 
HETATM   20  C5  UNL     1      21.335   4.882  49.746  1.00  0.00     0.020 C 
BRANCH  20  21
HETATM   21  C4  UNL     1      21.062   4.406  51.095  1.00  0.00     0.045 C 
HETATM   22  C3  UNL     1      21.006   3.128  51.368  1.00  0.00     0.135 C 
HETATM   23  F1  UNL     1      20.758   2.652  52.590  1.00  0.00    -0.204 F 
BRANCH  22  24
HETATM   24  C2  UNL     1      21.207   2.088  50.365  1.00  0.00     0.038 C 
HETATM   25  C1  UNL     1      21.562   0.818  50.592  1.00  0.00     0.206 C 
HETATM   26 CL1  UNL     1      21.335   1.192  48.889  1.00  0.00    -0.221 Cl
ENDBRANCH  22  24
ENDBRANCH  20  21
ENDBRANCH  17  19
ENDBRANCH   1  17
BRANCH  12  27
HETATM   27  O1  UNL     1      27.611  -2.159  53.106  1.00  0.00    -0.356 OA
HETATM   28  C16 UNL     1      29.016  -2.062  53.199  1.00  0.00     0.210 C 
ENDBRANCH  12  27
TORSDOF 5
ENDMDL
MODEL 4
REMARK VINA RESULT:      -8.0      3.663      7.335
REMARK  5 active torsions:
REMARK  status: ('A' for Active; 'I' for Inactive)
REMARK    1  A    between atoms: C2_2  and  C3_4 
REMARK    2  A    between atoms: C4_6  and  C5_7 
REMARK    3  A    between atoms: C6_8  and  N1_9 
REMARK    4  A    between atoms: N1_9  and  C7_10 
REMARK    5  A    between atoms: C15_21  and  O1_22 
ROOT
HETATM    1  C7  UNL     1      21.058   0.927  53.347  1.00  0.00     0.159 A 
HETATM    2  N2  UNL     1      20.286  -0.057  53.809  1.00  0.00    -0.222 NA
HETATM    3  C8  UNL     1      20.818  -1.266  54.153  1.00  0.00     0.238 A 
HETATM    4  N3  UNL     1      22.145  -1.431  54.012  1.00  0.00    -0.215 NA
HETATM    5  C9  UNL     1      22.929  -0.445  53.548  1.00  0.00     0.202 A 
HETATM    6  C10 UNL     1      22.401   0.762  53.204  1.00  0.00     0.129 A 
HETATM    7  N4  UNL     1      23.011   1.918  52.705  1.00  0.00    -0.379 N 
HETATM    8  C11 UNL     1      24.366   2.350  52.697  1.00  0.00     0.161 C 
HETATM    9  C12 UNL     1      25.340   1.394  53.211  1.00  0.00    -0.006 A 
HETATM   10  C13 UNL     1      26.511   2.108  53.358  1.00  0.00     0.014 A 
HETATM   11  C14 UNL     1      27.694   1.541  53.832  1.00  0.00     0.037 A 
HETATM   12  C15 UNL     1      27.705   0.206  54.173  1.00  0.00     0.070 A 
HETATM   13  C17 UNL     1      26.548  -0.550  54.041  1.00  0.00     0.074 A 
HETATM   14  C18 UNL     1      25.391   0.062  53.563  1.00  0.00     0.088 A 
HETATM   15  O2  UNL     1      24.277  -0.791  53.467  1.00  0.00    -0.289 OA
HETATM   16  H8  UNL     1      22.340   2.579  52.258  1.00  0.00     0.160 HD
ENDROOT
BRANCH   1  17
HETATM   17  N1  UNL     1      20.356   2.106  53.039  1.00  0.00    -0.349 N 
HETATM   18  H6  UNL     1      20.116   3.065  53.353  1.00  0.00     0.167 HD
BRANCH  17  19
HETATM   19  C6  UNL     1      19.598   2.240  51.845  1.00  0.00     0.090 C 
HETATM   20  C5  UNL     1      19.785   3.282  51.050  1.00  0.00     0.020 C 
BRANCH  20  21
HETATM   21  C4  UNL     1      20.775   4.288  51.406  1.00  0.00     0.045 C 
HETATM   22  C3  UNL     1      21.873   4.440  50.711  1.00  0.00     0.135 C 
HETATM   23  F1  UNL     1      22.805   5.349  51.004  1.00  0.00    -0.204 F 
BRANCH  22  24
HETATM   24  C2  UNL     1      22.195   3.631  49.541  1.00  0.00     0.038 C 
HETATM   25  C1  UNL     1      23.409   3.202  49.176  1.00  0.00     0.206 C 
HETATM   26 CL1  UNL     1      22.126   2.697  48.083  1.00  0.00    -0.221 Cl
ENDBRANCH  22  24
ENDBRANCH  20  21
ENDBRANCH  17  19
ENDBRANCH   1  17
BRANCH  12  27
HETATM   27  O1  UNL     1      28.790  -0.511  54.658  1.00  0.00    -0.356 OA
HETATM   28  C16 UNL     1      29.817  -1.016  53.833  1.00  0.00     0.210 C 
ENDBRANCH  12  27
TORSDOF 5
ENDMDL
MODEL 5
REMARK VINA RESULT:      -7.8      2.128      3.377
REMARK  5 active torsions:
REMARK  status: ('A' for Active; 'I' for Inactive)
REMARK    1  A    between atoms: C2_2  and  C3_4 
REMARK    2  A    between atoms: C4_6  and  C5_7 
REMARK    3  A    between atoms: C6_8  and  N1_9 
REMARK    4  A    between atoms: N1_9  and  C7_10 
REMARK    5  A    between atoms: C15_21  and  O1_22 
ROOT
HETATM    1  C7  UNL     1      23.808   2.378  51.277  1.00  0.00     0.159 A 
HETATM    2  N2  UNL     1      23.915   3.303  50.324  1.00  0.00    -0.222 NA
HETATM    3  C8  UNL     1      22.947   3.447  49.372  1.00  0.00     0.238 A 
HETATM    4  N3  UNL     1      21.885   2.625  49.428  1.00  0.00    -0.215 NA
HETATM    5  C9  UNL     1      21.770   1.690  50.385  1.00  0.00     0.202 A 
HETATM    6  C10 UNL     1      22.734   1.545  51.335  1.00  0.00     0.129 A 
HETATM    7  N4  UNL     1      22.830   0.656  52.411  1.00  0.00    -0.379 N 
HETATM    8  C11 UNL     1      21.859  -0.145  53.073  1.00  0.00     0.161 C 
HETATM    9  C12 UNL     1      20.522  -0.134  52.488  1.00  0.00    -0.006 A 
HETATM   10  C13 UNL     1      19.709  -0.740  53.421  1.00  0.00     0.014 A 
HETATM   11  C14 UNL     1      18.339  -0.924  53.234  1.00  0.00     0.037 A 
HETATM   12  C15 UNL     1      17.760  -0.483  52.063  1.00  0.00     0.070 A 
HETATM   13  C17 UNL     1      18.543   0.134  51.096  1.00  0.00     0.074 A 
HETATM   14  C18 UNL     1      19.906   0.294  51.330  1.00  0.00     0.088 A 
HETATM   15  O2  UNL     1      20.607   0.930  50.289  1.00  0.00    -0.289 OA
HETATM   16  H8  UNL     1      23.797   0.570  52.792  1.00  0.00     0.160 HD
ENDROOT
BRANCH   1  17
HETATM   17  N1  UNL     1      24.888   2.360  52.179  1.00  0.00    -0.349 N 
HETATM   18  H6  UNL     1      25.169   2.295  53.175  1.00  0.00     0.167 HD
BRANCH  17  19
HETATM   19  C6  UNL     1      26.235   2.463  51.742  1.00  0.00     0.090 C 
HETATM   20  C5  UNL     1      26.994   1.382  51.659  1.00  0.00     0.020 C 
BRANCH  20  21
HETATM   21  C4  UNL     1      26.436   0.085  52.018  1.00  0.00     0.045 C 
HETATM   22  C3  UNL     1      27.095  -0.754  52.774  1.00  0.00     0.135 C 
HETATM   23  F1  UNL     1      26.620  -1.951  53.125  1.00  0.00    -0.204 F 
BRANCH  22  24
HETATM   24  C2  UNL     1      28.421  -0.472  53.313  1.00  0.00     0.038 C 
HETATM   25  C1  UNL     1      28.711  -0.096  54.564  1.00  0.00     0.206 C 
HETATM   26 CL1  UNL     1      30.124  -0.240  53.528  1.00  0.00    -0.221 Cl
ENDBRANCH  22  24
ENDBRANCH  20  21
ENDBRANCH  17  19
ENDBRANCH   1  17
BRANCH  12  27
HETATM   27  O1  UNL     1      16.420  -0.586  51.718  1.00  0.00    -0.356 OA
HETATM   28  C16 UNL     1      15.365  -0.271  52.600  1.00  0.00     0.210 C 
ENDBRANCH  12  27
TORSDOF 5
ENDMDL
MODEL 6
REMARK VINA RESULT:      -7.6      4.466      7.804
REMARK  5 active torsions:
REMARK  status: ('A' for Active; 'I' for Inactive)
REMARK    1  A    between atoms: C2_2  and  C3_4 
REMARK    2  A    between atoms: C4_6  and  C5_7 
REMARK    3  A    between atoms: C6_8  and  N1_9 
REMARK    4  A    between atoms: N1_9  and  C7_10 
REMARK    5  A    between atoms: C15_21  and  O1_22 
ROOT
HETATM    1  C7  UNL     1      20.754   4.311  51.374  1.00  0.00     0.159 A 
HETATM    2  N2  UNL     1      21.022   5.526  50.896  1.00  0.00    -0.222 NA
HETATM    3  C8  UNL     1      22.245   6.104  51.091  1.00  0.00     0.238 A 
HETATM    4  N3  UNL     1      23.165   5.406  51.779  1.00  0.00    -0.215 NA
HETATM    5  C9  UNL     1      22.902   4.182  52.263  1.00  0.00     0.202 A 
HETATM    6  C10 UNL     1      21.684   3.605  52.070  1.00  0.00     0.129 A 
HETATM    7  N4  UNL     1      21.189   2.361  52.475  1.00  0.00    -0.379 N 
HETATM    8  C11 UNL     1      21.839   1.174  52.913  1.00  0.00     0.161 C 
HETATM    9  C12 UNL     1      23.287   1.265  53.070  1.00  0.00    -0.006 A 
HETATM   10  C13 UNL     1      23.721  -0.033  53.230  1.00  0.00     0.014 A 
HETATM   11  C14 UNL     1      25.061  -0.372  53.412  1.00  0.00     0.037 A 
HETATM   12  C15 UNL     1      26.006   0.631  53.434  1.00  0.00     0.070 A 
HETATM   13  C17 UNL     1      25.613   1.953  53.277  1.00  0.00     0.074 A 
HETATM   14  C18 UNL     1      24.262   2.240  53.098  1.00  0.00     0.088 A 
HETATM   15  O2  UNL     1      23.971   3.608  52.948  1.00  0.00    -0.289 OA
HETATM   16  H8  UNL     1      20.148   2.301  52.449  1.00  0.00     0.160 HD
ENDROOT
BRANCH   1  17
HETATM   17  N1  UNL     1      19.452   3.861  51.088  1.00  0.00    -0.349 N 
HETATM   18  H6  UNL     1      18.580   3.462  51.481  1.00  0.00     0.167 HD
BRANCH  17  19
HETATM   19  C6  UNL     1      18.922   3.878  49.770  1.00  0.00     0.090 C 
HETATM   20  C5  UNL     1      18.998   2.800  49.007  1.00  0.00     0.020 C 
BRANCH  20  21
HETATM   21  C4  UNL     1      19.626   1.594  49.529  1.00  0.00     0.045 C 
HETATM   22  C3  UNL     1      20.841   1.254  49.184  1.00  0.00     0.135 C 
HETATM   23  F1  UNL     1      21.452   0.159  49.639  1.00  0.00    -0.204 F 
BRANCH  22  24
HETATM   24  C2  UNL     1      21.657   2.038  48.262  1.00  0.00     0.038 C 
HETATM   25  C1  UNL     1      22.735   2.767  48.572  1.00  0.00     0.206 C 
HETATM   26 CL1  UNL     1      22.325   2.809  46.862  1.00  0.00    -0.221 Cl
ENDBRANCH  22  24
ENDBRANCH  20  21
ENDBRANCH  17  19
ENDBRANCH   1  17
BRANCH  12  27
HETATM   27  O1  UNL     1      27.374   0.469  53.604  1.00  0.00    -0.356 OA
HETATM   28  C16 UNL     1      28.079  -0.676  53.176  1.00  0.00     0.210 C 
ENDBRANCH  12  27
TORSDOF 5
ENDMDL
MODEL 7
REMARK VINA RESULT:      -7.5      2.500      3.246
REMARK  5 active torsions:
REMARK  status: ('A' for Active; 'I' for Inactive)
REMARK    1  A    between atoms: C2_2  and  C3_4 
REMARK    2  A    between atoms: C4_6  and  C5_7 
REMARK    3  A    between atoms: C6_8  and  N1_9 
REMARK    4  A    between atoms: N1_9  and  C7_10 
REMARK    5  A    between atoms: C15_21  and  O1_22 
ROOT
HETATM    1  C7  UNL     1      23.305  -0.139  53.746  1.00  0.00     0.159 A 
HETATM    2  N2  UNL     1      22.741  -1.286  54.121  1.00  0.00    -0.222 NA
HETATM    3  C8  UNL     1      21.383  -1.426  54.147  1.00  0.00     0.238 A 
HETATM    4  N3  UNL     1      20.636  -0.370  53.783  1.00  0.00    -0.215 NA
HETATM    5  C9  UNL     1      21.197   0.790  53.404  1.00  0.00     0.202 A 
HETATM    6  C10 UNL     1      22.551   0.931  53.377  1.00  0.00     0.129 A 
HETATM    7  N4  UNL     1      23.348   2.026  53.025  1.00  0.00    -0.379 N 
HETATM    8  C11 UNL     1      23.069   3.208  52.285  1.00  0.00     0.161 C 
HETATM    9  C12 UNL     1      21.678   3.390  51.882  1.00  0.00    -0.006 A 
HETATM   10  C13 UNL     1      21.693   4.425  50.972  1.00  0.00     0.014 A 
HETATM   11  C14 UNL     1      20.543   4.907  50.348  1.00  0.00     0.037 A 
HETATM   12  C15 UNL     1      19.328   4.328  50.646  1.00  0.00     0.070 A 
HETATM   13  C17 UNL     1      19.268   3.282  51.557  1.00  0.00     0.074 A 
HETATM   14  C18 UNL     1      20.444   2.837  52.155  1.00  0.00     0.088 A 
HETATM   15  O2  UNL     1      20.273   1.774  53.061  1.00  0.00    -0.289 OA
HETATM   16  H8  UNL     1      24.328   1.954  53.375  1.00  0.00     0.160 HD
ENDROOT
BRANCH   1  17
HETATM   17  N1  UNL     1      24.712  -0.159  53.774  1.00  0.00    -0.349 N 
HETATM   18  H6  UNL     1      25.564   0.245  54.206  1.00  0.00     0.167 HD
BRANCH  17  19
HETATM   19  C6  UNL     1      25.469  -1.023  52.939  1.00  0.00     0.090 C 
HETATM   20  C5  UNL     1      26.393  -0.529  52.131  1.00  0.00     0.020 C 
BRANCH  20  21
HETATM   21  C4  UNL     1      26.630   0.908  52.107  1.00  0.00     0.045 C 
HETATM   22  C3  UNL     1      27.679   1.436  52.684  1.00  0.00     0.135 C 
HETATM   23  F1  UNL     1      27.932   2.746  52.684  1.00  0.00    -0.204 F 
BRANCH  22  24
HETATM   24  C2  UNL     1      28.683   0.647  53.389  1.00  0.00     0.038 C 
HETATM   25  C1  UNL     1      29.267   0.954  54.553  1.00  0.00     0.206 C 
HETATM   26 CL1  UNL     1      29.820  -0.569  53.868  1.00  0.00    -0.221 Cl
ENDBRANCH  22  24
ENDBRANCH  20  21
ENDBRANCH  17  19
ENDBRANCH   1  17
BRANCH  12  27
HETATM   27  O1  UNL     1      18.095   4.684  50.119  1.00  0.00    -0.356 OA
HETATM   28  C16 UNL     1      17.779   4.580  48.747  1.00  0.00     0.210 C 
ENDBRANCH  12  27
TORSDOF 5
ENDMDL
MODEL 8
REMARK VINA RESULT:      -7.4      2.566      3.172
REMARK  5 active torsions:
REMARK  status: ('A' for Active; 'I' for Inactive)
REMARK    1  A    between atoms: C2_2  and  C3_4 
REMARK    2  A    between atoms: C4_6  and  C5_7 
REMARK    3  A    between atoms: C6_8  and  N1_9 
REMARK    4  A    between atoms: N1_9  and  C7_10 
REMARK    5  A    between atoms: C15_21  and  O1_22 
ROOT
HETATM    1  C7  UNL     1      23.643  -0.074  53.530  1.00  0.00     0.159 A 
HETATM    2  N2  UNL     1      24.126  -0.813  54.528  1.00  0.00    -0.222 NA
HETATM    3  C8  UNL     1      23.289  -1.476  55.380  1.00  0.00     0.238 A 
HETATM    4  N3  UNL     1      21.966  -1.357  55.179  1.00  0.00    -0.215 NA
HETATM    5  C9  UNL     1      21.472  -0.613  54.175  1.00  0.00     0.202 A 
HETATM    6  C10 UNL     1      22.304   0.048  53.325  1.00  0.00     0.129 A 
HETATM    7  N4  UNL     1      22.025   0.869  52.227  1.00  0.00    -0.379 N 
HETATM    8  C11 UNL     1      20.855   1.031  51.434  1.00  0.00     0.161 C 
HETATM    9  C12 UNL     1      19.680   0.288  51.877  1.00  0.00    -0.006 A 
HETATM   10  C13 UNL     1      18.777   0.377  50.839  1.00  0.00     0.014 A 
HETATM   11  C14 UNL     1      17.513  -0.211  50.875  1.00  0.00     0.037 A 
HETATM   12  C15 UNL     1      17.138  -0.918  51.997  1.00  0.00     0.070 A 
HETATM   13  C17 UNL     1      18.017  -1.033  53.066  1.00  0.00     0.074 A 
HETATM   14  C18 UNL     1      19.268  -0.427  52.982  1.00  0.00     0.088 A 
HETATM   15  O2  UNL     1      20.080  -0.604  54.117  1.00  0.00    -0.289 OA
HETATM   16  H8  UNL     1      22.828   1.470  51.945  1.00  0.00     0.160 HD
ENDROOT
BRANCH   1  17
HETATM   17  N1  UNL     1      24.636   0.542  52.745  1.00  0.00    -0.349 N 
HETATM   18  H6  UNL     1      25.085   0.580  51.811  1.00  0.00     0.167 HD
BRANCH  17  19
HETATM   19  C6  UNL     1      25.482   1.558  53.263  1.00  0.00     0.090 C 
HETATM   20  C5  UNL     1      26.062   2.423  52.446  1.00  0.00     0.020 C 
BRANCH  20  21
HETATM   21  C4  UNL     1      25.824   2.327  51.013  1.00  0.00     0.045 C 
HETATM   22  C3  UNL     1      24.983   3.125  50.407  1.00  0.00     0.135 C 
HETATM   23  F1  UNL     1      24.736   3.069  49.096  1.00  0.00    -0.204 F 
BRANCH  22  24
HETATM   24  C2  UNL     1      24.224   4.160  51.100  1.00  0.00     0.038 C 
HETATM   25  C1  UNL     1      22.900   4.184  51.295  1.00  0.00     0.206 C 
HETATM   26 CL1  UNL     1      23.737   5.575  51.973  1.00  0.00    -0.221 Cl
ENDBRANCH  22  24
ENDBRANCH  20  21
ENDBRANCH  17  19
ENDBRANCH   1  17
BRANCH  12  27
HETATM   27  O1  UNL     1      15.925  -1.562  52.198  1.00  0.00    -0.356 OA
HETATM   28  C16 UNL     1      14.687  -0.885  52.252  1.00  0.00     0.210 C 
ENDBRANCH  12  27
TORSDOF 5
ENDMDL
MODEL 9
REMARK VINA RESULT:      -7.4      5.942      7.816
REMARK  5 active torsions:
REMARK  status: ('A' for Active; 'I' for Inactive)
REMARK    1  A    between atoms: C2_2  and  C3_4 
REMARK    2  A    between atoms: C4_6  and  C5_7 
REMARK    3  A    between atoms: C6_8  and  N1_9 
REMARK    4  A    between atoms: N1_9  and  C7_10 
REMARK    5  A    between atoms: C15_21  and  O1_22 
ROOT
HETATM    1  C7  UNL     1      25.664   6.631  50.071  1.00  0.00     0.159 A 
HETATM    2  N2  UNL     1      24.880   7.704  50.167  1.00  0.00    -0.222 NA
HETATM    3  C8  UNL     1      23.580   7.592  50.569  1.00  0.00     0.238 A 
HETATM    4  N3  UNL     1      23.119   6.365  50.865  1.00  0.00    -0.215 NA
HETATM    5  C9  UNL     1      23.903   5.278  50.771  1.00  0.00     0.202 A 
HETATM    6  C10 UNL     1      25.199   5.388  50.371  1.00  0.00     0.129 A 
HETATM    7  N4  UNL     1      26.188   4.414  50.200  1.00  0.00    -0.379 N 
HETATM    8  C11 UNL     1      26.302   3.079  50.679  1.00  0.00     0.161 C 
HETATM    9  C12 UNL     1      25.147   2.567  51.409  1.00  0.00    -0.006 A 
HETATM   10  C13 UNL     1      25.575   1.395  51.996  1.00  0.00     0.014 A 
HETATM   11  C14 UNL     1      24.753   0.596  52.789  1.00  0.00     0.037 A 
HETATM   12  C15 UNL     1      23.449   0.986  53.005  1.00  0.00     0.070 A 
HETATM   13  C17 UNL     1      22.976   2.160  52.433  1.00  0.00     0.074 A 
HETATM   14  C18 UNL     1      23.836   2.923  51.648  1.00  0.00     0.088 A 
HETATM   15  O2  UNL     1      23.260   4.092  51.117  1.00  0.00    -0.289 OA
HETATM   16  H8  UNL     1      26.986   4.733  49.611  1.00  0.00     0.160 HD
ENDROOT
BRANCH   1  17
HETATM   17  N1  UNL     1      26.974   6.917  49.644  1.00  0.00    -0.349 N 
HETATM   18  H6  UNL     1      27.949   7.103  49.943  1.00  0.00     0.167 HD
BRANCH  17  19
HETATM   19  C6  UNL     1      27.305   7.047  48.269  1.00  0.00     0.090 C 
HETATM   20  C5  UNL     1      28.123   8.007  47.867  1.00  0.00     0.020 C 
BRANCH  20  21
HETATM   21  C4  UNL     1      28.683   8.927  48.847  1.00  0.00     0.045 C 
HETATM   22  C3  UNL     1      29.960   8.929  49.129  1.00  0.00     0.135 C 
HETATM   23  F1  UNL     1      30.512   9.755  50.019  1.00  0.00    -0.204 F 
BRANCH  22  24
HETATM   24  C2  UNL     1      30.917   8.024  48.500  1.00  0.00     0.038 C 
HETATM   25  C1  UNL     1      32.171   8.316  48.135  1.00  0.00     0.206 C 
HETATM   26 CL1  UNL     1      31.705   6.656  47.788  1.00  0.00    -0.221 Cl
ENDBRANCH  22  24
ENDBRANCH  20  21
ENDBRANCH  17  19
ENDBRANCH   1  17
BRANCH  12  27
HETATM   27  O1  UNL     1      22.502   0.311  53.763  1.00  0.00    -0.356 OA
HETATM   28  C16 UNL     1      22.752  -0.926  54.395  1.00  0.00     0.210 C 
ENDBRANCH  12  27
TORSDOF 5
ENDMDL
