MODEL 1
REMARK VINA RESULT:      -7.6      0.000      0.000
REMARK  6 active torsions:
REMARK  status: ('A' for Active; 'I' for Inactive)
REMARK    1  A    between atoms: N1_2  and  C2_3 
REMARK    2  A    between atoms: C6_7  and  C7_8 
REMARK    3  A    between atoms: C7_8  and  C8_9 
REMARK    4  A    between atoms: C8_9  and  C9_10 
REMARK       I    between atoms: C9_10  and  N2_12 
REMARK    5  A    between atoms: N2_12  and  C10_13 
REMARK    6  A    between atoms: C10_13  and  C11_14 
ROOT
HETATM    1  C9  UNL     1      25.481   2.435  52.684  1.00  0.00     0.218 C 
HETATM    2  O1  UNL     1      25.789   2.448  51.455  1.00  0.00    -0.274 OA
HETATM    3  N2  UNL     1      26.290   2.267  53.831  1.00  0.00    -0.357 N 
HETATM    4  H11 UNL     1      25.667   2.316  54.669  1.00  0.00     0.162 HD
ENDROOT
BRANCH   1   5
HETATM    5  C8  UNL     1      24.009   2.649  52.570  1.00  0.00     0.107 C 
BRANCH   5   6
HETATM    6  C7  UNL     1      23.346   1.580  51.770  1.00  0.00     0.043 C 
BRANCH   6   7
HETATM    7  C6  UNL     1      22.625   0.666  52.695  1.00  0.00    -0.077 C 
HETATM    8  C5  UNL     1      23.217  -0.093  53.590  1.00  0.00    -0.020 C 
HETATM    9  C4  UNL     1      22.673  -1.052  54.583  1.00  0.00     0.056 C 
HETATM   10  C3  UNL     1      21.237  -1.242  54.395  1.00  0.00     0.004 C 
HETATM   11  C2  UNL     1      20.601  -0.495  53.519  1.00  0.00     0.033 C 
HETATM   12  C17 UNL     1      21.145   0.557  52.657  1.00  0.00     0.092 C 
BRANCH  11  13
HETATM   13  N1  UNL     1      19.212  -0.747  53.403  1.00  0.00    -0.276 NA
HETATM   14  C1  UNL     1      18.544  -0.337  52.381  1.00  0.00     0.149 C 
ENDBRANCH  11  13
ENDBRANCH   6   7
ENDBRANCH   5   6
ENDBRANCH   1   5
BRANCH   3  15
HETATM   15  C10 UNL     1      27.710   2.072  53.659  1.00  0.00     0.161 C 
BRANCH  15  16
HETATM   16  C11 UNL     1      28.135   0.686  53.487  1.00  0.00    -0.041 A 
HETATM   17  C12 UNL     1      27.393  -0.399  53.101  1.00  0.00     0.009 A 
HETATM   18  C13 UNL     1      27.982  -1.659  52.993  1.00  0.00     0.001 A 
HETATM   19  C14 UNL     1      29.328  -1.818  53.276  1.00  0.00     0.000 A 
HETATM   20  C15 UNL     1      30.106  -0.730  53.671  1.00  0.00     0.001 A 
HETATM   21  C16 UNL     1      29.475   0.509  53.765  1.00  0.00     0.009 A 
ENDBRANCH  15  16
ENDBRANCH   3  15
TORSDOF 6
ENDMDL
MODEL 2
REMARK VINA RESULT:      -7.4      3.973      6.287
REMARK  6 active torsions:
REMARK  status: ('A' for Active; 'I' for Inactive)
REMARK    1  A    between atoms: N1_2  and  C2_3 
REMARK    2  A    between atoms: C6_7  and  C7_8 
REMARK    3  A    between atoms: C7_8  and  C8_9 
REMARK    4  A    between atoms: C8_9  and  C9_10 
REMARK       I    between atoms: C9_10  and  N2_12 
REMARK    5  A    between atoms: N2_12  and  C10_13 
REMARK    6  A    between atoms: C10_13  and  C11_14 
ROOT
HETATM    1  C9  UNL     1      24.696   3.489  50.637  1.00  0.00     0.218 C 
HETATM    2  O1  UNL     1      24.019   2.972  49.699  1.00  0.00    -0.274 OA
HETATM    3  N2  UNL     1      26.029   3.962  50.653  1.00  0.00    -0.357 N 
HETATM    4  H11 UNL     1      26.228   4.318  51.615  1.00  0.00     0.162 HD
ENDROOT
BRANCH   1   5
HETATM    5  C8  UNL     1      23.677   3.455  51.724  1.00  0.00     0.107 C 
BRANCH   5   6
HETATM    6  C7  UNL     1      24.300   3.352  53.075  1.00  0.00     0.043 C 
BRANCH   6   7
HETATM    7  C6  UNL     1      24.661   1.933  53.330  1.00  0.00    -0.077 C 
HETATM    8  C5  UNL     1      23.845   0.920  53.140  1.00  0.00    -0.020 C 
HETATM    9  C4  UNL     1      24.025  -0.540  53.336  1.00  0.00     0.056 C 
HETATM   10  C3  UNL     1      25.305  -0.828  53.978  1.00  0.00     0.004 C 
HETATM   11  C2  UNL     1      26.160   0.153  54.174  1.00  0.00     0.033 C 
HETATM   12  C17 UNL     1      26.012   1.568  53.827  1.00  0.00     0.092 C 
BRANCH  11  13
HETATM   13  N1  UNL     1      27.374  -0.217  54.801  1.00  0.00    -0.276 NA
HETATM   14  C1  UNL     1      28.431   0.511  54.687  1.00  0.00     0.149 C 
ENDBRANCH  11  13
ENDBRANCH   6   7
ENDBRANCH   5   6
ENDBRANCH   1   5
BRANCH   3  15
HETATM   15  C10 UNL     1      26.813   3.876  49.444  1.00  0.00     0.161 C 
BRANCH  15  16
HETATM   16  C11 UNL     1      27.099   5.152  48.792  1.00  0.00    -0.041 A 
HETATM   17  C12 UNL     1      26.249   6.194  48.532  1.00  0.00     0.009 A 
HETATM   18  C13 UNL     1      26.711   7.344  47.892  1.00  0.00     0.001 A 
HETATM   19  C14 UNL     1      28.041   7.436  47.516  1.00  0.00     0.000 A 
HETATM   20  C15 UNL     1      28.927   6.390  47.769  1.00  0.00     0.001 A 
HETATM   21  C16 UNL     1      28.420   5.261  48.410  1.00  0.00     0.009 A 
ENDBRANCH  15  16
ENDBRANCH   3  15
TORSDOF 6
ENDMDL
MODEL 3
REMARK VINA RESULT:      -7.3      4.028      6.640
REMARK  6 active torsions:
REMARK  status: ('A' for Active; 'I' for Inactive)
REMARK    1  A    between atoms: N1_2  and  C2_3 
REMARK    2  A    between atoms: C6_7  and  C7_8 
REMARK    3  A    between atoms: C7_8  and  C8_9 
REMARK    4  A    between atoms: C8_9  and  C9_10 
REMARK       I    between atoms: C9_10  and  N2_12 
REMARK    5  A    between atoms: N2_12  and  C10_13 
REMARK    6  A    between atoms: C10_13  and  C11_14 
ROOT
HETATM    1  C9  UNL     1      25.527   2.365  51.675  1.00  0.00     0.218 C 
HETATM    2  O1  UNL     1      24.564   1.546  51.588  1.00  0.00    -0.274 OA
HETATM    3  N2  UNL     1      26.555   2.472  52.640  1.00  0.00    -0.357 N 
HETATM    4  H11 UNL     1      27.163   3.277  52.369  1.00  0.00     0.162 HD
ENDROOT
BRANCH   1   5
HETATM    5  C8  UNL     1      25.262   3.188  50.460  1.00  0.00     0.107 C 
BRANCH   5   6
HETATM    6  C7  UNL     1      26.417   3.186  49.518  1.00  0.00     0.043 C 
BRANCH   6   7
HETATM    7  C6  UNL     1      26.761   4.592  49.178  1.00  0.00    -0.077 C 
HETATM    8  C5  UNL     1      27.857   4.950  48.547  1.00  0.00    -0.020 C 
HETATM    9  C4  UNL     1      28.363   6.280  48.128  1.00  0.00     0.056 C 
HETATM   10  C3  UNL     1      27.518   7.350  48.652  1.00  0.00     0.004 C 
HETATM   11  C2  UNL     1      26.403   7.039  49.278  1.00  0.00     0.033 C 
HETATM   12  C17 UNL     1      25.852   5.708  49.543  1.00  0.00     0.092 C 
BRANCH  11  13
HETATM   13  N1  UNL     1      25.647   8.138  49.752  1.00  0.00    -0.276 NA
HETATM   14  C1  UNL     1      26.102   9.341  49.678  1.00  0.00     0.149 C 
ENDBRANCH  11  13
ENDBRANCH   6   7
ENDBRANCH   5   6
ENDBRANCH   1   5
BRANCH   3  15
HETATM   15  C10 UNL     1      26.580   1.533  53.737  1.00  0.00     0.161 C 
BRANCH  15  16
HETATM   16  C11 UNL     1      27.406   0.347  53.526  1.00  0.00    -0.041 A 
HETATM   17  C12 UNL     1      27.032  -0.894  53.084  1.00  0.00     0.009 A 
HETATM   18  C13 UNL     1      27.975  -1.912  52.945  1.00  0.00     0.001 A 
HETATM   19  C14 UNL     1      29.303  -1.669  53.255  1.00  0.00     0.000 A 
HETATM   20  C15 UNL     1      29.711  -0.414  53.707  1.00  0.00     0.001 A 
HETATM   21  C16 UNL     1      28.733   0.572  53.830  1.00  0.00     0.009 A 
ENDBRANCH  15  16
ENDBRANCH   3  15
TORSDOF 6
ENDMDL
MODEL 4
REMARK VINA RESULT:      -7.3      1.173      2.301
REMARK  6 active torsions:
REMARK  status: ('A' for Active; 'I' for Inactive)
REMARK    1  A    between atoms: N1_2  and  C2_3 
REMARK    2  A    between atoms: C6_7  and  C7_8 
REMARK    3  A    between atoms: C7_8  and  C8_9 
REMARK    4  A    between atoms: C8_9  and  C9_10 
REMARK       I    between atoms: C9_10  and  N2_12 
REMARK    5  A    between atoms: N2_12  and  C10_13 
REMARK    6  A    between atoms: C10_13  and  C11_14 
ROOT
HETATM    1  C9  UNL     1      24.830   2.563  52.647  1.00  0.00     0.218 C 
HETATM    2  O1  UNL     1      24.623   3.341  53.626  1.00  0.00    -0.274 OA
HETATM    3  N2  UNL     1      25.971   1.802  52.306  1.00  0.00    -0.357 N 
HETATM    4  H11 UNL     1      25.757   1.285  51.423  1.00  0.00     0.162 HD
ENDROOT
BRANCH   1   5
HETATM    5  C8  UNL     1      23.515   2.683  51.954  1.00  0.00     0.107 C 
BRANCH   5   6
HETATM    6  C7  UNL     1      23.163   1.448  51.198  1.00  0.00     0.043 C 
BRANCH   6   7
HETATM    7  C6  UNL     1      22.148   0.685  51.971  1.00  0.00    -0.077 C 
HETATM    8  C5  UNL     1      20.864   0.673  51.689  1.00  0.00    -0.020 C 
HETATM    9  C4  UNL     1      19.720  -0.017  52.334  1.00  0.00     0.056 C 
HETATM   10  C3  UNL     1      20.136  -0.674  53.571  1.00  0.00     0.004 C 
HETATM   11  C2  UNL     1      21.413  -0.699  53.886  1.00  0.00     0.033 C 
HETATM   12  C17 UNL     1      22.543  -0.136  53.143  1.00  0.00     0.092 C 
BRANCH  11  13
HETATM   13  N1  UNL     1      21.725  -1.357  55.100  1.00  0.00    -0.276 NA
HETATM   14  C1  UNL     1      22.947  -1.582  55.442  1.00  0.00     0.149 C 
ENDBRANCH  11  13
ENDBRANCH   6   7
ENDBRANCH   5   6
ENDBRANCH   1   5
BRANCH   3  15
HETATM   15  C10 UNL     1      27.133   1.867  53.161  1.00  0.00     0.161 C 
BRANCH  15  16
HETATM   16  C11 UNL     1      27.926   0.643  53.233  1.00  0.00    -0.041 A 
HETATM   17  C12 UNL     1      29.231   0.486  53.620  1.00  0.00     0.009 A 
HETATM   18  C13 UNL     1      29.823  -0.777  53.622  1.00  0.00     0.001 A 
HETATM   19  C14 UNL     1      29.088  -1.883  53.232  1.00  0.00     0.000 A 
HETATM   20  C15 UNL     1      27.758  -1.752  52.834  1.00  0.00     0.001 A 
HETATM   21  C16 UNL     1      27.209  -0.470  52.847  1.00  0.00     0.009 A 
ENDBRANCH  15  16
ENDBRANCH   3  15
TORSDOF 6
ENDMDL
MODEL 5
REMARK VINA RESULT:      -7.3      4.327      7.255
REMARK  6 active torsions:
REMARK  status: ('A' for Active; 'I' for Inactive)
REMARK    1  A    between atoms: N1_2  and  C2_3 
REMARK    2  A    between atoms: C6_7  and  C7_8 
REMARK    3  A    between atoms: C7_8  and  C8_9 
REMARK    4  A    between atoms: C8_9  and  C9_10 
REMARK       I    between atoms: C9_10  and  N2_12 
REMARK    5  A    between atoms: N2_12  and  C10_13 
REMARK    6  A    between atoms: C10_13  and  C11_14 
ROOT
HETATM    1  C9  UNL     1      25.884   2.575  51.667  1.00  0.00     0.218 C 
HETATM    2  O1  UNL     1      24.768   2.021  51.899  1.00  0.00    -0.274 OA
HETATM    3  N2  UNL     1      27.104   2.511  52.378  1.00  0.00    -0.357 N 
HETATM    4  H11 UNL     1      27.798   3.106  51.871  1.00  0.00     0.162 HD
ENDROOT
BRANCH   1   5
HETATM    5  C8  UNL     1      25.537   3.316  50.420  1.00  0.00     0.107 C 
BRANCH   5   6
HETATM    6  C7  UNL     1      26.650   3.299  49.428  1.00  0.00     0.043 C 
BRANCH   6   7
HETATM    7  C6  UNL     1      26.906   4.690  48.971  1.00  0.00    -0.077 C 
HETATM    8  C5  UNL     1      25.995   5.637  48.948  1.00  0.00    -0.020 C 
HETATM    9  C4  UNL     1      26.063   7.059  48.532  1.00  0.00     0.056 C 
HETATM   10  C3  UNL     1      27.357   7.367  47.929  1.00  0.00     0.004 C 
HETATM   11  C2  UNL     1      28.304   6.454  47.942  1.00  0.00     0.033 C 
HETATM   12  C17 UNL     1      28.253   5.101  48.502  1.00  0.00     0.092 C 
BRANCH  11  13
HETATM   13  N1  UNL     1      29.525   6.838  47.337  1.00  0.00    -0.276 NA
HETATM   14  C1  UNL     1      30.657   6.465  47.825  1.00  0.00     0.149 C 
ENDBRANCH  11  13
ENDBRANCH   6   7
ENDBRANCH   5   6
ENDBRANCH   1   5
BRANCH   3  15
HETATM   15  C10 UNL     1      27.171   1.708  53.575  1.00  0.00     0.161 C 
BRANCH  15  16
HETATM   16  C11 UNL     1      27.778   0.389  53.411  1.00  0.00    -0.041 A 
HETATM   17  C12 UNL     1      27.199  -0.776  52.983  1.00  0.00     0.009 A 
HETATM   18  C13 UNL     1      27.949  -1.949  52.890  1.00  0.00     0.001 A 
HETATM   19  C14 UNL     1      29.291  -1.938  53.232  1.00  0.00     0.000 A 
HETATM   20  C15 UNL     1      29.905  -0.765  53.670  1.00  0.00     0.001 A 
HETATM   21  C16 UNL     1      29.116   0.382  53.747  1.00  0.00     0.009 A 
ENDBRANCH  15  16
ENDBRANCH   3  15
TORSDOF 6
ENDMDL
MODEL 6
REMARK VINA RESULT:      -7.3      1.271      2.055
REMARK  6 active torsions:
REMARK  status: ('A' for Active; 'I' for Inactive)
REMARK    1  A    between atoms: N1_2  and  C2_3 
REMARK    2  A    between atoms: C6_7  and  C7_8 
REMARK    3  A    between atoms: C7_8  and  C8_9 
REMARK    4  A    between atoms: C8_9  and  C9_10 
REMARK       I    between atoms: C9_10  and  N2_12 
REMARK    5  A    between atoms: N2_12  and  C10_13 
REMARK    6  A    between atoms: C10_13  and  C11_14 
ROOT
HETATM    1  C9  UNL     1      26.266   2.813  51.439  1.00  0.00     0.218 C 
HETATM    2  O1  UNL     1      27.019   2.790  50.420  1.00  0.00    -0.274 OA
HETATM    3  N2  UNL     1      26.552   2.543  52.797  1.00  0.00    -0.357 N 
HETATM    4  H11 UNL     1      25.668   2.668  53.339  1.00  0.00     0.162 HD
ENDROOT
BRANCH   1   5
HETATM    5  C8  UNL     1      24.984   3.210  50.789  1.00  0.00     0.107 C 
BRANCH   5   6
HETATM    6  C7  UNL     1      23.897   3.436  51.783  1.00  0.00     0.043 C 
BRANCH   6   7
HETATM    7  C6  UNL     1      23.066   2.206  51.874  1.00  0.00    -0.077 C 
HETATM    8  C5  UNL     1      22.320   1.747  50.893  1.00  0.00    -0.020 C 
HETATM    9  C4  UNL     1      21.439   0.558  50.799  1.00  0.00     0.056 C 
HETATM   10  C3  UNL     1      21.314  -0.105  52.095  1.00  0.00     0.004 C 
HETATM   11  C2  UNL     1      22.052   0.311  53.101  1.00  0.00     0.033 C 
HETATM   12  C17 UNL     1      23.032   1.399  53.120  1.00  0.00     0.092 C 
BRANCH  11  13
HETATM   13  N1  UNL     1      21.867  -0.388  54.318  1.00  0.00    -0.276 NA
HETATM   14  C1  UNL     1      21.505  -1.624  54.328  1.00  0.00     0.149 C 
ENDBRANCH  11  13
ENDBRANCH   6   7
ENDBRANCH   5   6
ENDBRANCH   1   5
BRANCH   3  15
HETATM   15  C10 UNL     1      27.899   2.172  53.164  1.00  0.00     0.161 C 
BRANCH  15  16
HETATM   16  C11 UNL     1      28.175   0.738  53.163  1.00  0.00    -0.041 A 
HETATM   17  C12 UNL     1      27.350  -0.296  52.806  1.00  0.00     0.009 A 
HETATM   18  C13 UNL     1      27.798  -1.616  52.872  1.00  0.00     0.001 A 
HETATM   19  C14 UNL     1      29.086  -1.886  53.302  1.00  0.00     0.000 A 
HETATM   20  C15 UNL     1      29.946  -0.852  53.671  1.00  0.00     0.001 A 
HETATM   21  C16 UNL     1      29.456   0.450  53.588  1.00  0.00     0.009 A 
ENDBRANCH  15  16
ENDBRANCH   3  15
TORSDOF 6
ENDMDL
MODEL 7
REMARK VINA RESULT:      -7.2      2.018      6.138
REMARK  6 active torsions:
REMARK  status: ('A' for Active; 'I' for Inactive)
REMARK    1  A    between atoms: N1_2  and  C2_3 
REMARK    2  A    between atoms: C6_7  and  C7_8 
REMARK    3  A    between atoms: C7_8  and  C8_9 
REMARK    4  A    between atoms: C8_9  and  C9_10 
REMARK       I    between atoms: C9_10  and  N2_12 
REMARK    5  A    between atoms: N2_12  and  C10_13 
REMARK    6  A    between atoms: C10_13  and  C11_14 
ROOT
HETATM    1  C9  UNL     1      24.214   2.882  51.666  1.00  0.00     0.218 C 
HETATM    2  O1  UNL     1      24.120   3.471  52.784  1.00  0.00    -0.274 OA
HETATM    3  N2  UNL     1      23.328   1.988  51.023  1.00  0.00    -0.357 N 
HETATM    4  H11 UNL     1      23.758   1.716  50.110  1.00  0.00     0.162 HD
ENDROOT
BRANCH   1   5
HETATM    5  C8  UNL     1      25.537   3.408  51.221  1.00  0.00     0.107 C 
BRANCH   5   6
HETATM    6  C7  UNL     1      26.414   2.334  50.675  1.00  0.00     0.043 C 
BRANCH   6   7
HETATM    7  C6  UNL     1      26.980   1.554  51.806  1.00  0.00    -0.077 C 
HETATM    8  C5  UNL     1      27.720   2.073  52.761  1.00  0.00    -0.020 C 
HETATM    9  C4  UNL     1      28.362   1.463  53.951  1.00  0.00     0.056 C 
HETATM   10  C3  UNL     1      28.224   0.009  53.933  1.00  0.00     0.004 C 
HETATM   11  C2  UNL     1      27.481  -0.553  53.005  1.00  0.00     0.033 C 
HETATM   12  C17 UNL     1      26.730   0.095  51.927  1.00  0.00     0.092 C 
BRANCH  11  13
HETATM   13  N1  UNL     1      27.402  -1.965  53.063  1.00  0.00    -0.276 NA
HETATM   14  C1  UNL     1      28.464  -2.694  53.037  1.00  0.00     0.149 C 
ENDBRANCH  11  13
ENDBRANCH   6   7
ENDBRANCH   5   6
ENDBRANCH   1   5
BRANCH   3  15
HETATM   15  C10 UNL     1      22.093   1.637  51.683  1.00  0.00     0.161 C 
BRANCH  15  16
HETATM   16  C11 UNL     1      22.221   0.686  52.784  1.00  0.00    -0.041 A 
HETATM   17  C12 UNL     1      23.276  -0.130  53.097  1.00  0.00     0.009 A 
HETATM   18  C13 UNL     1      23.212  -0.980  54.202  1.00  0.00     0.001 A 
HETATM   19  C14 UNL     1      22.074  -1.001  54.990  1.00  0.00     0.000 A 
HETATM   20  C15 UNL     1      20.986  -0.180  54.694  1.00  0.00     0.001 A 
HETATM   21  C16 UNL     1      21.096   0.652  53.582  1.00  0.00     0.009 A 
ENDBRANCH  15  16
ENDBRANCH   3  15
TORSDOF 6
ENDMDL
MODEL 8
REMARK VINA RESULT:      -7.1      3.293      6.715
REMARK  6 active torsions:
REMARK  status: ('A' for Active; 'I' for Inactive)
REMARK    1  A    between atoms: N1_2  and  C2_3 
REMARK    2  A    between atoms: C6_7  and  C7_8 
REMARK    3  A    between atoms: C7_8  and  C8_9 
REMARK    4  A    between atoms: C8_9  and  C9_10 
REMARK       I    between atoms: C9_10  and  N2_12 
REMARK    5  A    between atoms: N2_12  and  C10_13 
REMARK    6  A    between atoms: C10_13  and  C11_14 
ROOT
HETATM    1  C9  UNL     1      24.055   2.961  51.807  1.00  0.00     0.218 C 
HETATM    2  O1  UNL     1      23.561   2.151  50.967  1.00  0.00    -0.274 OA
HETATM    3  N2  UNL     1      24.397   4.326  51.672  1.00  0.00    -0.357 N 
HETATM    4  H11 UNL     1      24.777   4.651  52.590  1.00  0.00     0.162 HD
ENDROOT
BRANCH   1   5
HETATM    5  C8  UNL     1      24.171   2.055  52.985  1.00  0.00     0.107 C 
BRANCH   5   6
HETATM    6  C7  UNL     1      24.853   0.774  52.644  1.00  0.00     0.043 C 
BRANCH   6   7
HETATM    7  C6  UNL     1      26.275   0.860  53.068  1.00  0.00    -0.077 C 
HETATM    8  C5  UNL     1      26.952   1.985  53.151  1.00  0.00    -0.020 C 
HETATM    9  C4  UNL     1      28.354   2.263  53.548  1.00  0.00     0.056 C 
HETATM   10  C3  UNL     1      29.100   1.022  53.741  1.00  0.00     0.004 C 
HETATM   11  C2  UNL     1      28.461  -0.126  53.682  1.00  0.00     0.033 C 
HETATM   12  C17 UNL     1      27.036  -0.360  53.437  1.00  0.00     0.092 C 
BRANCH  11  13
HETATM   13  N1  UNL     1      29.261  -1.276  53.881  1.00  0.00    -0.276 NA
HETATM   14  C1  UNL     1      29.101  -2.333  53.161  1.00  0.00     0.149 C 
ENDBRANCH  11  13
ENDBRANCH   6   7
ENDBRANCH   5   6
ENDBRANCH   1   5
BRANCH   3  15
HETATM   15  C10 UNL     1      24.180   4.976  50.401  1.00  0.00     0.161 C 
BRANCH  15  16
HETATM   16  C11 UNL     1      25.391   5.369  49.686  1.00  0.00    -0.041 A 
HETATM   17  C12 UNL     1      25.735   6.598  49.187  1.00  0.00     0.009 A 
HETATM   18  C13 UNL     1      26.949   6.781  48.525  1.00  0.00     0.001 A 
HETATM   19  C14 UNL     1      27.817   5.713  48.369  1.00  0.00     0.000 A 
HETATM   20  C15 UNL     1      27.492   4.451  48.867  1.00  0.00     0.001 A 
HETATM   21  C16 UNL     1      26.268   4.317  49.521  1.00  0.00     0.009 A 
ENDBRANCH  15  16
ENDBRANCH   3  15
TORSDOF 6
ENDMDL
MODEL 9
REMARK VINA RESULT:      -7.0      3.516      6.689
REMARK  6 active torsions:
REMARK  status: ('A' for Active; 'I' for Inactive)
REMARK    1  A    between atoms: N1_2  and  C2_3 
REMARK    2  A    between atoms: C6_7  and  C7_8 
REMARK    3  A    between atoms: C7_8  and  C8_9 
REMARK    4  A    between atoms: C8_9  and  C9_10 
REMARK       I    between atoms: C9_10  and  N2_12 
REMARK    5  A    between atoms: N2_12  and  C10_13 
REMARK    6  A    between atoms: C10_13  and  C11_14 
ROOT
HETATM    1  C9  UNL     1      24.455   2.890  51.616  1.00  0.00     0.218 C 
HETATM    2  O1  UNL     1      23.671   2.177  50.921  1.00  0.00    -0.274 OA
HETATM    3  N2  UNL     1      25.101   4.110  51.309  1.00  0.00    -0.357 N 
HETATM    4  H11 UNL     1      25.668   4.388  52.141  1.00  0.00     0.162 HD
ENDROOT
BRANCH   1   5
HETATM    5  C8  UNL     1      24.501   2.067  52.859  1.00  0.00     0.107 C 
BRANCH   5   6
HETATM    6  C7  UNL     1      24.452   0.606  52.568  1.00  0.00     0.043 C 
BRANCH   6   7
HETATM    7  C6  UNL     1      25.816   0.039  52.730  1.00  0.00    -0.077 C 
HETATM    8  C5  UNL     1      26.085  -1.248  52.714  1.00  0.00    -0.020 C 
HETATM    9  C4  UNL     1      27.362  -1.989  52.857  1.00  0.00     0.056 C 
HETATM   10  C3  UNL     1      28.456  -1.086  53.206  1.00  0.00     0.004 C 
HETATM   11  C2  UNL     1      28.236   0.211  53.220  1.00  0.00     0.033 C 
HETATM   12  C17 UNL     1      26.992   0.925  52.923  1.00  0.00     0.092 C 
BRANCH  11  13
HETATM   13  N1  UNL     1      29.351   1.011  53.569  1.00  0.00    -0.276 NA
HETATM   14  C1  UNL     1      29.366   1.694  54.661  1.00  0.00     0.149 C 
ENDBRANCH  11  13
ENDBRANCH   6   7
ENDBRANCH   5   6
ENDBRANCH   1   5
BRANCH   3  15
HETATM   15  C10 UNL     1      24.884   4.704  50.011  1.00  0.00     0.161 C 
BRANCH  15  16
HETATM   16  C11 UNL     1      26.087   5.178  49.331  1.00  0.00    -0.041 A 
HETATM   17  C12 UNL     1      27.231   4.489  49.027  1.00  0.00     0.009 A 
HETATM   18  C13 UNL     1      28.285   5.120  48.366  1.00  0.00     0.001 A 
HETATM   19  C14 UNL     1      28.178   6.455  48.014  1.00  0.00     0.000 A 
HETATM   20  C15 UNL     1      27.025   7.180  48.312  1.00  0.00     0.001 A 
HETATM   21  C16 UNL     1      25.998   6.508  48.972  1.00  0.00     0.009 A 
ENDBRANCH  15  16
ENDBRANCH   3  15
TORSDOF 6
ENDMDL
