MODEL 1
REMARK VINA RESULT:      -7.2      0.000      0.000
REMARK  7 active torsions:
REMARK  status: ('A' for Active; 'I' for Inactive)
REMARK    1  A    between atoms: C2_2  and  N1_3 
REMARK    2  A    between atoms: N1_3  and  C3_4 
REMARK    3  A    between atoms: N1_3  and  C4_6 
REMARK    4  A    between atoms: C4_6  and  C5_7 
REMARK    5  A    between atoms: C5_7  and  C6_8 
REMARK    6  A    between atoms: C7_9  and  C8_10 
REMARK    7  A    between atoms: C16_20  and  N4_21 
ROOT
HETATM    1  C8  UNL     1      25.959   1.898  53.198  1.00  0.00     0.297 C 
HETATM    2  C9  UNL     1      24.955   0.757  53.367  1.00  0.00     0.019 C 
HETATM    3  C10 UNL     1      25.073  -0.588  53.265  1.00  0.00    -0.002 C 
HETATM    4  C11 UNL     1      26.489  -1.065  53.190  1.00  0.00     0.013 C 
HETATM    5  C12 UNL     1      27.727  -0.388  53.385  1.00  0.00     0.168 A 
HETATM    6  N2  UNL     1      28.557  -1.510  53.462  1.00  0.00    -0.261 NA
HETATM    7  C13 UNL     1      29.873  -1.273  53.619  1.00  0.00     0.225 A 
HETATM    8  N3  UNL     1      29.871   0.015  53.641  1.00  0.00    -0.240 NA
HETATM    9  C14 UNL     1      28.893   0.957  53.543  1.00  0.00     0.277 A 
HETATM   10  C15 UNL     1      27.644   1.104  53.401  1.00  0.00     0.257 A 
HETATM   11  C16 UNL     1      28.340   2.364  53.457  1.00  0.00     0.301 A 
HETATM   12  N4  UNL     1      27.372   1.404  53.366  1.00  0.00     0.013 N 
ENDROOT
BRANCH   1  13
HETATM   13  C7  UNL     1      25.782   2.472  51.914  1.00  0.00    -0.069 C 
HETATM   14  C6  UNL     1      25.614   2.947  50.823  1.00  0.00    -0.102 C 
BRANCH  14  15
HETATM   15  C5  UNL     1      25.414   3.514  49.474  1.00  0.00     0.114 C 
BRANCH  15  16
HETATM   16  C4  UNL     1      25.314   5.013  49.475  1.00  0.00     0.137 C 
BRANCH  16  17
HETATM   17  N1  UNL     1      26.544   5.649  49.064  1.00  0.00    -0.359 N 
BRANCH  17  18
HETATM   18  C2  UNL     1      27.743   4.992  48.588  1.00  0.00     0.120 C 
HETATM   19  C1  UNL     1      28.724   6.058  48.129  1.00  0.00     0.026 C 
ENDBRANCH  17  18
BRANCH  17  20
HETATM   20  C3  UNL     1      26.420   7.063  49.195  1.00  0.00     0.350 C 
HETATM   21  O1  UNL     1      26.377   7.820  50.215  1.00  0.00    -0.284 OA
ENDBRANCH  17  20
ENDBRANCH  16  17
ENDBRANCH  15  16
ENDBRANCH  14  15
ENDBRANCH   1  13
TORSDOF 7
ENDMDL
MODEL 2
REMARK VINA RESULT:      -7.1      1.567      2.369
REMARK  7 active torsions:
REMARK  status: ('A' for Active; 'I' for Inactive)
REMARK    1  A    between atoms: C2_2  and  N1_3 
REMARK    2  A    between atoms: N1_3  and  C3_4 
REMARK    3  A    between atoms: N1_3  and  C4_6 
REMARK    4  A    between atoms: C4_6  and  C5_7 
REMARK    5  A    between atoms: C5_7  and  C6_8 
REMARK    6  A    between atoms: C7_9  and  C8_10 
REMARK    7  A    between atoms: C16_20  and  N4_21 
ROOT
HETATM    1  C8  UNL     1      26.383   1.855  53.064  1.00  0.00     0.297 C 
HETATM    2  C9  UNL     1      25.267   0.809  53.078  1.00  0.00     0.019 C 
HETATM    3  C10 UNL     1      25.274  -0.538  52.931  1.00  0.00    -0.002 C 
HETATM    4  C11 UNL     1      26.641  -1.143  52.988  1.00  0.00     0.013 C 
HETATM    5  C12 UNL     1      27.907  -0.593  53.340  1.00  0.00     0.168 A 
HETATM    6  N2  UNL     1      28.618  -1.790  53.458  1.00  0.00    -0.261 NA
HETATM    7  C13 UNL     1      29.925  -1.683  53.764  1.00  0.00     0.225 A 
HETATM    8  N3  UNL     1      30.037  -0.403  53.839  1.00  0.00    -0.240 NA
HETATM    9  C14 UNL     1      29.165   0.630  53.679  1.00  0.00     0.277 A 
HETATM   10  C15 UNL     1      27.957   0.899  53.411  1.00  0.00     0.257 A 
HETATM   11  C16 UNL     1      28.754   2.085  53.594  1.00  0.00     0.301 A 
HETATM   12  N4  UNL     1      27.719   1.225  53.360  1.00  0.00     0.013 N 
ENDROOT
BRANCH   1  13
HETATM   13  C7  UNL     1      26.400   2.484  51.794  1.00  0.00    -0.069 C 
HETATM   14  C6  UNL     1      26.410   3.035  50.726  1.00  0.00    -0.102 C 
BRANCH  14  15
HETATM   15  C5  UNL     1      26.402   3.714  49.415  1.00  0.00     0.114 C 
BRANCH  15  16
HETATM   16  C4  UNL     1      25.392   4.822  49.332  1.00  0.00     0.137 C 
BRANCH  16  17
HETATM   17  N1  UNL     1      24.052   4.372  49.624  1.00  0.00    -0.359 N 
BRANCH  17  18
HETATM   18  C2  UNL     1      23.329   3.310  48.957  1.00  0.00     0.120 C 
HETATM   19  C1  UNL     1      22.819   2.342  50.010  1.00  0.00     0.026 C 
ENDBRANCH  17  18
BRANCH  17  20
HETATM   20  C3  UNL     1      23.510   5.140  50.696  1.00  0.00     0.350 C 
HETATM   21  O1  UNL     1      23.792   5.186  51.934  1.00  0.00    -0.284 OA
ENDBRANCH  17  20
ENDBRANCH  16  17
ENDBRANCH  15  16
ENDBRANCH  14  15
ENDBRANCH   1  13
TORSDOF 7
ENDMDL
MODEL 3
REMARK VINA RESULT:      -6.7      1.854      2.587
REMARK  7 active torsions:
REMARK  status: ('A' for Active; 'I' for Inactive)
REMARK    1  A    between atoms: C2_2  and  N1_3 
REMARK    2  A    between atoms: N1_3  and  C3_4 
REMARK    3  A    between atoms: N1_3  and  C4_6 
REMARK    4  A    between atoms: C4_6  and  C5_7 
REMARK    5  A    between atoms: C5_7  and  C6_8 
REMARK    6  A    between atoms: C7_9  and  C8_10 
REMARK    7  A    between atoms: C16_20  and  N4_21 
ROOT
HETATM    1  C8  UNL     1      25.988   1.880  53.177  1.00  0.00     0.297 C 
HETATM    2  C9  UNL     1      24.989   0.732  53.328  1.00  0.00     0.019 C 
HETATM    3  C10 UNL     1      25.116  -0.612  53.218  1.00  0.00    -0.002 C 
HETATM    4  C11 UNL     1      26.536  -1.079  53.154  1.00  0.00     0.013 C 
HETATM    5  C12 UNL     1      27.768  -0.397  53.365  1.00  0.00     0.168 A 
HETATM    6  N2  UNL     1      28.603  -1.514  53.443  1.00  0.00    -0.261 NA
HETATM    7  C13 UNL     1      29.917  -1.270  53.615  1.00  0.00     0.225 A 
HETATM    8  N3  UNL     1      29.907   0.017  53.645  1.00  0.00    -0.240 NA
HETATM    9  C14 UNL     1      28.925   0.954  53.544  1.00  0.00     0.277 A 
HETATM   10  C15 UNL     1      27.676   1.094  53.391  1.00  0.00     0.257 A 
HETATM   11  C16 UNL     1      28.363   2.358  53.462  1.00  0.00     0.301 A 
HETATM   12  N4  UNL     1      27.402   1.394  53.355  1.00  0.00     0.013 N 
ENDROOT
BRANCH   1  13
HETATM   13  C7  UNL     1      25.820   2.462  51.895  1.00  0.00    -0.069 C 
HETATM   14  C6  UNL     1      25.687   2.971  50.814  1.00  0.00    -0.102 C 
BRANCH  14  15
HETATM   15  C5  UNL     1      25.510   3.610  49.495  1.00  0.00     0.114 C 
BRANCH  15  16
HETATM   16  C4  UNL     1      24.401   4.622  49.475  1.00  0.00     0.137 C 
BRANCH  16  17
HETATM   17  N1  UNL     1      23.210   4.124  48.828  1.00  0.00    -0.359 N 
BRANCH  17  18
HETATM   18  C2  UNL     1      22.635   2.802  48.966  1.00  0.00     0.120 C 
HETATM   19  C1  UNL     1      22.499   2.191  47.583  1.00  0.00     0.026 C 
ENDBRANCH  17  18
BRANCH  17  20
HETATM   20  C3  UNL     1      22.650   5.142  48.002  1.00  0.00     0.350 C 
HETATM   21  O1  UNL     1      23.187   6.072  47.321  1.00  0.00    -0.284 OA
ENDBRANCH  17  20
ENDBRANCH  16  17
ENDBRANCH  15  16
ENDBRANCH  14  15
ENDBRANCH   1  13
TORSDOF 7
ENDMDL
MODEL 4
REMARK VINA RESULT:      -6.5      2.433      6.579
REMARK  7 active torsions:
REMARK  status: ('A' for Active; 'I' for Inactive)
REMARK    1  A    between atoms: C2_2  and  N1_3 
REMARK    2  A    between atoms: N1_3  and  C3_4 
REMARK    3  A    between atoms: N1_3  and  C4_6 
REMARK    4  A    between atoms: C4_6  and  C5_7 
REMARK    5  A    between atoms: C5_7  and  C6_8 
REMARK    6  A    between atoms: C7_9  and  C8_10 
REMARK    7  A    between atoms: C16_20  and  N4_21 
ROOT
HETATM    1  C8  UNL     1      23.604   2.603  50.718  1.00  0.00     0.297 C 
HETATM    2  C9  UNL     1      22.330   3.148  51.363  1.00  0.00     0.019 C 
HETATM    3  C10 UNL     1      22.035   4.334  51.948  1.00  0.00    -0.002 C 
HETATM    4  C11 UNL     1      23.074   5.387  51.730  1.00  0.00     0.013 C 
HETATM    5  C12 UNL     1      24.218   5.429  50.882  1.00  0.00     0.168 A 
HETATM    6  N2  UNL     1      24.494   6.795  50.988  1.00  0.00    -0.261 NA
HETATM    7  C13 UNL     1      25.575   7.241  50.320  1.00  0.00     0.225 A 
HETATM    8  N3  UNL     1      25.984   6.142  49.788  1.00  0.00    -0.240 NA
HETATM    9  C14 UNL     1      25.537   4.857  49.821  1.00  0.00     0.277 A 
HETATM   10  C15 UNL     1      24.629   4.115  50.300  1.00  0.00     0.257 A 
HETATM   11  C16 UNL     1      25.584   3.373  49.518  1.00  0.00     0.301 A 
HETATM   12  N4  UNL     1      24.521   3.723  50.301  1.00  0.00     0.013 N 
ENDROOT
BRANCH   1  13
HETATM   13  C7  UNL     1      24.253   1.749  51.645  1.00  0.00    -0.069 C 
HETATM   14  C6  UNL     1      24.795   1.008  52.421  1.00  0.00    -0.102 C 
BRANCH  14  15
HETATM   15  C5  UNL     1      25.444   0.094  53.382  1.00  0.00     0.114 C 
BRANCH  15  16
HETATM   16  C4  UNL     1      26.560   0.743  54.149  1.00  0.00     0.137 C 
BRANCH  16  17
HETATM   17  N1  UNL     1      27.858   0.460  53.584  1.00  0.00    -0.359 N 
BRANCH  17  18
HETATM   18  C2  UNL     1      28.393  -0.842  53.247  1.00  0.00     0.120 C 
HETATM   19  C1  UNL     1      29.868  -0.864  53.606  1.00  0.00     0.026 C 
ENDBRANCH  17  18
BRANCH  17  20
HETATM   20  C3  UNL     1      28.575   1.677  53.393  1.00  0.00     0.350 C 
HETATM   21  O1  UNL     1      28.710   2.706  54.128  1.00  0.00    -0.284 OA
ENDBRANCH  17  20
ENDBRANCH  16  17
ENDBRANCH  15  16
ENDBRANCH  14  15
ENDBRANCH   1  13
TORSDOF 7
ENDMDL
MODEL 5
REMARK VINA RESULT:      -6.5      3.413      6.974
REMARK  7 active torsions:
REMARK  status: ('A' for Active; 'I' for Inactive)
REMARK    1  A    between atoms: C2_2  and  N1_3 
REMARK    2  A    between atoms: N1_3  and  C3_4 
REMARK    3  A    between atoms: N1_3  and  C4_6 
REMARK    4  A    between atoms: C4_6  and  C5_7 
REMARK    5  A    between atoms: C5_7  and  C6_8 
REMARK    6  A    between atoms: C7_9  and  C8_10 
REMARK    7  A    between atoms: C16_20  and  N4_21 
ROOT
HETATM    1  C8  UNL     1      22.831   1.947  52.351  1.00  0.00     0.297 C 
HETATM    2  C9  UNL     1      23.366   3.371  52.505  1.00  0.00     0.019 C 
HETATM    3  C10 UNL     1      23.796   4.289  51.606  1.00  0.00    -0.002 C 
HETATM    4  C11 UNL     1      23.486   3.933  50.187  1.00  0.00     0.013 C 
HETATM    5  C12 UNL     1      22.676   2.907  49.623  1.00  0.00     0.168 A 
HETATM    6  N2  UNL     1      22.626   3.390  48.313  1.00  0.00    -0.261 NA
HETATM    7  C13 UNL     1      21.944   2.642  47.423  1.00  0.00     0.225 A 
HETATM    8  N3  UNL     1      21.561   1.677  48.184  1.00  0.00    -0.240 NA
HETATM    9  C14 UNL     1      21.733   1.393  49.504  1.00  0.00     0.277 A 
HETATM   10  C15 UNL     1      22.268   1.823  50.568  1.00  0.00     0.257 A 
HETATM   11  C16 UNL     1      21.611   0.556  50.761  1.00  0.00     0.301 A 
HETATM   12  N4  UNL     1      22.312   1.711  50.957  1.00  0.00     0.013 N 
ENDROOT
BRANCH   1  13
HETATM   13  C7  UNL     1      23.873   1.035  52.655  1.00  0.00    -0.069 C 
HETATM   14  C6  UNL     1      24.761   0.273  52.930  1.00  0.00    -0.102 C 
BRANCH  14  15
HETATM   15  C5  UNL     1      25.864  -0.650  53.263  1.00  0.00     0.114 C 
BRANCH  15  16
HETATM   16  C4  UNL     1      27.173  -0.249  52.646  1.00  0.00     0.137 C 
BRANCH  16  17
HETATM   17  N1  UNL     1      28.060   0.383  53.593  1.00  0.00    -0.359 N 
BRANCH  17  18
HETATM   18  C2  UNL     1      28.982  -0.278  54.493  1.00  0.00     0.120 C 
HETATM   19  C1  UNL     1      30.004  -1.035  53.663  1.00  0.00     0.026 C 
ENDBRANCH  17  18
BRANCH  17  20
HETATM   20  C3  UNL     1      27.906   1.798  53.526  1.00  0.00     0.350 C 
HETATM   21  O1  UNL     1      28.599   2.751  54.004  1.00  0.00    -0.284 OA
ENDBRANCH  17  20
ENDBRANCH  16  17
ENDBRANCH  15  16
ENDBRANCH  14  15
ENDBRANCH   1  13
TORSDOF 7
ENDMDL
MODEL 6
REMARK VINA RESULT:      -6.4      4.290      7.306
REMARK  7 active torsions:
REMARK  status: ('A' for Active; 'I' for Inactive)
REMARK    1  A    between atoms: C2_2  and  N1_3 
REMARK    2  A    between atoms: N1_3  and  C3_4 
REMARK    3  A    between atoms: N1_3  and  C4_6 
REMARK    4  A    between atoms: C4_6  and  C5_7 
REMARK    5  A    between atoms: C5_7  and  C6_8 
REMARK    6  A    between atoms: C7_9  and  C8_10 
REMARK    7  A    between atoms: C16_20  and  N4_21 
ROOT
HETATM    1  C8  UNL     1      23.906   3.644  50.370  1.00  0.00     0.297 C 
HETATM    2  C9  UNL     1      23.622   3.151  48.951  1.00  0.00     0.019 C 
HETATM    3  C10 UNL     1      22.630   2.391  48.427  1.00  0.00    -0.002 C 
HETATM    4  C11 UNL     1      21.480   2.177  49.359  1.00  0.00     0.013 C 
HETATM    5  C12 UNL     1      21.157   2.765  50.616  1.00  0.00     0.168 A 
HETATM    6  N2  UNL     1      19.837   2.318  50.711  1.00  0.00    -0.261 NA
HETATM    7  C13 UNL     1      19.168   2.657  51.830  1.00  0.00     0.225 A 
HETATM    8  N3  UNL     1      20.080   3.325  52.446  1.00  0.00    -0.240 NA
HETATM    9  C14 UNL     1      21.367   3.654  52.152  1.00  0.00     0.277 A 
HETATM   10  C15 UNL     1      22.265   3.526  51.268  1.00  0.00     0.257 A 
HETATM   11  C16 UNL     1      22.732   4.254  52.420  1.00  0.00     0.301 A 
HETATM   12  N4  UNL     1      22.654   3.630  51.208  1.00  0.00     0.013 N 
ENDROOT
BRANCH   1  13
HETATM   13  C7  UNL     1      24.901   2.817  50.948  1.00  0.00    -0.069 C 
HETATM   14  C6  UNL     1      25.735   2.099  51.430  1.00  0.00    -0.102 C 
BRANCH  14  15
HETATM   15  C5  UNL     1      26.747   1.210  52.036  1.00  0.00     0.114 C 
BRANCH  15  16
HETATM   16  C4  UNL     1      27.276   1.727  53.344  1.00  0.00     0.137 C 
BRANCH  16  17
HETATM   17  N1  UNL     1      27.635   0.665  54.253  1.00  0.00    -0.359 N 
BRANCH  17  18
HETATM   18  C2  UNL     1      28.968   0.170  54.525  1.00  0.00     0.120 C 
HETATM   19  C1  UNL     1      29.234  -1.018  53.617  1.00  0.00     0.026 C 
ENDBRANCH  17  18
BRANCH  17  20
HETATM   20  C3  UNL     1      26.462   0.145  54.873  1.00  0.00     0.350 C 
HETATM   21  O1  UNL     1      25.796  -0.919  54.671  1.00  0.00    -0.284 OA
ENDBRANCH  17  20
ENDBRANCH  16  17
ENDBRANCH  15  16
ENDBRANCH  14  15
ENDBRANCH   1  13
TORSDOF 7
ENDMDL
MODEL 7
REMARK VINA RESULT:      -6.3      3.387      4.383
REMARK  7 active torsions:
REMARK  status: ('A' for Active; 'I' for Inactive)
REMARK    1  A    between atoms: C2_2  and  N1_3 
REMARK    2  A    between atoms: N1_3  and  C3_4 
REMARK    3  A    between atoms: N1_3  and  C4_6 
REMARK    4  A    between atoms: C4_6  and  C5_7 
REMARK    5  A    between atoms: C5_7  and  C6_8 
REMARK    6  A    between atoms: C7_9  and  C8_10 
REMARK    7  A    between atoms: C16_20  and  N4_21 
ROOT
HETATM    1  C8  UNL     1      22.283   1.579  52.580  1.00  0.00     0.297 C 
HETATM    2  C9  UNL     1      21.883   0.255  53.231  1.00  0.00     0.019 C 
HETATM    3  C10 UNL     1      22.604  -0.814  53.650  1.00  0.00    -0.002 C 
HETATM    4  C11 UNL     1      24.078  -0.568  53.688  1.00  0.00     0.013 C 
HETATM    5  C12 UNL     1      24.844   0.624  53.539  1.00  0.00     0.168 A 
HETATM    6  N2  UNL     1      26.069   0.132  53.998  1.00  0.00    -0.261 NA
HETATM    7  C13 UNL     1      27.105   0.993  53.979  1.00  0.00     0.225 A 
HETATM    8  N3  UNL     1      26.525   2.038  53.503  1.00  0.00    -0.240 NA
HETATM    9  C14 UNL     1      25.252   2.308  53.102  1.00  0.00     0.277 A 
HETATM   10  C15 UNL     1      24.101   1.795  52.983  1.00  0.00     0.257 A 
HETATM   11  C16 UNL     1      24.144   3.155  52.509  1.00  0.00     0.301 A 
HETATM   12  N4  UNL     1      23.731   1.898  52.848  1.00  0.00     0.013 N 
ENDROOT
BRANCH   1  13
HETATM   13  C7  UNL     1      22.044   1.490  51.186  1.00  0.00    -0.069 C 
HETATM   14  C6  UNL     1      21.840   1.435  50.003  1.00  0.00    -0.102 C 
BRANCH  14  15
HETATM   15  C5  UNL     1      21.570   1.373  48.552  1.00  0.00     0.114 C 
BRANCH  15  16
HETATM   16  C4  UNL     1      22.599   2.097  47.732  1.00  0.00     0.137 C 
BRANCH  16  17
HETATM   17  N1  UNL     1      22.248   3.478  47.498  1.00  0.00    -0.359 N 
BRANCH  17  18
HETATM   18  C2  UNL     1      22.481   4.595  48.388  1.00  0.00     0.120 C 
HETATM   19  C1  UNL     1      23.874   4.458  48.977  1.00  0.00     0.026 C 
ENDBRANCH  17  18
BRANCH  17  20
HETATM   20  C3  UNL     1      21.616   3.604  46.226  1.00  0.00     0.350 C 
HETATM   21  O1  UNL     1      22.081   3.592  45.043  1.00  0.00    -0.284 OA
ENDBRANCH  17  20
ENDBRANCH  16  17
ENDBRANCH  15  16
ENDBRANCH  14  15
ENDBRANCH   1  13
TORSDOF 7
ENDMDL
MODEL 8
REMARK VINA RESULT:      -6.2      3.261      6.927
REMARK  7 active torsions:
REMARK  status: ('A' for Active; 'I' for Inactive)
REMARK    1  A    between atoms: C2_2  and  N1_3 
REMARK    2  A    between atoms: N1_3  and  C3_4 
REMARK    3  A    between atoms: N1_3  and  C4_6 
REMARK    4  A    between atoms: C4_6  and  C5_7 
REMARK    5  A    between atoms: C5_7  and  C6_8 
REMARK    6  A    between atoms: C7_9  and  C8_10 
REMARK    7  A    between atoms: C16_20  and  N4_21 
ROOT
HETATM    1  C8  UNL     1      23.279   2.351  50.839  1.00  0.00     0.297 C 
HETATM    2  C9  UNL     1      21.979   2.824  51.490  1.00  0.00     0.019 C 
HETATM    3  C10 UNL     1      21.638   3.974  52.120  1.00  0.00    -0.002 C 
HETATM    4  C11 UNL     1      22.641   5.071  51.958  1.00  0.00     0.013 C 
HETATM    5  C12 UNL     1      23.792   5.187  51.126  1.00  0.00     0.168 A 
HETATM    6  N2  UNL     1      24.019   6.556  51.290  1.00  0.00    -0.261 NA
HETATM    7  C13 UNL     1      25.091   7.066  50.654  1.00  0.00     0.225 A 
HETATM    8  N3  UNL     1      25.544   6.005  50.084  1.00  0.00    -0.240 NA
HETATM    9  C14 UNL     1      25.142   4.705  50.059  1.00  0.00     0.277 A 
HETATM   10  C15 UNL     1      24.255   3.914  50.496  1.00  0.00     0.257 A 
HETATM   11  C16 UNL     1      25.244   3.238  49.696  1.00  0.00     0.301 A 
HETATM   12  N4  UNL     1      24.161   3.518  50.480  1.00  0.00     0.013 N 
ENDROOT
BRANCH   1  13
HETATM   13  C7  UNL     1      23.947   1.482  51.739  1.00  0.00    -0.069 C 
HETATM   14  C6  UNL     1      24.497   0.746  52.514  1.00  0.00    -0.102 C 
BRANCH  14  15
HETATM   15  C5  UNL     1      25.176  -0.143  53.478  1.00  0.00     0.114 C 
BRANCH  15  16
HETATM   16  C4  UNL     1      26.344  -0.874  52.882  1.00  0.00     0.137 C 
BRANCH  16  17
HETATM   17  N1  UNL     1      27.612  -0.327  53.304  1.00  0.00    -0.359 N 
BRANCH  17  18
HETATM   18  C2  UNL     1      27.865   1.022  53.767  1.00  0.00     0.120 C 
HETATM   19  C1  UNL     1      29.308   1.107  54.233  1.00  0.00     0.026 C 
ENDBRANCH  17  18
BRANCH  17  20
HETATM   20  C3  UNL     1      28.624  -1.325  53.202  1.00  0.00     0.350 C 
HETATM   21  O1  UNL     1      28.584  -2.590  53.325  1.00  0.00    -0.284 OA
ENDBRANCH  17  20
ENDBRANCH  16  17
ENDBRANCH  15  16
ENDBRANCH  14  15
ENDBRANCH   1  13
TORSDOF 7
ENDMDL
MODEL 9
REMARK VINA RESULT:      -5.8      2.649      3.881
REMARK  7 active torsions:
REMARK  status: ('A' for Active; 'I' for Inactive)
REMARK    1  A    between atoms: C2_2  and  N1_3 
REMARK    2  A    between atoms: N1_3  and  C3_4 
REMARK    3  A    between atoms: N1_3  and  C4_6 
REMARK    4  A    between atoms: C4_6  and  C5_7 
REMARK    5  A    between atoms: C5_7  and  C6_8 
REMARK    6  A    between atoms: C7_9  and  C8_10 
REMARK    7  A    between atoms: C16_20  and  N4_21 
ROOT
HETATM    1  C8  UNL     1      24.551   1.374  51.642  1.00  0.00     0.297 C 
HETATM    2  C9  UNL     1      26.079   1.300  51.648  1.00  0.00     0.019 C 
HETATM    3  C10 UNL     1      26.973   0.941  52.600  1.00  0.00    -0.002 C 
HETATM    4  C11 UNL     1      26.354   0.285  53.792  1.00  0.00     0.013 C 
HETATM    5  C12 UNL     1      25.032  -0.188  54.033  1.00  0.00     0.168 A 
HETATM    6  N2  UNL     1      25.293  -0.927  55.190  1.00  0.00    -0.261 NA
HETATM    7  C13 UNL     1      24.236  -1.531  55.767  1.00  0.00     0.225 A 
HETATM    8  N3  UNL     1      23.299  -1.166  54.963  1.00  0.00    -0.240 NA
HETATM    9  C14 UNL     1      23.269  -0.403  53.836  1.00  0.00     0.277 A 
HETATM   10  C15 UNL     1      24.000   0.274  53.056  1.00  0.00     0.257 A 
HETATM   11  C16 UNL     1      22.612   0.316  52.676  1.00  0.00     0.301 A 
HETATM   12  N4  UNL     1      23.963   0.505  52.723  1.00  0.00     0.013 N 
ENDROOT
BRANCH   1  13
HETATM   13  C7  UNL     1      24.162   2.725  51.823  1.00  0.00    -0.069 C 
HETATM   14  C6  UNL     1      23.815   3.864  51.987  1.00  0.00    -0.102 C 
BRANCH  14  15
HETATM   15  C5  UNL     1      23.374   5.261  52.174  1.00  0.00     0.114 C 
BRANCH  15  16
HETATM   16  C4  UNL     1      24.159   6.240  51.349  1.00  0.00     0.137 C 
BRANCH  16  17
HETATM   17  N1  UNL     1      23.756   6.244  49.963  1.00  0.00    -0.359 N 
BRANCH  17  18
HETATM   18  C2  UNL     1      24.563   5.862  48.823  1.00  0.00     0.120 C 
HETATM   19  C1  UNL     1      25.885   5.315  49.333  1.00  0.00     0.026 C 
ENDBRANCH  17  18
BRANCH  17  20
HETATM   20  C3  UNL     1      22.406   6.690  49.856  1.00  0.00     0.350 C 
HETATM   21  O1  UNL     1      21.907   7.845  49.673  1.00  0.00    -0.284 OA
ENDBRANCH  17  20
ENDBRANCH  16  17
ENDBRANCH  15  16
ENDBRANCH  14  15
ENDBRANCH   1  13
TORSDOF 7
ENDMDL
