MODEL 1
REMARK VINA RESULT:      -8.2      0.000      0.000
REMARK  6 active torsions:
REMARK  status: ('A' for Active; 'I' for Inactive)
REMARK       I    between atoms: N1_2  and  C2_3 
REMARK    1  A    between atoms: C2_3  and  C3_5 
REMARK    2  A    between atoms: C3_5  and  C4_6 
REMARK    3  A    between atoms: C4_6  and  C5_7 
REMARK    4  A    between atoms: C8_11  and  C9_12 
REMARK       I    between atoms: N3_15  and  C12_16 
REMARK    5  A    between atoms: C12_16  and  C13_18 
REMARK    6  A    between atoms: N4_21  and  S1_22 
ROOT
HETATM    1  C9  UNL     1      24.614   3.736  50.962  1.00  0.00     0.060 C 
HETATM    2  C10 UNL     1      23.925   3.964  49.641  1.00  0.00     0.032 C 
HETATM    3  C11 UNL     1      24.599   5.021  48.807  1.00  0.00     0.126 C 
HETATM    4  N3  UNL     1      26.024   4.944  48.865  1.00  0.00    -0.352 N 
HETATM    5  C12 UNL     1      26.973   5.937  48.541  1.00  0.00     0.224 C 
HETATM    6  O2  UNL     1      28.228   5.714  48.651  1.00  0.00    -0.273 OA
HETATM    7  C20 UNL     1      26.504   3.648  49.325  1.00  0.00     0.126 C 
HETATM    8  C21 UNL     1      26.107   3.561  50.804  1.00  0.00     0.032 C 
ENDROOT
BRANCH   1   9
HETATM    9  C8  UNL     1      24.015   2.536  51.604  1.00  0.00     0.124 A 
HETATM   10  N2  UNL     1      22.823   1.995  51.020  1.00  0.00    -0.250 NA
HETATM   11  C7  UNL     1      22.278   0.953  51.554  1.00  0.00     0.093 A 
HETATM   12  C6  UNL     1      22.749   0.232  52.725  1.00  0.00     0.074 A 
HETATM   13  C5  UNL     1      23.970   0.805  53.306  1.00  0.00     0.115 A 
HETATM   14  N5  UNL     1      24.449   1.938  52.616  1.00  0.00    -0.269 NA
BRANCH  13  15
HETATM   15  C4  UNL     1      25.135  -0.181  53.349  1.00  0.00     0.037 C 
BRANCH  15  16
HETATM   16  C3  UNL     1      25.875  -0.210  54.633  1.00  0.00     0.105 C 
BRANCH  16  17
HETATM   17  C2  UNL     1      27.217   0.454  54.474  1.00  0.00     0.217 C 
HETATM   18  N1  UNL     1      27.376   1.728  53.915  1.00  0.00    -0.365 N 
HETATM   19  C1  UNL     1      28.735   2.256  53.820  1.00  0.00     0.149 C 
HETATM   20  H4  UNL     1      26.562   2.267  53.588  1.00  0.00     0.161 HD
HETATM   21  O1  UNL     1      28.210  -0.230  54.886  1.00  0.00    -0.274 OA
ENDBRANCH  16  17
ENDBRANCH  15  16
ENDBRANCH  13  15
ENDBRANCH   1   9
BRANCH   5  22
HETATM   22  C13 UNL     1      26.580   7.287  48.061  1.00  0.00     0.084 C 
HETATM   23  C14 UNL     1      27.471   7.632  46.889  1.00  0.00     0.030 C 
HETATM   24  C15 UNL     1      27.738   9.131  46.942  1.00  0.00     0.108 C 
HETATM   25  N4  UNL     1      28.565   9.403  48.094  1.00  0.00    -0.211 NA
HETATM   26  C17 UNL     1      28.156   8.699  49.267  1.00  0.00     0.112 C 
HETATM   27  C18 UNL     1      26.687   8.327  49.144  1.00  0.00     0.009 C 
HETATM   28  C19 UNL     1      26.104   7.886  50.444  1.00  0.00     0.012 C 
BRANCH  25  29
HETATM   29  S1  UNL     1      28.762  11.087  48.380  1.00  0.00     0.207 S 
HETATM   30  C16 UNL     1      30.337  11.491  49.035  1.00  0.00     0.180 C 
HETATM   31  O3  UNL     1      28.520  11.799  47.075  1.00  0.00    -0.212 OA
HETATM   32  O4  UNL     1      27.704  11.525  49.349  1.00  0.00    -0.212 OA
ENDBRANCH  25  29
ENDBRANCH   5  22
TORSDOF 6
ENDMDL
MODEL 2
REMARK VINA RESULT:      -7.9      6.115      9.967
REMARK  6 active torsions:
REMARK  status: ('A' for Active; 'I' for Inactive)
REMARK       I    between atoms: N1_2  and  C2_3 
REMARK    1  A    between atoms: C2_3  and  C3_5 
REMARK    2  A    between atoms: C3_5  and  C4_6 
REMARK    3  A    between atoms: C4_6  and  C5_7 
REMARK    4  A    between atoms: C8_11  and  C9_12 
REMARK       I    between atoms: N3_15  and  C12_16 
REMARK    5  A    between atoms: C12_16  and  C13_18 
REMARK    6  A    between atoms: N4_21  and  S1_22 
ROOT
HETATM    1  C9  UNL     1      19.086   0.960  51.239  1.00  0.00     0.060 C 
HETATM    2  C10 UNL     1      19.207   2.134  52.176  1.00  0.00     0.032 C 
HETATM    3  C11 UNL     1      20.622   2.374  52.630  1.00  0.00     0.126 C 
HETATM    4  N3  UNL     1      21.575   2.196  51.581  1.00  0.00    -0.352 N 
HETATM    5  C12 UNL     1      22.964   1.972  51.684  1.00  0.00     0.224 C 
HETATM    6  O2  UNL     1      23.690   1.828  50.640  1.00  0.00    -0.273 OA
HETATM    7  C20 UNL     1      20.979   2.266  50.254  1.00  0.00     0.126 C 
HETATM    8  C21 UNL     1      20.108   1.010  50.126  1.00  0.00     0.032 C 
ENDROOT
BRANCH   1   9
HETATM    9  C8  UNL     1      17.708   0.944  50.679  1.00  0.00     0.124 A 
HETATM   10  N2  UNL     1      17.304  -0.216  49.941  1.00  0.00    -0.250 NA
HETATM   11  C7  UNL     1      16.112  -0.260  49.442  1.00  0.00     0.093 A 
HETATM   12  C6  UNL     1      15.091   0.769  49.545  1.00  0.00     0.074 A 
HETATM   13  C5  UNL     1      15.528   1.947  50.306  1.00  0.00     0.115 A 
HETATM   14  N5  UNL     1      16.850   1.852  50.788  1.00  0.00    -0.269 NA
BRANCH  13  15
HETATM   15  C4  UNL     1      14.658   2.232  51.527  1.00  0.00     0.037 C 
BRANCH  15  16
HETATM   16  C3  UNL     1      15.179   3.290  52.426  1.00  0.00     0.105 C 
BRANCH  16  17
HETATM   17  C2  UNL     1      14.118   3.703  53.411  1.00  0.00     0.217 C 
HETATM   18  N1  UNL     1      13.005   2.907  53.712  1.00  0.00    -0.365 N 
HETATM   19  C1  UNL     1      12.050   3.428  54.687  1.00  0.00     0.149 C 
HETATM   20  H4  UNL     1      12.872   1.992  53.259  1.00  0.00     0.161 HD
HETATM   21  O1  UNL     1      14.302   4.838  53.959  1.00  0.00    -0.274 OA
ENDBRANCH  16  17
ENDBRANCH  15  16
ENDBRANCH  13  15
ENDBRANCH   1   9
BRANCH   5  22
HETATM   22  C13 UNL     1      23.663   1.889  52.992  1.00  0.00     0.084 C 
HETATM   23  C14 UNL     1      24.899   2.756  52.906  1.00  0.00     0.030 C 
HETATM   24  C15 UNL     1      25.991   2.082  53.728  1.00  0.00     0.108 C 
HETATM   25  N4  UNL     1      26.378   0.865  53.053  1.00  0.00    -0.211 NA
HETATM   26  C17 UNL     1      25.269   0.110  52.563  1.00  0.00     0.112 C 
HETATM   27  C18 UNL     1      24.023   0.472  53.354  1.00  0.00     0.009 C 
HETATM   28  C19 UNL     1      22.908  -0.494  53.130  1.00  0.00     0.012 C 
BRANCH  25  29
HETATM   29  S1  UNL     1      27.455  -0.092  53.990  1.00  0.00     0.207 S 
HETATM   30  C16 UNL     1      29.053   0.616  54.133  1.00  0.00     0.180 C 
HETATM   31  O3  UNL     1      26.827  -0.286  55.346  1.00  0.00    -0.212 OA
HETATM   32  O4  UNL     1      27.576  -1.438  53.339  1.00  0.00    -0.212 OA
ENDBRANCH  25  29
ENDBRANCH   5  22
TORSDOF 6
ENDMDL
MODEL 3
REMARK VINA RESULT:      -7.7      3.298      9.122
REMARK  6 active torsions:
REMARK  status: ('A' for Active; 'I' for Inactive)
REMARK       I    between atoms: N1_2  and  C2_3 
REMARK    1  A    between atoms: C2_3  and  C3_5 
REMARK    2  A    between atoms: C3_5  and  C4_6 
REMARK    3  A    between atoms: C4_6  and  C5_7 
REMARK    4  A    between atoms: C8_11  and  C9_12 
REMARK       I    between atoms: N3_15  and  C12_16 
REMARK    5  A    between atoms: C12_16  and  C13_18 
REMARK    6  A    between atoms: N4_21  and  S1_22 
ROOT
HETATM    1  C9  UNL     1      25.408   6.587  49.122  1.00  0.00     0.060 C 
HETATM    2  C10 UNL     1      24.331   5.748  48.483  1.00  0.00     0.032 C 
HETATM    3  C11 UNL     1      23.967   4.543  49.308  1.00  0.00     0.126 C 
HETATM    4  N3  UNL     1      23.916   4.825  50.707  1.00  0.00    -0.352 N 
HETATM    5  C12 UNL     1      23.977   3.923  51.790  1.00  0.00     0.224 C 
HETATM    6  O2  UNL     1      23.923   4.337  52.999  1.00  0.00    -0.273 OA
HETATM    7  C20 UNL     1      23.784   6.247  50.994  1.00  0.00     0.126 C 
HETATM    8  C21 UNL     1      25.118   6.879  50.576  1.00  0.00     0.032 C 
ENDROOT
BRANCH   1   9
HETATM    9  C8  UNL     1      25.536   7.854  48.352  1.00  0.00     0.124 A 
HETATM   10  N2  UNL     1      24.342   8.609  48.114  1.00  0.00    -0.250 NA
HETATM   11  C7  UNL     1      24.419   9.715  47.449  1.00  0.00     0.093 A 
HETATM   12  C6  UNL     1      25.623  10.307  46.890  1.00  0.00     0.074 A 
HETATM   13  C5  UNL     1      26.832   9.515  47.146  1.00  0.00     0.115 A 
HETATM   14  N5  UNL     1      26.593   8.336  47.883  1.00  0.00    -0.269 NA
BRANCH  13  15
HETATM   15  C4  UNL     1      27.902  10.282  47.919  1.00  0.00     0.037 C 
BRANCH  15  16
HETATM   16  C3  UNL     1      28.183   9.755  49.276  1.00  0.00     0.105 C 
BRANCH  16  17
HETATM   17  C2  UNL     1      29.541   9.106  49.310  1.00  0.00     0.217 C 
HETATM   18  N1  UNL     1      29.754   7.764  48.966  1.00  0.00    -0.365 N 
HETATM   19  C1  UNL     1      31.124   7.260  49.041  1.00  0.00     0.149 C 
HETATM   20  H4  UNL     1      28.971   7.163  48.672  1.00  0.00     0.161 HD
HETATM   21  O1  UNL     1      30.495   9.867  49.675  1.00  0.00    -0.274 OA
ENDBRANCH  16  17
ENDBRANCH  15  16
ENDBRANCH  13  15
ENDBRANCH   1   9
BRANCH   5  22
HETATM   22  C13 UNL     1      24.108   2.456  51.598  1.00  0.00     0.084 C 
HETATM   23  C14 UNL     1      23.213   1.781  52.613  1.00  0.00     0.030 C 
HETATM   24  C15 UNL     1      23.904   0.494  53.048  1.00  0.00     0.108 C 
HETATM   25  N4  UNL     1      25.080   0.847  53.808  1.00  0.00    -0.211 NA
HETATM   26  C17 UNL     1      25.833   1.913  53.228  1.00  0.00     0.112 C 
HETATM   27  C18 UNL     1      25.533   1.990  51.740  1.00  0.00     0.009 C 
HETATM   28  C19 UNL     1      26.509   2.849  51.008  1.00  0.00     0.012 C 
BRANCH  25  29
HETATM   29  S1  UNL     1      26.059  -0.517  54.178  1.00  0.00     0.207 S 
HETATM   30  C16 UNL     1      26.539  -1.421  52.754  1.00  0.00     0.180 C 
HETATM   31  O3  UNL     1      27.263  -0.020  54.934  1.00  0.00    -0.212 OA
HETATM   32  O4  UNL     1      25.281  -1.420  55.088  1.00  0.00    -0.212 OA
ENDBRANCH  25  29
ENDBRANCH   5  22
TORSDOF 6
ENDMDL
MODEL 4
REMARK VINA RESULT:      -7.6      5.834      8.833
REMARK  6 active torsions:
REMARK  status: ('A' for Active; 'I' for Inactive)
REMARK       I    between atoms: N1_2  and  C2_3 
REMARK    1  A    between atoms: C2_3  and  C3_5 
REMARK    2  A    between atoms: C3_5  and  C4_6 
REMARK    3  A    between atoms: C4_6  and  C5_7 
REMARK    4  A    between atoms: C8_11  and  C9_12 
REMARK       I    between atoms: N3_15  and  C12_16 
REMARK    5  A    between atoms: C12_16  and  C13_18 
REMARK    6  A    between atoms: N4_21  and  S1_22 
ROOT
HETATM    1  C9  UNL     1      20.493   2.810  51.393  1.00  0.00     0.060 C 
HETATM    2  C10 UNL     1      20.829   1.722  50.405  1.00  0.00     0.032 C 
HETATM    3  C11 UNL     1      22.110   1.006  50.741  1.00  0.00     0.126 C 
HETATM    4  N3  UNL     1      22.261   0.772  52.142  1.00  0.00    -0.352 N 
HETATM    5  C12 UNL     1      23.437   0.479  52.864  1.00  0.00     0.224 C 
HETATM    6  O2  UNL     1      23.408   0.297  54.130  1.00  0.00    -0.273 OA
HETATM    7  C20 UNL     1      21.002   0.856  52.869  1.00  0.00     0.126 C 
HETATM    8  C21 UNL     1      20.597   2.335  52.824  1.00  0.00     0.032 C 
ENDROOT
BRANCH   1   9
HETATM    9  C8  UNL     1      19.118   3.298  51.105  1.00  0.00     0.124 A 
HETATM   10  N2  UNL     1      18.888   3.927  49.838  1.00  0.00    -0.250 NA
HETATM   11  C7  UNL     1      17.703   4.361  49.557  1.00  0.00     0.093 A 
HETATM   12  C6  UNL     1      16.528   4.285  50.409  1.00  0.00     0.074 A 
HETATM   13  C5  UNL     1      16.789   3.637  51.701  1.00  0.00     0.115 A 
HETATM   14  N5  UNL     1      18.124   3.216  51.865  1.00  0.00    -0.269 NA
BRANCH  13  15
HETATM   15  C4  UNL     1      15.927   2.400  51.938  1.00  0.00     0.037 C 
BRANCH  15  16
HETATM   16  C3  UNL     1      16.404   1.173  51.256  1.00  0.00     0.105 C 
BRANCH  16  17
HETATM   17  C2  UNL     1      16.621   0.072  52.261  1.00  0.00     0.217 C 
HETATM   18  N1  UNL     1      17.774  -0.723  52.284  1.00  0.00    -0.365 N 
HETATM   19  C1  UNL     1      17.857  -1.757  53.313  1.00  0.00     0.149 C 
HETATM   20  H4  UNL     1      18.530  -0.578  51.599  1.00  0.00     0.161 HD
HETATM   21  O1  UNL     1      15.674  -0.090  53.098  1.00  0.00    -0.274 OA
ENDBRANCH  16  17
ENDBRANCH  15  16
ENDBRANCH  13  15
ENDBRANCH   1   9
BRANCH   5  22
HETATM   22  C13 UNL     1      24.766   0.369  52.210  1.00  0.00     0.084 C 
HETATM   23  C14 UNL     1      25.463  -0.840  52.792  1.00  0.00     0.030 C 
HETATM   24  C15 UNL     1      26.951  -0.520  52.866  1.00  0.00     0.108 C 
HETATM   25  N4  UNL     1      27.145   0.503  53.867  1.00  0.00    -0.211 NA
HETATM   26  C17 UNL     1      26.181   1.554  53.798  1.00  0.00     0.112 C 
HETATM   27  C18 UNL     1      25.596   1.612  52.397  1.00  0.00     0.009 C 
HETATM   28  C19 UNL     1      24.834   2.870  52.152  1.00  0.00     0.012 C 
BRANCH  25  29
HETATM   29  S1  UNL     1      28.757   1.098  53.895  1.00  0.00     0.207 S 
HETATM   30  C16 UNL     1      29.941  -0.110  53.433  1.00  0.00     0.180 C 
HETATM   31  O3  UNL     1      28.816   2.291  52.978  1.00  0.00    -0.212 OA
HETATM   32  O4  UNL     1      29.060   1.568  55.286  1.00  0.00    -0.212 OA
ENDBRANCH  25  29
ENDBRANCH   5  22
TORSDOF 6
ENDMDL
MODEL 5
REMARK VINA RESULT:      -7.6      2.813      3.622
REMARK  6 active torsions:
REMARK  status: ('A' for Active; 'I' for Inactive)
REMARK       I    between atoms: N1_2  and  C2_3 
REMARK    1  A    between atoms: C2_3  and  C3_5 
REMARK    2  A    between atoms: C3_5  and  C4_6 
REMARK    3  A    between atoms: C4_6  and  C5_7 
REMARK    4  A    between atoms: C8_11  and  C9_12 
REMARK       I    between atoms: N3_15  and  C12_16 
REMARK    5  A    between atoms: C12_16  and  C13_18 
REMARK    6  A    between atoms: N4_21  and  S1_22 
ROOT
HETATM    1  C9  UNL     1      22.046   2.357  51.459  1.00  0.00     0.060 C 
HETATM    2  C10 UNL     1      23.398   1.816  51.068  1.00  0.00     0.032 C 
HETATM    3  C11 UNL     1      24.274   2.853  50.418  1.00  0.00     0.126 C 
HETATM    4  N3  UNL     1      24.171   4.133  51.043  1.00  0.00    -0.352 N 
HETATM    5  C12 UNL     1      24.527   5.396  50.526  1.00  0.00     0.224 C 
HETATM    6  O2  UNL     1      24.369   6.462  51.215  1.00  0.00    -0.273 OA
HETATM    7  C20 UNL     1      23.621   4.064  52.390  1.00  0.00     0.126 C 
HETATM    8  C21 UNL     1      22.151   3.661  52.215  1.00  0.00     0.032 C 
ENDROOT
BRANCH   1   9
HETATM    9  C8  UNL     1      21.351   1.332  52.283  1.00  0.00     0.124 A 
HETATM   10  N2  UNL     1      20.041   0.923  51.867  1.00  0.00    -0.250 NA
HETATM   11  C7  UNL     1      19.411   0.034  52.562  1.00  0.00     0.093 A 
HETATM   12  C6  UNL     1      19.890  -0.627  53.764  1.00  0.00     0.074 A 
HETATM   13  C5  UNL     1      21.232  -0.191  54.170  1.00  0.00     0.115 A 
HETATM   14  N5  UNL     1      21.795   0.781  53.317  1.00  0.00    -0.269 NA
BRANCH  13  15
HETATM   15  C4  UNL     1      22.244  -1.333  54.227  1.00  0.00     0.037 C 
BRANCH  15  16
HETATM   16  C3  UNL     1      23.227  -1.234  55.332  1.00  0.00     0.105 C 
BRANCH  16  17
HETATM   17  C2  UNL     1      24.592  -0.910  54.785  1.00  0.00     0.217 C 
HETATM   18  N1  UNL     1      24.821  -0.610  53.436  1.00  0.00    -0.365 N 
HETATM   19  C1  UNL     1      26.195  -0.313  53.037  1.00  0.00     0.149 C 
HETATM   20  H4  UNL     1      24.046  -0.599  52.758  1.00  0.00     0.161 HD
HETATM   21  O1  UNL     1      25.535  -0.928  55.641  1.00  0.00    -0.274 OA
ENDBRANCH  16  17
ENDBRANCH  15  16
ENDBRANCH  13  15
ENDBRANCH   1   9
BRANCH   5  22
HETATM   22  C13 UNL     1      25.099   5.567  49.165  1.00  0.00     0.084 C 
HETATM   23  C14 UNL     1      26.296   6.483  49.284  1.00  0.00     0.030 C 
HETATM   24  C15 UNL     1      26.350   7.334  48.021  1.00  0.00     0.108 C 
HETATM   25  N4  UNL     1      25.224   8.238  48.037  1.00  0.00    -0.211 NA
HETATM   26  C17 UNL     1      24.003   7.617  48.440  1.00  0.00     0.112 C 
HETATM   27  C18 UNL     1      24.092   6.120  48.192  1.00  0.00     0.009 C 
HETATM   28  C19 UNL     1      22.762   5.451  48.277  1.00  0.00     0.012 C 
BRANCH  25  29
HETATM   29  S1  UNL     1      25.058   9.106  46.563  1.00  0.00     0.207 S 
HETATM   30  C16 UNL     1      26.193  10.435  46.419  1.00  0.00     0.180 C 
HETATM   31  O3  UNL     1      25.231   8.123  45.435  1.00  0.00    -0.212 OA
HETATM   32  O4  UNL     1      23.662   9.650  46.493  1.00  0.00    -0.212 OA
ENDBRANCH  25  29
ENDBRANCH   5  22
TORSDOF 6
ENDMDL
MODEL 6
REMARK VINA RESULT:      -7.6      5.862      9.646
REMARK  6 active torsions:
REMARK  status: ('A' for Active; 'I' for Inactive)
REMARK       I    between atoms: N1_2  and  C2_3 
REMARK    1  A    between atoms: C2_3  and  C3_5 
REMARK    2  A    between atoms: C3_5  and  C4_6 
REMARK    3  A    between atoms: C4_6  and  C5_7 
REMARK    4  A    between atoms: C8_11  and  C9_12 
REMARK       I    between atoms: N3_15  and  C12_16 
REMARK    5  A    between atoms: C12_16  and  C13_18 
REMARK    6  A    between atoms: N4_21  and  S1_22 
ROOT
HETATM    1  C9  UNL     1      20.445   2.820  51.325  1.00  0.00     0.060 C 
HETATM    2  C10 UNL     1      20.755   1.662  50.411  1.00  0.00     0.032 C 
HETATM    3  C11 UNL     1      22.028   0.950  50.786  1.00  0.00     0.126 C 
HETATM    4  N3  UNL     1      22.186   0.808  52.198  1.00  0.00    -0.352 N 
HETATM    5  C12 UNL     1      23.363   0.546  52.930  1.00  0.00     0.224 C 
HETATM    6  O2  UNL     1      23.342   0.451  54.206  1.00  0.00    -0.273 OA
HETATM    7  C20 UNL     1      20.934   0.963  52.927  1.00  0.00     0.126 C 
HETATM    8  C21 UNL     1      20.553   2.442  52.784  1.00  0.00     0.032 C 
ENDROOT
BRANCH   1   9
HETATM    9  C8  UNL     1      19.075   3.310  51.014  1.00  0.00     0.124 A 
HETATM   10  N2  UNL     1      18.774   3.620  49.647  1.00  0.00    -0.250 NA
HETATM   11  C7  UNL     1      17.593   4.047  49.345  1.00  0.00     0.093 A 
HETATM   12  C6  UNL     1      16.486   4.260  50.263  1.00  0.00     0.074 A 
HETATM   13  C5  UNL     1      16.819   3.937  51.656  1.00  0.00     0.115 A 
HETATM   14  N5  UNL     1      18.142   3.483  51.834  1.00  0.00    -0.269 NA
BRANCH  13  15
HETATM   15  C4  UNL     1      15.922   2.855  52.253  1.00  0.00     0.037 C 
BRANCH  15  16
HETATM   16  C3  UNL     1      14.621   2.679  51.564  1.00  0.00     0.105 C 
BRANCH  16  17
HETATM   17  C2  UNL     1      13.500   3.177  52.438  1.00  0.00     0.217 C 
HETATM   18  N1  UNL     1      13.709   3.710  53.717  1.00  0.00    -0.365 N 
HETATM   19  C1  UNL     1      12.533   4.157  54.459  1.00  0.00     0.149 C 
HETATM   20  H4  UNL     1      14.658   3.782  54.111  1.00  0.00     0.161 HD
HETATM   21  O1  UNL     1      12.336   3.079  51.931  1.00  0.00    -0.274 OA
ENDBRANCH  16  17
ENDBRANCH  15  16
ENDBRANCH  13  15
ENDBRANCH   1   9
BRANCH   5  22
HETATM   22  C13 UNL     1      24.685   0.370  52.276  1.00  0.00     0.084 C 
HETATM   23  C14 UNL     1      25.364  -0.813  52.929  1.00  0.00     0.030 C 
HETATM   24  C15 UNL     1      26.858  -0.517  52.973  1.00  0.00     0.108 C 
HETATM   25  N4  UNL     1      27.078   0.563  53.906  1.00  0.00    -0.211 NA
HETATM   26  C17 UNL     1      26.133   1.626  53.778  1.00  0.00     0.112 C 
HETATM   27  C18 UNL     1      25.539   1.606  52.379  1.00  0.00     0.009 C 
HETATM   28  C19 UNL     1      24.798   2.861  52.060  1.00  0.00     0.012 C 
BRANCH  25  29
HETATM   29  S1  UNL     1      28.701   1.128  53.886  1.00  0.00     0.207 S 
HETATM   30  C16 UNL     1      29.848  -0.099  53.381  1.00  0.00     0.180 C 
HETATM   31  O3  UNL     1      28.754   2.326  52.974  1.00  0.00    -0.212 OA
HETATM   32  O4  UNL     1      29.056   1.585  55.270  1.00  0.00    -0.212 OA
ENDBRANCH  25  29
ENDBRANCH   5  22
TORSDOF 6
ENDMDL
MODEL 7
REMARK VINA RESULT:      -7.5      6.688     10.255
REMARK  6 active torsions:
REMARK  status: ('A' for Active; 'I' for Inactive)
REMARK       I    between atoms: N1_2  and  C2_3 
REMARK    1  A    between atoms: C2_3  and  C3_5 
REMARK    2  A    between atoms: C3_5  and  C4_6 
REMARK    3  A    between atoms: C4_6  and  C5_7 
REMARK    4  A    between atoms: C8_11  and  C9_12 
REMARK       I    between atoms: N3_15  and  C12_16 
REMARK    5  A    between atoms: C12_16  and  C13_18 
REMARK    6  A    between atoms: N4_21  and  S1_22 
ROOT
HETATM    1  C9  UNL     1      22.356   1.594  51.262  1.00  0.00     0.060 C 
HETATM    2  C10 UNL     1      22.013   1.855  49.817  1.00  0.00     0.032 C 
HETATM    3  C11 UNL     1      20.529   1.929  49.575  1.00  0.00     0.126 C 
HETATM    4  N3  UNL     1      19.835   2.626  50.611  1.00  0.00    -0.352 N 
HETATM    5  C12 UNL     1      18.462   2.588  50.930  1.00  0.00     0.224 C 
HETATM    6  O2  UNL     1      17.988   3.274  51.901  1.00  0.00    -0.273 OA
HETATM    7  C20 UNL     1      20.711   3.473  51.410  1.00  0.00     0.126 C 
HETATM    8  C21 UNL     1      21.607   2.511  52.201  1.00  0.00     0.032 C 
ENDROOT
BRANCH   1   9
HETATM    9  C8  UNL     1      23.824   1.760  51.433  1.00  0.00     0.124 A 
HETATM   10  N2  UNL     1      24.488   2.712  50.593  1.00  0.00    -0.250 NA
HETATM   11  C7  UNL     1      25.763   2.879  50.718  1.00  0.00     0.093 A 
HETATM   12  C6  UNL     1      26.641   2.189  51.648  1.00  0.00     0.074 A 
HETATM   13  C5  UNL     1      25.939   1.219  52.497  1.00  0.00     0.115 A 
HETATM   14  N5  UNL     1      24.552   1.146  52.248  1.00  0.00    -0.269 NA
BRANCH  13  15
HETATM   15  C4  UNL     1      26.080   1.512  53.989  1.00  0.00     0.037 C 
BRANCH  15  16
HETATM   16  C3  UNL     1      26.551   0.366  54.803  1.00  0.00     0.105 C 
BRANCH  16  17
HETATM   17  C2  UNL     1      28.024   0.142  54.582  1.00  0.00     0.217 C 
HETATM   18  N1  UNL     1      28.531  -0.957  53.878  1.00  0.00    -0.365 N 
HETATM   19  C1  UNL     1      29.982  -1.053  53.736  1.00  0.00     0.149 C 
HETATM   20  H4  UNL     1      27.899  -1.666  53.478  1.00  0.00     0.161 HD
HETATM   21  O1  UNL     1      28.786   1.031  55.085  1.00  0.00    -0.274 OA
ENDBRANCH  16  17
ENDBRANCH  15  16
ENDBRANCH  13  15
ENDBRANCH   1   9
BRANCH   5  22
HETATM   22  C13 UNL     1      17.491   1.759  50.171  1.00  0.00     0.084 C 
HETATM   23  C14 UNL     1      16.263   2.605  49.922  1.00  0.00     0.030 C 
HETATM   24  C15 UNL     1      15.050   1.685  49.984  1.00  0.00     0.108 C 
HETATM   25  N4  UNL     1      14.889   1.241  51.349  1.00  0.00    -0.211 NA
HETATM   26  C17 UNL     1      16.117   0.864  51.972  1.00  0.00     0.112 C 
HETATM   27  C18 UNL     1      17.132   0.492  50.904  1.00  0.00     0.009 C 
HETATM   28  C19 UNL     1      18.317  -0.216  51.469  1.00  0.00     0.012 C 
BRANCH  25  29
HETATM   29  S1  UNL     1      13.679   0.030  51.508  1.00  0.00     0.207 S 
HETATM   30  C16 UNL     1      13.461  -0.916  50.048  1.00  0.00     0.180 C 
HETATM   31  O3  UNL     1      14.066  -0.848  52.669  1.00  0.00    -0.212 OA
HETATM   32  O4  UNL     1      12.384   0.703  51.849  1.00  0.00    -0.212 OA
ENDBRANCH  25  29
ENDBRANCH   5  22
TORSDOF 6
ENDMDL
MODEL 8
REMARK VINA RESULT:      -7.4      2.306      2.835
REMARK  6 active torsions:
REMARK  status: ('A' for Active; 'I' for Inactive)
REMARK       I    between atoms: N1_2  and  C2_3 
REMARK    1  A    between atoms: C2_3  and  C3_5 
REMARK    2  A    between atoms: C3_5  and  C4_6 
REMARK    3  A    between atoms: C4_6  and  C5_7 
REMARK    4  A    between atoms: C8_11  and  C9_12 
REMARK       I    between atoms: N3_15  and  C12_16 
REMARK    5  A    between atoms: C12_16  and  C13_18 
REMARK    6  A    between atoms: N4_21  and  S1_22 
ROOT
HETATM    1  C9  UNL     1      24.174   3.569  51.679  1.00  0.00     0.060 C 
HETATM    2  C10 UNL     1      22.895   4.266  52.067  1.00  0.00     0.032 C 
HETATM    3  C11 UNL     1      22.683   5.554  51.319  1.00  0.00     0.126 C 
HETATM    4  N3  UNL     1      23.056   5.462  49.943  1.00  0.00    -0.352 N 
HETATM    5  C12 UNL     1      23.348   6.504  49.039  1.00  0.00     0.224 C 
HETATM    6  O2  UNL     1      23.675   6.256  47.827  1.00  0.00    -0.273 OA
HETATM    7  C20 UNL     1      23.128   4.087  49.467  1.00  0.00     0.126 C 
HETATM    8  C21 UNL     1      24.335   3.465  50.180  1.00  0.00     0.032 C 
ENDROOT
BRANCH   1   9
HETATM    9  C8  UNL     1      24.181   2.217  52.299  1.00  0.00     0.124 A 
HETATM   10  N2  UNL     1      22.916   1.579  52.513  1.00  0.00    -0.250 NA
HETATM   11  C7  UNL     1      22.888   0.403  53.049  1.00  0.00     0.093 A 
HETATM   12  C6  UNL     1      24.033  -0.381  53.479  1.00  0.00     0.074 A 
HETATM   13  C5  UNL     1      25.317   0.294  53.250  1.00  0.00     0.115 A 
HETATM   14  N5  UNL     1      25.191   1.568  52.659  1.00  0.00    -0.269 NA
BRANCH  13  15
HETATM   15  C4  UNL     1      26.259  -0.496  52.345  1.00  0.00     0.037 C 
BRANCH  15  16
HETATM   16  C3  UNL     1      27.425  -1.095  53.037  1.00  0.00     0.105 C 
BRANCH  16  17
HETATM   17  C2  UNL     1      28.109  -0.062  53.892  1.00  0.00     0.217 C 
HETATM   18  N1  UNL     1      28.748   1.067  53.361  1.00  0.00    -0.365 N 
HETATM   19  C1  UNL     1      29.372   1.992  54.303  1.00  0.00     0.149 C 
HETATM   20  H4  UNL     1      28.771   1.231  52.344  1.00  0.00     0.161 HD
HETATM   21  O1  UNL     1      28.067  -0.284  55.146  1.00  0.00    -0.274 OA
ENDBRANCH  16  17
ENDBRANCH  15  16
ENDBRANCH  13  15
ENDBRANCH   1   9
BRANCH   5  22
HETATM   22  C13 UNL     1      23.298   7.936  49.431  1.00  0.00     0.084 C 
HETATM   23  C14 UNL     1      22.598   8.689  48.322  1.00  0.00     0.030 C 
HETATM   24  C15 UNL     1      23.250  10.063  48.219  1.00  0.00     0.108 C 
HETATM   25  N4  UNL     1      24.594   9.890  47.720  1.00  0.00    -0.211 NA
HETATM   26  C17 UNL     1      25.290   8.802  48.330  1.00  0.00     0.112 C 
HETATM   27  C18 UNL     1      24.670   8.503  49.685  1.00  0.00     0.009 C 
HETATM   28  C19 UNL     1      25.530   7.612  50.517  1.00  0.00     0.012 C 
BRANCH  25  29
HETATM   29  S1  UNL     1      25.502  11.349  47.758  1.00  0.00     0.207 S 
HETATM   30  C16 UNL     1      26.374  11.651  46.268  1.00  0.00     0.180 C 
HETATM   31  O3  UNL     1      24.544  12.471  48.061  1.00  0.00    -0.212 OA
HETATM   32  O4  UNL     1      26.484  11.261  48.888  1.00  0.00    -0.212 OA
ENDBRANCH  25  29
ENDBRANCH   5  22
TORSDOF 6
ENDMDL
MODEL 9
REMARK VINA RESULT:      -7.3      4.723      6.581
REMARK  6 active torsions:
REMARK  status: ('A' for Active; 'I' for Inactive)
REMARK       I    between atoms: N1_2  and  C2_3 
REMARK    1  A    between atoms: C2_3  and  C3_5 
REMARK    2  A    between atoms: C3_5  and  C4_6 
REMARK    3  A    between atoms: C4_6  and  C5_7 
REMARK    4  A    between atoms: C8_11  and  C9_12 
REMARK       I    between atoms: N3_15  and  C12_16 
REMARK    5  A    between atoms: C12_16  and  C13_18 
REMARK    6  A    between atoms: N4_21  and  S1_22 
ROOT
HETATM    1  C9  UNL     1      25.764   2.191  50.843  1.00  0.00     0.060 C 
HETATM    2  C10 UNL     1      26.431   3.326  50.109  1.00  0.00     0.032 C 
HETATM    3  C11 UNL     1      25.465   4.133  49.284  1.00  0.00     0.126 C 
HETATM    4  N3  UNL     1      24.217   4.346  49.946  1.00  0.00    -0.352 N 
HETATM    5  C12 UNL     1      22.976   4.714  49.387  1.00  0.00     0.224 C 
HETATM    6  O2  UNL     1      21.938   4.864  50.119  1.00  0.00    -0.273 OA
HETATM    7  C20 UNL     1      24.298   4.143  51.386  1.00  0.00     0.126 C 
HETATM    8  C21 UNL     1      24.523   2.638  51.580  1.00  0.00     0.032 C 
ENDROOT
BRANCH   1   9
HETATM    9  C8  UNL     1      26.747   1.602  51.791  1.00  0.00     0.124 A 
HETATM   10  N2  UNL     1      27.647   2.497  52.456  1.00  0.00    -0.250 NA
HETATM   11  C7  UNL     1      28.513   2.015  53.286  1.00  0.00     0.093 A 
HETATM   12  C6  UNL     1      28.692   0.617  53.639  1.00  0.00     0.074 A 
HETATM   13  C5  UNL     1      27.760  -0.280  52.944  1.00  0.00     0.115 A 
HETATM   14  N5  UNL     1      26.874   0.387  52.072  1.00  0.00    -0.269 NA
BRANCH  13  15
HETATM   15  C4  UNL     1      26.880  -1.088  53.895  1.00  0.00     0.037 C 
BRANCH  15  16
HETATM   16  C3  UNL     1      25.956  -0.278  54.724  1.00  0.00     0.105 C 
BRANCH  16  17
HETATM   17  C2  UNL     1      24.532  -0.696  54.474  1.00  0.00     0.217 C 
HETATM   18  N1  UNL     1      23.877  -0.481  53.254  1.00  0.00    -0.365 N 
HETATM   19  C1  UNL     1      22.493  -0.938  53.144  1.00  0.00     0.149 C 
HETATM   20  H4  UNL     1      24.359  -0.019  52.470  1.00  0.00     0.161 HD
HETATM   21  O1  UNL     1      23.956  -1.267  55.456  1.00  0.00    -0.274 OA
ENDBRANCH  16  17
ENDBRANCH  15  16
ENDBRANCH  13  15
ENDBRANCH   1   9
BRANCH   5  22
HETATM   22  C13 UNL     1      22.796   4.947  47.930  1.00  0.00     0.084 C 
HETATM   23  C14 UNL     1      22.059   6.256  47.764  1.00  0.00     0.030 C 
HETATM   24  C15 UNL     1      21.143   6.116  46.554  1.00  0.00     0.108 C 
HETATM   25  N4  UNL     1      20.099   5.174  46.883  1.00  0.00    -0.211 NA
HETATM   26  C17 UNL     1      20.575   4.016  47.569  1.00  0.00     0.112 C 
HETATM   27  C18 UNL     1      22.051   3.820  47.264  1.00  0.00     0.009 C 
HETATM   28  C19 UNL     1      22.540   2.470  47.669  1.00  0.00     0.012 C 
BRANCH  25  29
HETATM   29  S1  UNL     1      19.123   4.774  45.526  1.00  0.00     0.207 S 
HETATM   30  C16 UNL     1      18.375   3.194  45.663  1.00  0.00     0.180 C 
HETATM   31  O3  UNL     1      18.083   5.854  45.381  1.00  0.00    -0.212 OA
HETATM   32  O4  UNL     1      19.988   4.798  44.302  1.00  0.00    -0.212 OA
ENDBRANCH  25  29
ENDBRANCH   5  22
TORSDOF 6
ENDMDL
