MODEL 1
REMARK VINA RESULT:      -7.8      0.000      0.000
REMARK  9 active torsions:
REMARK  status: ('A' for Active; 'I' for Inactive)
REMARK    1  A    between atoms: C2_2  and  C3_3 
REMARK    2  A    between atoms: C3_3  and  C4_4 
REMARK    3  A    between atoms: C4_4  and  N1_5 
REMARK    4  A    between atoms: C5_6  and  C6_7 
REMARK    5  A    between atoms: C7_8  and  C8_9 
REMARK    6  A    between atoms: C8_9  and  C9_10 
REMARK    7  A    between atoms: C9_10  and  C10_11 
REMARK    8  A    between atoms: N3_16  and  C14_17 
REMARK    9  A    between atoms: C15_19  and  O1_20 
ROOT
HETATM    1  C10 UNL     1      26.214   2.001  52.391  1.00  0.00     0.118 C 
HETATM    2  C11 UNL     1      25.055   2.397  53.281  1.00  0.00     0.083 C 
HETATM    3  C12 UNL     1      24.160   1.214  53.014  1.00  0.00     0.031 C 
HETATM    4  C13 UNL     1      22.683   1.246  53.100  1.00  0.00     0.067 C 
HETATM    5  N2  UNL     1      24.941   0.224  52.710  1.00  0.00    -0.179 NA
HETATM    6  N3  UNL     1      26.286   0.593  52.737  1.00  0.00    -0.241 N 
ENDROOT
BRANCH   1   7
HETATM    7  C9  UNL     1      25.876   2.184  50.927  1.00  0.00     0.031 C 
BRANCH   7   8
HETATM    8  C8  UNL     1      26.599   3.367  50.336  1.00  0.00     0.029 C 
BRANCH   8   9
HETATM    9  C7  UNL     1      25.607   4.335  49.753  1.00  0.00    -0.027 C 
HETATM   10  C6  UNL     1      25.882   5.380  48.995  1.00  0.00    -0.003 C 
BRANCH  10  11
HETATM   11  C5  UNL     1      27.219   5.747  48.609  1.00  0.00     0.007 C 
HETATM   12  C2  UNL     1      27.614   7.010  48.595  1.00  0.00    -0.053 C 
HETATM   13  C1  UNL     1      28.939   7.527  48.226  1.00  0.00     0.049 C 
BRANCH  12  14
HETATM   14  C3  UNL     1      26.700   8.107  48.974  1.00  0.00     0.083 C 
BRANCH  14  15
HETATM   15  C4  UNL     1      27.215   8.842  49.947  1.00  0.00    -0.025 C 
BRANCH  15  16
HETATM   16  N1  UNL     1      27.534   9.437  51.043  1.00  0.00    -0.258 NA
HETATM   17  H5  UNL     1      26.935   9.228  51.897  1.00  0.00     0.197 HD
ENDBRANCH  15  16
ENDBRANCH  14  15
ENDBRANCH  12  14
ENDBRANCH  10  11
ENDBRANCH   8   9
ENDBRANCH   7   8
ENDBRANCH   1   7
BRANCH   6  18
HETATM   18  C14 UNL     1      27.411  -0.275  53.043  1.00  0.00     0.192 A 
HETATM   19  N4  UNL     1      27.609  -1.463  53.099  1.00  0.00    -0.198 NA
HETATM   20  C15 UNL     1      28.797  -1.964  53.422  1.00  0.00     0.171 A 
HETATM   21  C16 UNL     1      29.867  -1.038  53.711  1.00  0.00     0.111 A 
HETATM   22  S1  UNL     1      28.971   0.578  53.465  1.00  0.00    -0.058 SA
BRANCH  20  23
HETATM   23  O1  UNL     1      28.818  -3.375  53.431  1.00  0.00    -0.344 OA
HETATM   24  H19 UNL     1      29.663  -3.824  53.803  1.00  0.00     0.219 HD
ENDBRANCH  20  23
ENDBRANCH   6  18
TORSDOF 9
ENDMDL
MODEL 2
REMARK VINA RESULT:      -7.5      2.556      4.042
REMARK  9 active torsions:
REMARK  status: ('A' for Active; 'I' for Inactive)
REMARK    1  A    between atoms: C2_2  and  C3_3 
REMARK    2  A    between atoms: C3_3  and  C4_4 
REMARK    3  A    between atoms: C4_4  and  N1_5 
REMARK    4  A    between atoms: C5_6  and  C6_7 
REMARK    5  A    between atoms: C7_8  and  C8_9 
REMARK    6  A    between atoms: C8_9  and  C9_10 
REMARK    7  A    between atoms: C9_10  and  C10_11 
REMARK    8  A    between atoms: N3_16  and  C14_17 
REMARK    9  A    between atoms: C15_19  and  O1_20 
ROOT
HETATM    1  C10 UNL     1      25.992   0.376  52.198  1.00  0.00     0.118 C 
HETATM    2  C11 UNL     1      27.173  -0.469  52.625  1.00  0.00     0.083 C 
HETATM    3  C12 UNL     1      27.312   0.044  54.035  1.00  0.00     0.031 C 
HETATM    4  C13 UNL     1      28.581   0.071  54.795  1.00  0.00     0.067 C 
HETATM    5  N2  UNL     1      26.130   0.432  54.403  1.00  0.00    -0.179 NA
HETATM    6  N3  UNL     1      25.182   0.243  53.396  1.00  0.00    -0.241 N 
ENDROOT
BRANCH   1   7
HETATM    7  C9  UNL     1      26.394   1.817  51.973  1.00  0.00     0.031 C 
BRANCH   7   8
HETATM    8  C8  UNL     1      26.551   2.125  50.506  1.00  0.00     0.029 C 
BRANCH   8   9
HETATM    9  C7  UNL     1      25.622   3.239  50.113  1.00  0.00    -0.027 C 
HETATM   10  C6  UNL     1      25.937   4.318  49.422  1.00  0.00    -0.003 C 
BRANCH  10  11
HETATM   11  C5  UNL     1      27.264   4.584  48.932  1.00  0.00     0.007 C 
HETATM   12  C2  UNL     1      27.602   5.771  48.455  1.00  0.00    -0.053 C 
HETATM   13  C1  UNL     1      28.910   6.181  47.926  1.00  0.00     0.049 C 
BRANCH  12  14
HETATM   14  C3  UNL     1      26.632   6.884  48.401  1.00  0.00     0.083 C 
BRANCH  14  15
HETATM   15  C4  UNL     1      26.797   7.711  49.420  1.00  0.00    -0.025 C 
BRANCH  15  16
HETATM   16  N1  UNL     1      26.798   8.349  50.539  1.00  0.00    -0.258 NA
HETATM   17  H5  UNL     1      27.395   9.227  50.591  1.00  0.00     0.197 HD
ENDBRANCH  15  16
ENDBRANCH  14  15
ENDBRANCH  12  14
ENDBRANCH  10  11
ENDBRANCH   8   9
ENDBRANCH   7   8
ENDBRANCH   1   7
BRANCH   6  18
HETATM   18  C14 UNL     1      23.764  -0.016  53.586  1.00  0.00     0.192 A 
HETATM   19  N4  UNL     1      23.094  -0.783  54.232  1.00  0.00    -0.198 NA
HETATM   20  C15 UNL     1      21.766  -0.767  54.185  1.00  0.00     0.171 A 
HETATM   21  C16 UNL     1      21.129   0.206  53.329  1.00  0.00     0.111 A 
HETATM   22  S1  UNL     1      22.635   1.056  52.631  1.00  0.00    -0.058 SA
BRANCH  20  23
HETATM   23  O1  UNL     1      21.173  -1.743  55.014  1.00  0.00    -0.344 OA
HETATM   24  H19 UNL     1      21.319  -2.725  54.751  1.00  0.00     0.219 HD
ENDBRANCH  20  23
ENDBRANCH   6  18
TORSDOF 9
ENDMDL
MODEL 3
REMARK VINA RESULT:      -7.5      4.164      6.179
REMARK  9 active torsions:
REMARK  status: ('A' for Active; 'I' for Inactive)
REMARK    1  A    between atoms: C2_2  and  C3_3 
REMARK    2  A    between atoms: C3_3  and  C4_4 
REMARK    3  A    between atoms: C4_4  and  N1_5 
REMARK    4  A    between atoms: C5_6  and  C6_7 
REMARK    5  A    between atoms: C7_8  and  C8_9 
REMARK    6  A    between atoms: C8_9  and  C9_10 
REMARK    7  A    between atoms: C9_10  and  C10_11 
REMARK    8  A    between atoms: N3_16  and  C14_17 
REMARK    9  A    between atoms: C15_19  and  O1_20 
ROOT
HETATM    1  C10 UNL     1      24.559  -0.320  53.125  1.00  0.00     0.118 C 
HETATM    2  C11 UNL     1      24.133   0.840  52.252  1.00  0.00     0.083 C 
HETATM    3  C12 UNL     1      24.716   1.959  53.075  1.00  0.00     0.031 C 
HETATM    4  C13 UNL     1      24.184   3.340  53.106  1.00  0.00     0.067 C 
HETATM    5  N2  UNL     1      25.731   1.459  53.710  1.00  0.00    -0.179 NA
HETATM    6  N3  UNL     1      25.916   0.108  53.414  1.00  0.00    -0.241 N 
ENDROOT
BRANCH   1   7
HETATM    7  C9  UNL     1      23.732  -0.394  54.390  1.00  0.00     0.031 C 
BRANCH   7   8
HETATM    8  C8  UNL     1      22.461  -1.174  54.176  1.00  0.00     0.029 C 
BRANCH   8   9
HETATM    9  C7  UNL     1      21.277  -0.358  54.614  1.00  0.00    -0.027 C 
HETATM   10  C6  UNL     1      20.354   0.170  53.832  1.00  0.00    -0.003 C 
BRANCH  10  11
HETATM   11  C5  UNL     1      20.355   0.029  52.400  1.00  0.00     0.007 C 
HETATM   12  C2  UNL     1      20.525   1.071  51.601  1.00  0.00    -0.053 C 
HETATM   13  C1  UNL     1      20.549   1.074  50.133  1.00  0.00     0.049 C 
BRANCH  12  14
HETATM   14  C3  UNL     1      20.719   2.432  52.142  1.00  0.00     0.083 C 
BRANCH  14  15
HETATM   15  C4  UNL     1      19.616   3.153  52.027  1.00  0.00    -0.025 C 
BRANCH  15  16
HETATM   16  N1  UNL     1      18.447   3.640  51.796  1.00  0.00    -0.258 NA
HETATM   17  H5  UNL     1      17.852   3.887  52.642  1.00  0.00     0.197 HD
ENDBRANCH  15  16
ENDBRANCH  14  15
ENDBRANCH  12  14
ENDBRANCH  10  11
ENDBRANCH   8   9
ENDBRANCH   7   8
ENDBRANCH   1   7
BRANCH   6  18
HETATM   18  C14 UNL     1      27.180  -0.610  53.420  1.00  0.00     0.192 A 
HETATM   19  N4  UNL     1      27.531  -1.762  53.372  1.00  0.00    -0.198 NA
HETATM   20  C15 UNL     1      28.815  -2.108  53.398  1.00  0.00     0.171 A 
HETATM   21  C16 UNL     1      29.798  -1.054  53.488  1.00  0.00     0.111 A 
HETATM   22  S1  UNL     1      28.676   0.434  53.527  1.00  0.00    -0.058 SA
BRANCH  20  23
HETATM   23  O1  UNL     1      29.012  -3.504  53.331  1.00  0.00    -0.344 OA
HETATM   24  H19 UNL     1      29.892  -3.827  52.911  1.00  0.00     0.219 HD
ENDBRANCH  20  23
ENDBRANCH   6  18
TORSDOF 9
ENDMDL
MODEL 4
REMARK VINA RESULT:      -7.5      2.048      2.232
REMARK  9 active torsions:
REMARK  status: ('A' for Active; 'I' for Inactive)
REMARK    1  A    between atoms: C2_2  and  C3_3 
REMARK    2  A    between atoms: C3_3  and  C4_4 
REMARK    3  A    between atoms: C4_4  and  N1_5 
REMARK    4  A    between atoms: C5_6  and  C6_7 
REMARK    5  A    between atoms: C7_8  and  C8_9 
REMARK    6  A    between atoms: C8_9  and  C9_10 
REMARK    7  A    between atoms: C9_10  and  C10_11 
REMARK    8  A    between atoms: N3_16  and  C14_17 
REMARK    9  A    between atoms: C15_19  and  O1_20 
ROOT
HETATM    1  C10 UNL     1      25.077   2.755  52.166  1.00  0.00     0.118 C 
HETATM    2  C11 UNL     1      23.725   2.579  52.824  1.00  0.00     0.083 C 
HETATM    3  C12 UNL     1      23.547   1.105  52.568  1.00  0.00     0.031 C 
HETATM    4  C13 UNL     1      22.237   0.431  52.432  1.00  0.00     0.067 C 
HETATM    5  N2  UNL     1      24.739   0.597  52.500  1.00  0.00    -0.179 NA
HETATM    6  N3  UNL     1      25.729   1.564  52.682  1.00  0.00    -0.241 N 
ENDROOT
BRANCH   1   7
HETATM    7  C9  UNL     1      24.971   2.705  50.658  1.00  0.00     0.031 C 
BRANCH   7   8
HETATM    8  C8  UNL     1      26.209   3.254  49.997  1.00  0.00     0.029 C 
BRANCH   8   9
HETATM    9  C7  UNL     1      25.919   4.606  49.407  1.00  0.00    -0.027 C 
HETATM   10  C6  UNL     1      26.771   5.380  48.759  1.00  0.00    -0.003 C 
BRANCH  10  11
HETATM   11  C5  UNL     1      28.143   5.019  48.521  1.00  0.00     0.007 C 
HETATM   12  C2  UNL     1      29.031   5.908  48.104  1.00  0.00    -0.053 C 
HETATM   13  C1  UNL     1      30.455   5.682  47.823  1.00  0.00     0.049 C 
BRANCH  12  14
HETATM   14  C3  UNL     1      28.655   7.316  47.861  1.00  0.00     0.083 C 
BRANCH  14  15
HETATM   15  C4  UNL     1      29.301   8.130  48.679  1.00  0.00    -0.025 C 
BRANCH  15  16
HETATM   16  N1  UNL     1      29.721   8.887  49.633  1.00  0.00    -0.258 NA
HETATM   17  H5  UNL     1      29.852   9.918  49.407  1.00  0.00     0.197 HD
ENDBRANCH  15  16
ENDBRANCH  14  15
ENDBRANCH  12  14
ENDBRANCH  10  11
ENDBRANCH   8   9
ENDBRANCH   7   8
ENDBRANCH   1   7
BRANCH   6  18
HETATM   18  C14 UNL     1      27.050   1.348  53.249  1.00  0.00     0.192 A 
HETATM   19  N4  UNL     1      27.884   2.020  53.803  1.00  0.00    -0.198 NA
HETATM   20  C15 UNL     1      29.037   1.508  54.219  1.00  0.00     0.171 A 
HETATM   21  C16 UNL     1      29.276   0.102  53.989  1.00  0.00     0.111 A 
HETATM   22  S1  UNL     1      27.687  -0.360  53.132  1.00  0.00    -0.058 SA
BRANCH  20  23
HETATM   23  O1  UNL     1      29.872   2.460  54.842  1.00  0.00    -0.344 OA
HETATM   24  H19 UNL     1      29.931   2.425  55.867  1.00  0.00     0.219 HD
ENDBRANCH  20  23
ENDBRANCH   6  18
TORSDOF 9
ENDMDL
MODEL 5
REMARK VINA RESULT:      -7.4      4.456      6.762
REMARK  9 active torsions:
REMARK  status: ('A' for Active; 'I' for Inactive)
REMARK    1  A    between atoms: C2_2  and  C3_3 
REMARK    2  A    between atoms: C3_3  and  C4_4 
REMARK    3  A    between atoms: C4_4  and  N1_5 
REMARK    4  A    between atoms: C5_6  and  C6_7 
REMARK    5  A    between atoms: C7_8  and  C8_9 
REMARK    6  A    between atoms: C8_9  and  C9_10 
REMARK    7  A    between atoms: C9_10  and  C10_11 
REMARK    8  A    between atoms: N3_16  and  C14_17 
REMARK    9  A    between atoms: C15_19  and  O1_20 
ROOT
HETATM    1  C10 UNL     1      24.089   2.347  52.856  1.00  0.00     0.118 C 
HETATM    2  C11 UNL     1      24.017   3.832  53.140  1.00  0.00     0.083 C 
HETATM    3  C12 UNL     1      23.059   4.220  52.044  1.00  0.00     0.031 C 
HETATM    4  C13 UNL     1      23.015   5.553  51.404  1.00  0.00     0.067 C 
HETATM    5  N2  UNL     1      22.328   3.174  51.808  1.00  0.00    -0.179 NA
HETATM    6  N3  UNL     1      22.677   2.099  52.627  1.00  0.00    -0.241 N 
ENDROOT
BRANCH   1   7
HETATM    7  C9  UNL     1      24.900   2.061  51.610  1.00  0.00     0.031 C 
BRANCH   7   8
HETATM    8  C8  UNL     1      25.811   0.877  51.804  1.00  0.00     0.029 C 
BRANCH   8   9
HETATM    9  C7  UNL     1      25.499   0.196  53.107  1.00  0.00    -0.027 C 
HETATM   10  C6  UNL     1      26.279  -0.644  53.762  1.00  0.00    -0.003 C 
BRANCH  10  11
HETATM   11  C5  UNL     1      27.583  -1.037  53.298  1.00  0.00     0.007 C 
HETATM   12  C2  UNL     1      28.677  -0.399  53.684  1.00  0.00    -0.053 C 
HETATM   13  C1  UNL     1      30.063  -0.689  53.294  1.00  0.00     0.049 C 
BRANCH  12  14
HETATM   14  C3  UNL     1      28.612   0.751  54.610  1.00  0.00     0.083 C 
BRANCH  14  15
HETATM   15  C4  UNL     1      28.800   1.892  53.967  1.00  0.00    -0.025 C 
BRANCH  15  16
HETATM   16  N1  UNL     1      28.922   2.861  53.128  1.00  0.00    -0.258 NA
HETATM   17  H5  UNL     1      28.127   3.567  53.090  1.00  0.00     0.197 HD
ENDBRANCH  15  16
ENDBRANCH  14  15
ENDBRANCH  12  14
ENDBRANCH  10  11
ENDBRANCH   8   9
ENDBRANCH   7   8
ENDBRANCH   1   7
BRANCH   6  18
HETATM   18  C14 UNL     1      21.790   1.042  53.085  1.00  0.00     0.192 A 
HETATM   19  N4  UNL     1      21.858   0.118  53.857  1.00  0.00    -0.198 NA
HETATM   20  C15 UNL     1      20.832  -0.702  54.062  1.00  0.00     0.171 A 
HETATM   21  C16 UNL     1      19.613  -0.460  53.327  1.00  0.00     0.111 A 
HETATM   22  S1  UNL     1      20.120   1.041  52.345  1.00  0.00    -0.058 SA
BRANCH  20  23
HETATM   23  O1  UNL     1      21.115  -1.716  55.003  1.00  0.00    -0.344 OA
HETATM   24  H19 UNL     1      22.076  -1.757  55.363  1.00  0.00     0.219 HD
ENDBRANCH  20  23
ENDBRANCH   6  18
TORSDOF 9
ENDMDL
MODEL 6
REMARK VINA RESULT:      -7.0      4.486      7.413
REMARK  9 active torsions:
REMARK  status: ('A' for Active; 'I' for Inactive)
REMARK    1  A    between atoms: C2_2  and  C3_3 
REMARK    2  A    between atoms: C3_3  and  C4_4 
REMARK    3  A    between atoms: C4_4  and  N1_5 
REMARK    4  A    between atoms: C5_6  and  C6_7 
REMARK    5  A    between atoms: C7_8  and  C8_9 
REMARK    6  A    between atoms: C8_9  and  C9_10 
REMARK    7  A    between atoms: C9_10  and  C10_11 
REMARK    8  A    between atoms: N3_16  and  C14_17 
REMARK    9  A    between atoms: C15_19  and  O1_20 
ROOT
HETATM    1  C10 UNL     1      24.576   0.431  52.790  1.00  0.00     0.118 C 
HETATM    2  C11 UNL     1      23.919   1.281  51.723  1.00  0.00     0.083 C 
HETATM    3  C12 UNL     1      23.822   2.569  52.498  1.00  0.00     0.031 C 
HETATM    4  C13 UNL     1      22.791   3.606  52.271  1.00  0.00     0.067 C 
HETATM    5  N2  UNL     1      24.794   2.556  53.357  1.00  0.00    -0.179 NA
HETATM    6  N3  UNL     1      25.558   1.392  53.261  1.00  0.00    -0.241 N 
ENDROOT
BRANCH   1   7
HETATM    7  C9  UNL     1      23.601   0.068  53.888  1.00  0.00     0.031 C 
BRANCH   7   8
HETATM    8  C8  UNL     1      22.617  -0.977  53.431  1.00  0.00     0.029 C 
BRANCH   8   9
HETATM    9  C7  UNL     1      21.291  -0.763  54.106  1.00  0.00    -0.027 C 
HETATM   10  C6  UNL     1      20.264  -0.088  53.624  1.00  0.00    -0.003 C 
BRANCH  10  11
HETATM   11  C5  UNL     1      20.275   0.558  52.338  1.00  0.00     0.007 C 
HETATM   12  C2  UNL     1      19.284   0.403  51.475  1.00  0.00    -0.053 C 
HETATM   13  C1  UNL     1      19.164   0.998  50.137  1.00  0.00     0.049 C 
BRANCH  12  14
HETATM   14  C3  UNL     1      18.115  -0.445  51.789  1.00  0.00     0.083 C 
BRANCH  14  15
HETATM   15  C4  UNL     1      17.001   0.081  51.306  1.00  0.00    -0.025 C 
BRANCH  15  16
HETATM   16  N1  UNL     1      15.865   0.646  51.089  1.00  0.00    -0.258 NA
HETATM   17  H5  UNL     1      15.655   0.937  50.088  1.00  0.00     0.197 HD
ENDBRANCH  15  16
ENDBRANCH  14  15
ENDBRANCH  12  14
ENDBRANCH  10  11
ENDBRANCH   8   9
ENDBRANCH   7   8
ENDBRANCH   1   7
BRANCH   6  18
HETATM   18  C14 UNL     1      26.971   1.261  53.575  1.00  0.00     0.192 A 
HETATM   19  N4  UNL     1      27.826   1.956  54.066  1.00  0.00    -0.198 NA
HETATM   20  C15 UNL     1      29.075   1.530  54.221  1.00  0.00     0.171 A 
HETATM   21  C16 UNL     1      29.395   0.193  53.780  1.00  0.00     0.111 A 
HETATM   22  S1  UNL     1      27.728  -0.344  53.141  1.00  0.00    -0.058 SA
BRANCH  20  23
HETATM   23  O1  UNL     1      29.918   2.494  54.815  1.00  0.00    -0.344 OA
HETATM   24  H19 UNL     1      29.459   3.296  55.263  1.00  0.00     0.219 HD
ENDBRANCH  20  23
ENDBRANCH   6  18
TORSDOF 9
ENDMDL
MODEL 7
REMARK VINA RESULT:      -7.0      5.398      7.989
REMARK  9 active torsions:
REMARK  status: ('A' for Active; 'I' for Inactive)
REMARK    1  A    between atoms: C2_2  and  C3_3 
REMARK    2  A    between atoms: C3_3  and  C4_4 
REMARK    3  A    between atoms: C4_4  and  N1_5 
REMARK    4  A    between atoms: C5_6  and  C6_7 
REMARK    5  A    between atoms: C7_8  and  C8_9 
REMARK    6  A    between atoms: C8_9  and  C9_10 
REMARK    7  A    between atoms: C9_10  and  C10_11 
REMARK    8  A    between atoms: N3_16  and  C14_17 
REMARK    9  A    between atoms: C15_19  and  O1_20 
ROOT
HETATM    1  C10 UNL     1      22.691   1.287  52.193  1.00  0.00     0.118 C 
HETATM    2  C11 UNL     1      22.622  -0.214  52.380  1.00  0.00     0.083 C 
HETATM    3  C12 UNL     1      21.876  -0.238  53.688  1.00  0.00     0.031 C 
HETATM    4  C13 UNL     1      21.985  -1.317  54.694  1.00  0.00     0.067 C 
HETATM    5  N2  UNL     1      21.160   0.844  53.723  1.00  0.00    -0.179 NA
HETATM    6  N3  UNL     1      21.330   1.618  52.575  1.00  0.00    -0.241 N 
ENDROOT
BRANCH   1   7
HETATM    7  C9  UNL     1      23.690   1.918  53.138  1.00  0.00     0.031 C 
BRANCH   7   8
HETATM    8  C8  UNL     1      24.540   2.946  52.439  1.00  0.00     0.029 C 
BRANCH   8   9
HETATM    9  C7  UNL     1      25.221   2.327  51.251  1.00  0.00    -0.027 C 
HETATM   10  C6  UNL     1      26.397   1.727  51.244  1.00  0.00    -0.003 C 
BRANCH  10  11
HETATM   11  C5  UNL     1      27.217   1.579  52.417  1.00  0.00     0.007 C 
HETATM   12  C2  UNL     1      27.291   0.431  53.071  1.00  0.00    -0.053 C 
HETATM   13  C1  UNL     1      28.082   0.138  54.274  1.00  0.00     0.049 C 
BRANCH  12  14
HETATM   14  C3  UNL     1      26.534  -0.758  52.627  1.00  0.00     0.083 C 
BRANCH  14  15
HETATM   15  C4  UNL     1      27.227  -1.867  52.827  1.00  0.00    -0.025 C 
BRANCH  15  16
HETATM   16  N1  UNL     1      27.852  -2.991  52.766  1.00  0.00    -0.258 NA
HETATM   17  H5  UNL     1      28.476  -3.240  53.591  1.00  0.00     0.197 HD
ENDBRANCH  15  16
ENDBRANCH  14  15
ENDBRANCH  12  14
ENDBRANCH  10  11
ENDBRANCH   8   9
ENDBRANCH   7   8
ENDBRANCH   1   7
BRANCH   6  18
HETATM   18  C14 UNL     1      20.344   2.506  51.981  1.00  0.00     0.192 A 
HETATM   19  N4  UNL     1      19.237   2.894  52.260  1.00  0.00    -0.198 NA
HETATM   20  C15 UNL     1      18.570   3.738  51.479  1.00  0.00     0.171 A 
HETATM   21  C16 UNL     1      19.210   4.188  50.266  1.00  0.00     0.111 A 
HETATM   22  S1  UNL     1      20.830   3.274  50.397  1.00  0.00    -0.058 SA
BRANCH  20  23
HETATM   23  O1  UNL     1      17.294   4.067  51.984  1.00  0.00    -0.344 OA
HETATM   24  H19 UNL     1      16.870   3.401  52.641  1.00  0.00     0.219 HD
ENDBRANCH  20  23
ENDBRANCH   6  18
TORSDOF 9
ENDMDL
MODEL 8
REMARK VINA RESULT:      -6.9      2.740      3.704
REMARK  9 active torsions:
REMARK  status: ('A' for Active; 'I' for Inactive)
REMARK    1  A    between atoms: C2_2  and  C3_3 
REMARK    2  A    between atoms: C3_3  and  C4_4 
REMARK    3  A    between atoms: C4_4  and  N1_5 
REMARK    4  A    between atoms: C5_6  and  C6_7 
REMARK    5  A    between atoms: C7_8  and  C8_9 
REMARK    6  A    between atoms: C8_9  and  C9_10 
REMARK    7  A    between atoms: C9_10  and  C10_11 
REMARK    8  A    between atoms: N3_16  and  C14_17 
REMARK    9  A    between atoms: C15_19  and  O1_20 
ROOT
HETATM    1  C10 UNL     1      26.262   1.955  52.439  1.00  0.00     0.118 C 
HETATM    2  C11 UNL     1      25.090   2.330  53.320  1.00  0.00     0.083 C 
HETATM    3  C12 UNL     1      24.200   1.154  53.013  1.00  0.00     0.031 C 
HETATM    4  C13 UNL     1      22.722   1.184  53.078  1.00  0.00     0.067 C 
HETATM    5  N2  UNL     1      24.985   0.171  52.698  1.00  0.00    -0.179 NA
HETATM    6  N3  UNL     1      26.330   0.539  52.754  1.00  0.00    -0.241 N 
ENDROOT
BRANCH   1   7
HETATM    7  C9  UNL     1      25.946   2.171  50.975  1.00  0.00     0.031 C 
BRANCH   7   8
HETATM    8  C8  UNL     1      26.657   3.381  50.428  1.00  0.00     0.029 C 
BRANCH   8   9
HETATM    9  C7  UNL     1      25.865   3.974  49.297  1.00  0.00    -0.027 C 
HETATM   10  C6  UNL     1      24.789   4.732  49.404  1.00  0.00    -0.003 C 
BRANCH  10  11
HETATM   11  C5  UNL     1      24.208   5.108  50.665  1.00  0.00     0.007 C 
HETATM   12  C2  UNL     1      23.084   4.561  51.101  1.00  0.00    -0.053 C 
HETATM   13  C1  UNL     1      22.383   4.846  52.360  1.00  0.00     0.049 C 
BRANCH  12  14
HETATM   14  C3  UNL     1      22.369   3.537  50.311  1.00  0.00     0.083 C 
BRANCH  14  15
HETATM   15  C4  UNL     1      21.129   3.918  50.048  1.00  0.00    -0.025 C 
BRANCH  15  16
HETATM   16  N1  UNL     1      20.038   4.448  49.615  1.00  0.00    -0.258 NA
HETATM   17  H5  UNL     1      19.265   4.608  50.328  1.00  0.00     0.197 HD
ENDBRANCH  15  16
ENDBRANCH  14  15
ENDBRANCH  12  14
ENDBRANCH  10  11
ENDBRANCH   8   9
ENDBRANCH   7   8
ENDBRANCH   1   7
BRANCH   6  18
HETATM   18  C14 UNL     1      27.450  -0.336  53.056  1.00  0.00     0.192 A 
HETATM   19  N4  UNL     1      27.648  -1.525  53.086  1.00  0.00    -0.198 NA
HETATM   20  C15 UNL     1      28.832  -2.033  53.415  1.00  0.00     0.171 A 
HETATM   21  C16 UNL     1      29.895  -1.114  53.745  1.00  0.00     0.111 A 
HETATM   22  S1  UNL     1      29.002   0.507  53.525  1.00  0.00    -0.058 SA
BRANCH  20  23
HETATM   23  O1  UNL     1      28.853  -3.444  53.389  1.00  0.00    -0.344 OA
HETATM   24  H19 UNL     1      29.600  -3.906  53.921  1.00  0.00     0.219 HD
ENDBRANCH  20  23
ENDBRANCH   6  18
TORSDOF 9
ENDMDL
MODEL 9
REMARK VINA RESULT:      -6.8      2.882      3.573
REMARK  9 active torsions:
REMARK  status: ('A' for Active; 'I' for Inactive)
REMARK    1  A    between atoms: C2_2  and  C3_3 
REMARK    2  A    between atoms: C3_3  and  C4_4 
REMARK    3  A    between atoms: C4_4  and  N1_5 
REMARK    4  A    between atoms: C5_6  and  C6_7 
REMARK    5  A    between atoms: C7_8  and  C8_9 
REMARK    6  A    between atoms: C8_9  and  C9_10 
REMARK    7  A    between atoms: C9_10  and  C10_11 
REMARK    8  A    between atoms: N3_16  and  C14_17 
REMARK    9  A    between atoms: C15_19  and  O1_20 
ROOT
HETATM    1  C10 UNL     1      23.900   2.063  52.305  1.00  0.00     0.118 C 
HETATM    2  C11 UNL     1      22.710   1.617  53.127  1.00  0.00     0.083 C 
HETATM    3  C12 UNL     1      22.922   0.129  53.032  1.00  0.00     0.031 C 
HETATM    4  C13 UNL     1      21.841  -0.878  53.111  1.00  0.00     0.067 C 
HETATM    5  N2  UNL     1      24.197  -0.051  52.875  1.00  0.00    -0.179 NA
HETATM    6  N3  UNL     1      24.895   1.157  52.851  1.00  0.00    -0.241 N 
ENDROOT
BRANCH   1   7
HETATM    7  C9  UNL     1      23.682   1.805  50.830  1.00  0.00     0.031 C 
BRANCH   7   8
HETATM    8  C8  UNL     1      22.375   2.383  50.354  1.00  0.00     0.029 C 
BRANCH   8   9
HETATM    9  C7  UNL     1      22.509   2.857  48.934  1.00  0.00    -0.027 C 
HETATM   10  C6  UNL     1      22.789   4.085  48.539  1.00  0.00    -0.003 C 
BRANCH  10  11
HETATM   11  C5  UNL     1      23.011   5.177  49.449  1.00  0.00     0.007 C 
HETATM   12  C2  UNL     1      24.226   5.646  49.686  1.00  0.00    -0.053 C 
HETATM   13  C1  UNL     1      24.598   6.748  50.583  1.00  0.00     0.049 C 
BRANCH  12  14
HETATM   14  C3  UNL     1      25.416   5.069  49.027  1.00  0.00     0.083 C 
BRANCH  14  15
HETATM   15  C4  UNL     1      26.176   4.423  49.897  1.00  0.00    -0.025 C 
BRANCH  15  16
HETATM   16  N1  UNL     1      26.987   3.651  50.534  1.00  0.00    -0.258 NA
HETATM   17  H5  UNL     1      27.985   3.598  50.171  1.00  0.00     0.197 HD
ENDBRANCH  15  16
ENDBRANCH  14  15
ENDBRANCH  12  14
ENDBRANCH  10  11
ENDBRANCH   8   9
ENDBRANCH   7   8
ENDBRANCH   1   7
BRANCH   6  18
HETATM   18  C14 UNL     1      26.268   1.368  53.280  1.00  0.00     0.192 A 
HETATM   19  N4  UNL     1      27.175   2.104  52.980  1.00  0.00    -0.198 NA
HETATM   20  C15 UNL     1      28.358   2.045  53.583  1.00  0.00     0.171 A 
HETATM   21  C16 UNL     1      28.539   1.061  54.625  1.00  0.00     0.111 A 
HETATM   22  S1  UNL     1      26.851   0.269  54.618  1.00  0.00    -0.058 SA
BRANCH  20  23
HETATM   23  O1  UNL     1      29.279   2.991  53.086  1.00  0.00    -0.344 OA
HETATM   24  H19 UNL     1      28.953   3.600  52.327  1.00  0.00     0.219 HD
ENDBRANCH  20  23
ENDBRANCH   6  18
TORSDOF 9
ENDMDL
