MODEL 1
REMARK VINA RESULT:      -8.8      0.000      0.000
REMARK  5 active torsions:
REMARK  status: ('A' for Active; 'I' for Inactive)
REMARK    1  A    between atoms: O1_2  and  C2_3 
REMARK    2  A    between atoms: C5_6  and  N1_7 
REMARK    3  A    between atoms: N1_7  and  C6_8 
REMARK    4  A    between atoms: C10_14  and  O2_15 
REMARK    5  A    between atoms: C18_23  and  O3_24 
ROOT
HETATM    1  C6  UNL     1      23.228  -0.238  53.319  1.00  0.00     0.142 A 
HETATM    2  N2  UNL     1      23.717  -0.791  54.430  1.00  0.00    -0.224 NA
HETATM    3  C7  UNL     1      22.845  -1.383  55.298  1.00  0.00     0.236 A 
HETATM    4  N3  UNL     1      21.525  -1.387  54.995  1.00  0.00    -0.241 NA
HETATM    5  C8  UNL     1      21.034  -0.830  53.873  1.00  0.00     0.074 A 
HETATM    6  C9  UNL     1      19.688  -0.834  53.565  1.00  0.00     0.070 A 
HETATM    7  C10 UNL     1      19.216  -0.255  52.407  1.00  0.00     0.076 A 
HETATM    8  C12 UNL     1      20.083   0.358  51.503  1.00  0.00    -0.028 A 
HETATM    9  C13 UNL     1      19.605   0.992  50.244  1.00  0.00     0.051 C 
HETATM   10  C14 UNL     1      21.432   0.367  51.802  1.00  0.00     0.027 A 
HETATM   11  C15 UNL     1      21.894  -0.215  52.965  1.00  0.00     0.039 A 
ENDROOT
BRANCH   1  12
HETATM   12  N1  UNL     1      24.194   0.361  52.463  1.00  0.00    -0.340 N 
HETATM   13  H6  UNL     1      24.161   0.728  51.498  1.00  0.00     0.167 HD
BRANCH  12  14
HETATM   14  C5  UNL     1      25.529   0.552  52.913  1.00  0.00     0.033 C 
HETATM   15  C4  UNL     1      26.392  -0.443  52.639  1.00  0.00     0.032 C 
HETATM   16  C3  UNL     1      27.806  -0.493  52.989  1.00  0.00     0.037 C 
HETATM   17  C2  UNL     1      28.615   0.504  53.301  1.00  0.00     0.078 C 
HETATM   18  C18 UNL     1      28.404   1.949  53.405  1.00  0.00     0.197 C 
HETATM   19  C17 UNL     1      27.033   2.325  53.792  1.00  0.00     0.013 C 
HETATM   20  C16 UNL     1      25.826   1.805  53.625  1.00  0.00     0.028 C 
BRANCH  17  21
HETATM   21  O1  UNL     1      29.872  -0.040  53.557  1.00  0.00    -0.357 OA
HETATM   22  C1  UNL     1      29.956  -1.452  53.635  1.00  0.00     0.209 C 
ENDBRANCH  17  21
BRANCH  18  23
HETATM   23  O3  UNL     1      29.274   2.530  54.336  1.00  0.00    -0.385 OA
HETATM   24  H19 UNL     1      29.827   1.827  54.785  1.00  0.00     0.210 HD
ENDBRANCH  18  23
ENDBRANCH  12  14
ENDBRANCH   1  12
BRANCH   7  25
HETATM   25  O2  UNL     1      17.885  -0.227  52.045  1.00  0.00    -0.355 OA
HETATM   26  C11 UNL     1      16.920  -0.935  52.804  1.00  0.00     0.210 C 
ENDBRANCH   7  25
TORSDOF 5
ENDMDL
MODEL 2
REMARK VINA RESULT:      -8.2      4.263      6.668
REMARK  5 active torsions:
REMARK  status: ('A' for Active; 'I' for Inactive)
REMARK    1  A    between atoms: O1_2  and  C2_3 
REMARK    2  A    between atoms: C5_6  and  N1_7 
REMARK    3  A    between atoms: N1_7  and  C6_8 
REMARK    4  A    between atoms: C10_14  and  O2_15 
REMARK    5  A    between atoms: C18_23  and  O3_24 
ROOT
HETATM    1  C6  UNL     1      23.867   3.328  51.142  1.00  0.00     0.142 A 
HETATM    2  N2  UNL     1      22.781   3.437  51.909  1.00  0.00    -0.224 NA
HETATM    3  C7  UNL     1      22.343   4.687  52.239  1.00  0.00     0.236 A 
HETATM    4  N3  UNL     1      23.025   5.761  51.775  1.00  0.00    -0.241 NA
HETATM    5  C8  UNL     1      24.120   5.648  51.001  1.00  0.00     0.074 A 
HETATM    6  C9  UNL     1      24.815   6.744  50.528  1.00  0.00     0.070 A 
HETATM    7  C10 UNL     1      25.934   6.596  49.737  1.00  0.00     0.076 A 
HETATM    8  C12 UNL     1      26.404   5.332  49.384  1.00  0.00    -0.028 A 
HETATM    9  C13 UNL     1      27.609   5.137  48.531  1.00  0.00     0.051 C 
HETATM   10  C14 UNL     1      25.715   4.229  49.852  1.00  0.00     0.027 A 
HETATM   11  C15 UNL     1      24.597   4.388  50.644  1.00  0.00     0.039 A 
ENDROOT
BRANCH   1  12
HETATM   12  N1  UNL     1      24.265   1.996  50.839  1.00  0.00    -0.340 N 
HETATM   13  H6  UNL     1      24.214   1.413  49.988  1.00  0.00     0.167 HD
BRANCH  12  14
HETATM   14  C5  UNL     1      24.875   1.187  51.837  1.00  0.00     0.033 C 
HETATM   15  C4  UNL     1      26.217   1.240  51.900  1.00  0.00     0.032 C 
HETATM   16  C3  UNL     1      27.078   0.512  52.825  1.00  0.00     0.037 C 
HETATM   17  C2  UNL     1      26.763  -0.042  53.982  1.00  0.00     0.078 C 
HETATM   18  C18 UNL     1      25.503  -0.127  54.725  1.00  0.00     0.197 C 
HETATM   19  C17 UNL     1      24.305  -0.129  53.867  1.00  0.00     0.013 C 
HETATM   20  C16 UNL     1      23.984   0.382  52.689  1.00  0.00     0.028 C 
BRANCH  17  21
HETATM   21  O1  UNL     1      27.919  -0.621  54.499  1.00  0.00    -0.357 OA
HETATM   22  C1  UNL     1      29.078  -0.578  53.684  1.00  0.00     0.209 C 
ENDBRANCH  17  21
BRANCH  18  23
HETATM   23  O3  UNL     1      25.451  -1.280  55.517  1.00  0.00    -0.385 OA
HETATM   24  H19 UNL     1      24.835  -1.957  55.112  1.00  0.00     0.210 HD
ENDBRANCH  18  23
ENDBRANCH  12  14
ENDBRANCH   1  12
BRANCH   7  25
HETATM   25  O2  UNL     1      26.670   7.650  49.235  1.00  0.00    -0.355 OA
HETATM   26  C11 UNL     1      26.983   8.761  50.057  1.00  0.00     0.210 C 
ENDBRANCH   7  25
TORSDOF 5
ENDMDL
MODEL 3
REMARK VINA RESULT:      -8.0      3.522      4.374
REMARK  5 active torsions:
REMARK  status: ('A' for Active; 'I' for Inactive)
REMARK    1  A    between atoms: O1_2  and  C2_3 
REMARK    2  A    between atoms: C5_6  and  N1_7 
REMARK    3  A    between atoms: N1_7  and  C6_8 
REMARK    4  A    between atoms: C10_14  and  O2_15 
REMARK    5  A    between atoms: C18_23  and  O3_24 
ROOT
HETATM    1  C6  UNL     1      22.915   0.806  51.912  1.00  0.00     0.142 A 
HETATM    2  N2  UNL     1      24.075   0.561  52.525  1.00  0.00    -0.224 NA
HETATM    3  C7  UNL     1      24.065  -0.230  53.638  1.00  0.00     0.236 A 
HETATM    4  N3  UNL     1      22.884  -0.732  54.071  1.00  0.00    -0.241 NA
HETATM    5  C8  UNL     1      21.717  -0.484  53.450  1.00  0.00     0.074 A 
HETATM    6  C9  UNL     1      20.513  -0.997  53.892  1.00  0.00     0.070 A 
HETATM    7  C10 UNL     1      19.333  -0.724  53.233  1.00  0.00     0.076 A 
HETATM    8  C12 UNL     1      19.313   0.080  52.095  1.00  0.00    -0.028 A 
HETATM    9  C13 UNL     1      18.056   0.393  51.361  1.00  0.00     0.051 C 
HETATM   10  C14 UNL     1      20.512   0.598  51.645  1.00  0.00     0.027 A 
HETATM   11  C15 UNL     1      21.688   0.319  52.311  1.00  0.00     0.039 A 
ENDROOT
BRANCH   1  12
HETATM   12  N1  UNL     1      23.002   1.638  50.760  1.00  0.00    -0.340 N 
HETATM   13  H6  UNL     1      22.691   1.533  49.781  1.00  0.00     0.167 HD
BRANCH  12  14
HETATM   14  C5  UNL     1      23.629   2.912  50.843  1.00  0.00     0.033 C 
HETATM   15  C4  UNL     1      24.470   3.221  49.840  1.00  0.00     0.032 C 
HETATM   16  C3  UNL     1      25.233   4.454  49.689  1.00  0.00     0.037 C 
HETATM   17  C2  UNL     1      25.019   5.630  50.250  1.00  0.00     0.078 C 
HETATM   18  C18 UNL     1      23.993   6.107  51.181  1.00  0.00     0.197 C 
HETATM   19  C17 UNL     1      23.472   5.062  52.079  1.00  0.00     0.013 C 
HETATM   20  C16 UNL     1      23.296   3.752  52.005  1.00  0.00     0.028 C 
BRANCH  17  21
HETATM   21  O1  UNL     1      26.012   6.497  49.801  1.00  0.00    -0.357 OA
HETATM   22  C1  UNL     1      26.806   6.055  48.714  1.00  0.00     0.209 C 
ENDBRANCH  17  21
BRANCH  18  23
HETATM   23  O3  UNL     1      24.474   7.146  51.987  1.00  0.00    -0.385 OA
HETATM   24  H19 UNL     1      25.421   7.366  51.749  1.00  0.00     0.210 HD
ENDBRANCH  18  23
ENDBRANCH  12  14
ENDBRANCH   1  12
BRANCH   7  25
HETATM   25  O2  UNL     1      18.101  -1.206  53.626  1.00  0.00    -0.355 OA
HETATM   26  C11 UNL     1      17.860  -2.602  53.675  1.00  0.00     0.210 C 
ENDBRANCH   7  25
TORSDOF 5
ENDMDL
MODEL 4
REMARK VINA RESULT:      -8.0      4.508      7.165
REMARK  5 active torsions:
REMARK  status: ('A' for Active; 'I' for Inactive)
REMARK    1  A    between atoms: O1_2  and  C2_3 
REMARK    2  A    between atoms: C5_6  and  N1_7 
REMARK    3  A    between atoms: N1_7  and  C6_8 
REMARK    4  A    between atoms: C10_14  and  O2_15 
REMARK    5  A    between atoms: C18_23  and  O3_24 
ROOT
HETATM    1  C6  UNL     1      24.046   3.715  50.947  1.00  0.00     0.142 A 
HETATM    2  N2  UNL     1      22.913   3.944  51.613  1.00  0.00    -0.224 NA
HETATM    3  C7  UNL     1      22.500   5.236  51.764  1.00  0.00     0.236 A 
HETATM    4  N3  UNL     1      23.253   6.229  51.233  1.00  0.00    -0.241 NA
HETATM    5  C8  UNL     1      24.395   5.995  50.562  1.00  0.00     0.074 A 
HETATM    6  C9  UNL     1      25.163   7.007  50.021  1.00  0.00     0.070 A 
HETATM    7  C10 UNL     1      26.329   6.735  49.338  1.00  0.00     0.076 A 
HETATM    8  C12 UNL     1      26.776   5.426  49.168  1.00  0.00    -0.028 A 
HETATM    9  C13 UNL     1      28.030   5.099  48.436  1.00  0.00     0.051 C 
HETATM   10  C14 UNL     1      26.014   4.406  49.706  1.00  0.00     0.027 A 
HETATM   11  C15 UNL     1      24.849   4.688  50.389  1.00  0.00     0.039 A 
ENDROOT
BRANCH   1  12
HETATM   12  N1  UNL     1      24.415   2.346  50.830  1.00  0.00    -0.340 N 
HETATM   13  H6  UNL     1      24.451   1.683  50.038  1.00  0.00     0.167 HD
BRANCH  12  14
HETATM   14  C5  UNL     1      24.843   1.619  51.974  1.00  0.00     0.033 C 
HETATM   15  C4  UNL     1      23.955   0.747  52.485  1.00  0.00     0.032 C 
HETATM   16  C3  UNL     1      24.146  -0.114  53.647  1.00  0.00     0.037 C 
HETATM   17  C2  UNL     1      25.276  -0.498  54.212  1.00  0.00     0.078 C 
HETATM   18  C18 UNL     1      26.679  -0.219  53.900  1.00  0.00     0.197 C 
HETATM   19  C17 UNL     1      26.900   1.093  53.266  1.00  0.00     0.013 C 
HETATM   20  C16 UNL     1      26.200   1.891  52.477  1.00  0.00     0.028 C 
BRANCH  17  21
HETATM   21  O1  UNL     1      24.949  -1.316  55.291  1.00  0.00    -0.357 OA
HETATM   22  C1  UNL     1      23.579  -1.391  55.647  1.00  0.00     0.209 C 
ENDBRANCH  17  21
BRANCH  18  23
HETATM   23  O3  UNL     1      27.480  -0.268  55.047  1.00  0.00    -0.385 OA
HETATM   24  H19 UNL     1      27.463  -1.184  55.449  1.00  0.00     0.210 HD
ENDBRANCH  18  23
ENDBRANCH  12  14
ENDBRANCH   1  12
BRANCH   7  25
HETATM   25  O2  UNL     1      27.138   7.702  48.776  1.00  0.00    -0.355 OA
HETATM   26  C11 UNL     1      27.506   8.850  49.521  1.00  0.00     0.210 C 
ENDBRANCH   7  25
TORSDOF 5
ENDMDL
MODEL 5
REMARK VINA RESULT:      -8.0      2.030      8.263
REMARK  5 active torsions:
REMARK  status: ('A' for Active; 'I' for Inactive)
REMARK    1  A    between atoms: O1_2  and  C2_3 
REMARK    2  A    between atoms: C5_6  and  N1_7 
REMARK    3  A    between atoms: N1_7  and  C6_8 
REMARK    4  A    between atoms: C10_14  and  O2_15 
REMARK    5  A    between atoms: C18_23  and  O3_24 
ROOT
HETATM    1  C6  UNL     1      22.782   1.937  51.848  1.00  0.00     0.142 A 
HETATM    2  N2  UNL     1      22.225   3.146  51.754  1.00  0.00    -0.224 NA
HETATM    3  C7  UNL     1      22.860   4.199  52.348  1.00  0.00     0.236 A 
HETATM    4  N3  UNL     1      24.023   3.975  53.003  1.00  0.00    -0.241 NA
HETATM    5  C8  UNL     1      24.583   2.755  53.095  1.00  0.00     0.074 A 
HETATM    6  C9  UNL     1      25.770   2.527  53.763  1.00  0.00     0.070 A 
HETATM    7  C10 UNL     1      26.318   1.264  53.840  1.00  0.00     0.076 A 
HETATM    8  C12 UNL     1      25.692   0.170  53.244  1.00  0.00    -0.028 A 
HETATM    9  C13 UNL     1      26.258  -1.206  53.308  1.00  0.00     0.051 C 
HETATM   10  C14 UNL     1      24.504   0.388  52.573  1.00  0.00     0.027 A 
HETATM   11  C15 UNL     1      23.963   1.656  52.502  1.00  0.00     0.039 A 
ENDROOT
BRANCH   1  12
HETATM   12  N1  UNL     1      22.065   0.888  51.207  1.00  0.00    -0.340 N 
HETATM   13  H6  UNL     1      22.274   0.266  50.408  1.00  0.00     0.167 HD
BRANCH  12  14
HETATM   14  C5  UNL     1      20.771   0.519  51.667  1.00  0.00     0.033 C 
HETATM   15  C4  UNL     1      19.776   0.615  50.767  1.00  0.00     0.032 C 
HETATM   16  C3  UNL     1      18.369   0.300  50.985  1.00  0.00     0.037 C 
HETATM   17  C2  UNL     1      17.828  -0.454  51.925  1.00  0.00     0.078 C 
HETATM   18  C18 UNL     1      18.408  -1.213  53.035  1.00  0.00     0.197 C 
HETATM   19  C17 UNL     1      19.656  -0.636  53.564  1.00  0.00     0.013 C 
HETATM   20  C16 UNL     1      20.655   0.075  53.066  1.00  0.00     0.028 C 
BRANCH  17  21
HETATM   21  O1  UNL     1      16.450  -0.455  51.721  1.00  0.00    -0.357 OA
HETATM   22  C1  UNL     1      15.789   0.796  51.800  1.00  0.00     0.209 C 
ENDBRANCH  17  21
BRANCH  18  23
HETATM   23  O3  UNL     1      17.512  -1.321  54.106  1.00  0.00    -0.385 OA
HETATM   24  H19 UNL     1      16.589  -1.066  53.819  1.00  0.00     0.210 HD
ENDBRANCH  18  23
ENDBRANCH  12  14
ENDBRANCH   1  12
BRANCH   7  25
HETATM   25  O2  UNL     1      27.499   0.973  54.492  1.00  0.00    -0.355 OA
HETATM   26  C11 UNL     1      28.732   1.458  53.990  1.00  0.00     0.210 C 
ENDBRANCH   7  25
TORSDOF 5
ENDMDL
MODEL 6
REMARK VINA RESULT:      -7.6      4.889      6.169
REMARK  5 active torsions:
REMARK  status: ('A' for Active; 'I' for Inactive)
REMARK    1  A    between atoms: O1_2  and  C2_3 
REMARK    2  A    between atoms: C5_6  and  N1_7 
REMARK    3  A    between atoms: N1_7  and  C6_8 
REMARK    4  A    between atoms: C10_14  and  O2_15 
REMARK    5  A    between atoms: C18_23  and  O3_24 
ROOT
HETATM    1  C6  UNL     1      26.177   2.489  50.993  1.00  0.00     0.142 A 
HETATM    2  N2  UNL     1      27.348   2.590  51.626  1.00  0.00    -0.224 NA
HETATM    3  C7  UNL     1      27.438   2.111  52.901  1.00  0.00     0.236 A 
HETATM    4  N3  UNL     1      26.343   1.554  53.468  1.00  0.00    -0.241 NA
HETATM    5  C8  UNL     1      25.163   1.453  52.828  1.00  0.00     0.074 A 
HETATM    6  C9  UNL     1      24.046   0.884  53.407  1.00  0.00     0.070 A 
HETATM    7  C10 UNL     1      22.852   0.796  52.725  1.00  0.00     0.076 A 
HETATM    8  C12 UNL     1      22.729   1.277  51.422  1.00  0.00    -0.028 A 
HETATM    9  C13 UNL     1      21.454   1.196  50.658  1.00  0.00     0.051 C 
HETATM   10  C14 UNL     1      23.842   1.847  50.833  1.00  0.00     0.027 A 
HETATM   11  C15 UNL     1      25.033   1.932  51.526  1.00  0.00     0.039 A 
ENDROOT
BRANCH   1  12
HETATM   12  N1  UNL     1      26.156   3.010  49.669  1.00  0.00    -0.340 N 
HETATM   13  H6  UNL     1      25.971   2.593  48.742  1.00  0.00     0.167 HD
BRANCH  12  14
HETATM   14  C5  UNL     1      26.434   4.385  49.436  1.00  0.00     0.033 C 
HETATM   15  C4  UNL     1      27.541   4.650  48.719  1.00  0.00     0.032 C 
HETATM   16  C3  UNL     1      28.045   5.966  48.345  1.00  0.00     0.037 C 
HETATM   17  C2  UNL     1      27.394   7.114  48.294  1.00  0.00     0.078 C 
HETATM   18  C18 UNL     1      26.003   7.473  48.578  1.00  0.00     0.197 C 
HETATM   19  C17 UNL     1      25.365   6.622  49.598  1.00  0.00     0.013 C 
HETATM   20  C16 UNL     1      25.491   5.367  49.996  1.00  0.00     0.028 C 
BRANCH  17  21
HETATM   21  O1  UNL     1      28.298   8.091  47.882  1.00  0.00    -0.357 OA
HETATM   22  C1  UNL     1      29.416   8.326  48.721  1.00  0.00     0.209 C 
ENDBRANCH  17  21
BRANCH  18  23
HETATM   23  O3  UNL     1      25.894   8.799  49.013  1.00  0.00    -0.385 OA
HETATM   24  H19 UNL     1      25.125   8.899  49.646  1.00  0.00     0.210 HD
ENDBRANCH  18  23
ENDBRANCH  12  14
ENDBRANCH   1  12
BRANCH   7  25
HETATM   25  O2  UNL     1      21.702   0.240  53.248  1.00  0.00    -0.355 OA
HETATM   26  C11 UNL     1      21.735  -0.430  54.497  1.00  0.00     0.210 C 
ENDBRANCH   7  25
TORSDOF 5
ENDMDL
MODEL 7
REMARK VINA RESULT:      -7.5      4.240      7.714
REMARK  5 active torsions:
REMARK  status: ('A' for Active; 'I' for Inactive)
REMARK    1  A    between atoms: O1_2  and  C2_3 
REMARK    2  A    between atoms: C5_6  and  N1_7 
REMARK    3  A    between atoms: N1_7  and  C6_8 
REMARK    4  A    between atoms: C10_14  and  O2_15 
REMARK    5  A    between atoms: C18_23  and  O3_24 
ROOT
HETATM    1  C6  UNL     1      24.238   2.216  53.064  1.00  0.00     0.142 A 
HETATM    2  N2  UNL     1      23.031   1.679  52.880  1.00  0.00    -0.224 NA
HETATM    3  C7  UNL     1      22.899   0.325  53.001  1.00  0.00     0.236 A 
HETATM    4  N3  UNL     1      23.993  -0.413  53.303  1.00  0.00    -0.241 NA
HETATM    5  C8  UNL     1      25.209   0.132  53.488  1.00  0.00     0.074 A 
HETATM    6  C9  UNL     1      26.325  -0.621  53.796  1.00  0.00     0.070 A 
HETATM    7  C10 UNL     1      27.558  -0.033  53.981  1.00  0.00     0.076 A 
HETATM    8  C12 UNL     1      27.723   1.346  53.864  1.00  0.00    -0.028 A 
HETATM    9  C13 UNL     1      29.040   2.012  54.057  1.00  0.00     0.051 C 
HETATM   10  C14 UNL     1      26.612   2.109  53.556  1.00  0.00     0.027 A 
HETATM   11  C15 UNL     1      25.383   1.510  53.373  1.00  0.00     0.039 A 
ENDROOT
BRANCH   1  12
HETATM   12  N1  UNL     1      24.300   3.630  52.922  1.00  0.00    -0.340 N 
HETATM   13  H6  UNL     1      24.691   4.389  53.505  1.00  0.00     0.167 HD
BRANCH  12  14
HETATM   14  C5  UNL     1      23.740   4.260  51.777  1.00  0.00     0.033 C 
HETATM   15  C4  UNL     1      22.753   5.143  52.013  1.00  0.00     0.032 C 
HETATM   16  C3  UNL     1      22.018   5.917  51.020  1.00  0.00     0.037 C 
HETATM   17  C2  UNL     1      22.363   6.206  49.778  1.00  0.00     0.078 C 
HETATM   18  C18 UNL     1      23.546   5.874  48.981  1.00  0.00     0.197 C 
HETATM   19  C17 UNL     1      24.176   4.596  49.353  1.00  0.00     0.013 C 
HETATM   20  C16 UNL     1      24.292   3.886  50.465  1.00  0.00     0.028 C 
BRANCH  17  21
HETATM   21  O1  UNL     1      21.338   6.969  49.224  1.00  0.00    -0.357 OA
HETATM   22  C1  UNL     1      21.388   8.368  49.445  1.00  0.00     0.209 C 
ENDBRANCH  17  21
BRANCH  18  23
HETATM   23  O3  UNL     1      23.244   5.809  47.616  1.00  0.00    -0.385 OA
HETATM   24  H19 UNL     1      23.016   4.871  47.351  1.00  0.00     0.210 HD
ENDBRANCH  18  23
ENDBRANCH  12  14
ENDBRANCH   1  12
BRANCH   7  25
HETATM   25  O2  UNL     1      28.708  -0.731  54.290  1.00  0.00    -0.355 OA
HETATM   26  C11 UNL     1      29.297  -1.598  53.336  1.00  0.00     0.210 C 
ENDBRANCH   7  25
TORSDOF 5
ENDMDL
MODEL 8
REMARK VINA RESULT:      -7.5      3.539      6.037
REMARK  5 active torsions:
REMARK  status: ('A' for Active; 'I' for Inactive)
REMARK    1  A    between atoms: O1_2  and  C2_3 
REMARK    2  A    between atoms: C5_6  and  N1_7 
REMARK    3  A    between atoms: N1_7  and  C6_8 
REMARK    4  A    between atoms: C10_14  and  O2_15 
REMARK    5  A    between atoms: C18_23  and  O3_24 
ROOT
HETATM    1  C6  UNL     1      22.358   0.694  52.666  1.00  0.00     0.142 A 
HETATM    2  N2  UNL     1      21.265   0.364  53.356  1.00  0.00    -0.224 NA
HETATM    3  C7  UNL     1      21.413  -0.410  54.472  1.00  0.00     0.236 A 
HETATM    4  N3  UNL     1      22.656  -0.807  54.831  1.00  0.00    -0.241 NA
HETATM    5  C8  UNL     1      23.757  -0.473  54.132  1.00  0.00     0.074 A 
HETATM    6  C9  UNL     1      25.025  -0.879  54.499  1.00  0.00     0.070 A 
HETATM    7  C10 UNL     1      26.133  -0.519  53.763  1.00  0.00     0.076 A 
HETATM    8  C12 UNL     1      26.013   0.270  52.620  1.00  0.00    -0.028 A 
HETATM    9  C13 UNL     1      27.190   0.676  51.803  1.00  0.00     0.051 C 
HETATM   10  C14 UNL     1      24.748   0.681  52.245  1.00  0.00     0.027 A 
HETATM   11  C15 UNL     1      23.645   0.315  52.988  1.00  0.00     0.039 A 
ENDROOT
BRANCH   1  12
HETATM   12  N1  UNL     1      22.128   1.500  51.516  1.00  0.00    -0.340 N 
HETATM   13  H6  UNL     1      21.505   1.411  50.697  1.00  0.00     0.167 HD
BRANCH  12  14
HETATM   14  C5  UNL     1      22.848   2.713  51.337  1.00  0.00     0.033 C 
HETATM   15  C4  UNL     1      23.340   2.930  50.104  1.00  0.00     0.032 C 
HETATM   16  C3  UNL     1      24.109   4.088  49.662  1.00  0.00     0.037 C 
HETATM   17  C2  UNL     1      24.183   5.287  50.211  1.00  0.00     0.078 C 
HETATM   18  C18 UNL     1      23.556   5.868  51.400  1.00  0.00     0.197 C 
HETATM   19  C17 UNL     1      23.271   4.888  52.463  1.00  0.00     0.013 C 
HETATM   20  C16 UNL     1      22.977   3.598  52.506  1.00  0.00     0.028 C 
BRANCH  17  21
HETATM   21  O1  UNL     1      25.043   6.054  49.429  1.00  0.00    -0.357 OA
HETATM   22  C1  UNL     1      26.286   5.470  49.081  1.00  0.00     0.209 C 
ENDBRANCH  17  21
BRANCH  18  23
HETATM   23  O3  UNL     1      24.352   6.873  51.962  1.00  0.00    -0.385 OA
HETATM   24  H19 UNL     1      24.558   7.579  51.283  1.00  0.00     0.210 HD
ENDBRANCH  18  23
ENDBRANCH  12  14
ENDBRANCH   1  12
BRANCH   7  25
HETATM   25  O2  UNL     1      27.424  -0.892  54.077  1.00  0.00    -0.355 OA
HETATM   26  C11 UNL     1      28.243  -0.045  54.864  1.00  0.00     0.210 C 
ENDBRANCH   7  25
TORSDOF 5
ENDMDL
MODEL 9
REMARK VINA RESULT:      -7.4      7.369     11.740
REMARK  5 active torsions:
REMARK  status: ('A' for Active; 'I' for Inactive)
REMARK    1  A    between atoms: O1_2  and  C2_3 
REMARK    2  A    between atoms: C5_6  and  N1_7 
REMARK    3  A    between atoms: N1_7  and  C6_8 
REMARK    4  A    between atoms: C10_14  and  O2_15 
REMARK    5  A    between atoms: C18_23  and  O3_24 
ROOT
HETATM    1  C6  UNL     1      29.210   7.396  48.348  1.00  0.00     0.142 A 
HETATM    2  N2  UNL     1      28.978   8.600  48.873  1.00  0.00    -0.224 NA
HETATM    3  C7  UNL     1      30.033   9.294  49.392  1.00  0.00     0.236 A 
HETATM    4  N3  UNL     1      31.266   8.735  49.353  1.00  0.00    -0.241 NA
HETATM    5  C8  UNL     1      31.496   7.520  48.822  1.00  0.00     0.074 A 
HETATM    6  C9  UNL     1      32.753   6.950  48.782  1.00  0.00     0.070 A 
HETATM    7  C10 UNL     1      32.957   5.703  48.231  1.00  0.00     0.076 A 
HETATM    8  C12 UNL     1      31.899   4.971  47.694  1.00  0.00    -0.028 A 
HETATM    9  C13 UNL     1      32.085   3.622  47.092  1.00  0.00     0.051 C 
HETATM   10  C14 UNL     1      30.637   5.533  47.730  1.00  0.00     0.027 A 
HETATM   11  C15 UNL     1      30.443   6.782  48.283  1.00  0.00     0.039 A 
ENDROOT
BRANCH   1  12
HETATM   12  N1  UNL     1      28.064   6.731  47.827  1.00  0.00    -0.340 N 
HETATM   13  H6  UNL     1      27.675   6.622  46.876  1.00  0.00     0.167 HD
BRANCH  12  14
HETATM   14  C5  UNL     1      27.185   6.030  48.698  1.00  0.00     0.033 C 
HETATM   15  C4  UNL     1      26.208   6.762  49.264  1.00  0.00     0.032 C 
HETATM   16  C3  UNL     1      25.185   6.286  50.187  1.00  0.00     0.037 C 
HETATM   17  C2  UNL     1      24.764   5.051  50.386  1.00  0.00     0.078 C 
HETATM   18  C18 UNL     1      25.145   3.770  49.787  1.00  0.00     0.197 C 
HETATM   19  C17 UNL     1      26.548   3.716  49.340  1.00  0.00     0.013 C 
HETATM   20  C16 UNL     1      27.431   4.591  48.887  1.00  0.00     0.028 C 
BRANCH  17  21
HETATM   21  O1  UNL     1      23.775   5.097  51.366  1.00  0.00    -0.357 OA
HETATM   22  C1  UNL     1      22.627   5.878  51.083  1.00  0.00     0.209 C 
ENDBRANCH  17  21
BRANCH  18  23
HETATM   23  O3  UNL     1      24.950   2.708  50.679  1.00  0.00    -0.385 OA
HETATM   24  H19 UNL     1      25.798   2.189  50.797  1.00  0.00     0.210 HD
ENDBRANCH  18  23
ENDBRANCH  12  14
ENDBRANCH   1  12
BRANCH   7  25
HETATM   25  O2  UNL     1      34.187   5.081  48.162  1.00  0.00    -0.355 OA
HETATM   26  C11 UNL     1      35.245   5.488  49.012  1.00  0.00     0.210 C 
ENDBRANCH   7  25
TORSDOF 5
ENDMDL
