MODEL 1
REMARK VINA RESULT:      -6.9      0.000      0.000
REMARK  7 active torsions:
REMARK  status: ('A' for Active; 'I' for Inactive)
REMARK    1  A    between atoms: C2_2  and  C3_3 
REMARK    2  A    between atoms: C4_4  and  C5_5 
REMARK    3  A    between atoms: C5_5  and  N1_6 
REMARK    4  A    between atoms: C11_14  and  N3_15 
REMARK    5  A    between atoms: N3_15  and  C12_16 
REMARK    6  A    between atoms: C12_16  and  C13_17 
REMARK    7  A    between atoms: C13_17  and  N4_18 
ROOT
HETATM    1  N1  UNL     1      24.926   0.168  53.570  1.00  0.00    -0.285 NA
HETATM    2  C6  UNL     1      23.667  -0.164  53.546  1.00  0.00     0.067 A 
HETATM    3  C7  UNL     1      22.994  -1.005  54.541  1.00  0.00     0.051 A 
HETATM    4  C8  UNL     1      21.694  -1.269  54.586  1.00  0.00     0.120 A 
HETATM    5  N2  UNL     1      20.892  -0.660  53.560  1.00  0.00    -0.253 NA
HETATM    6  C9  UNL     1      21.408   0.092  52.660  1.00  0.00     0.116 A 
HETATM    7 BR1  UNL     1      20.125   0.762  51.444  1.00  0.00    -0.028 Br
HETATM    8  C10 UNL     1      22.814   0.422  52.543  1.00  0.00     0.043 A 
HETATM    9  C11 UNL     1      23.343   1.204  51.645  1.00  0.00     0.099 C 
ENDROOT
BRANCH   9  10
HETATM   10  N3  UNL     1      22.826   1.918  50.566  1.00  0.00    -0.396 N 
HETATM   11  H11 UNL     1      21.876   1.468  50.783  1.00  0.00     0.158 HD
BRANCH  10  12
HETATM   12  C12 UNL     1      22.306   2.634  49.483  1.00  0.00     0.149 C 
BRANCH  12  13
HETATM   13  C13 UNL     1      22.305   4.139  49.624  1.00  0.00     0.292 C 
BRANCH  13  14
HETATM   14  N4  UNL     1      23.595   4.657  49.986  1.00  0.00     0.094 N 
HETATM   15  C14 UNL     1      23.573   5.481  51.171  1.00  0.00     0.298 C 
HETATM   16  C15 UNL     1      24.228   6.803  50.898  1.00  0.00     0.198 C 
HETATM   17  O1  UNL     1      25.541   6.684  50.449  1.00  0.00    -0.388 OA
HETATM   18  C16 UNL     1      25.648   5.710  49.430  1.00  0.00     0.198 C 
HETATM   19  C17 UNL     1      24.284   5.300  48.900  1.00  0.00     0.298 C 
ENDBRANCH  13  14
ENDBRANCH  12  13
ENDBRANCH  10  12
ENDBRANCH   9  10
BRANCH   1  20
HETATM   20  C5  UNL     1      25.782  -0.242  54.587  1.00  0.00     0.177 C 
BRANCH  20  21
HETATM   21  C4  UNL     1      27.179   0.170  54.694  1.00  0.00    -0.005 C 
HETATM   22  C3  UNL     1      28.008  -0.194  53.692  1.00  0.00    -0.003 C 
BRANCH  22  23
HETATM   23  C2  UNL     1      29.424   0.236  53.783  1.00  0.00    -0.011 C 
HETATM   24  C1  UNL     1      29.947  -1.013  53.653  1.00  0.00     0.011 C 
ENDBRANCH  22  23
ENDBRANCH  20  21
ENDBRANCH   1  20
TORSDOF 7
ENDMDL
MODEL 2
REMARK VINA RESULT:      -6.8      2.508      6.485
REMARK  7 active torsions:
REMARK  status: ('A' for Active; 'I' for Inactive)
REMARK    1  A    between atoms: C2_2  and  C3_3 
REMARK    2  A    between atoms: C4_4  and  C5_5 
REMARK    3  A    between atoms: C5_5  and  N1_6 
REMARK    4  A    between atoms: C11_14  and  N3_15 
REMARK    5  A    between atoms: N3_15  and  C12_16 
REMARK    6  A    between atoms: C12_16  and  C13_17 
REMARK    7  A    between atoms: C13_17  and  N4_18 
ROOT
HETATM    1  N1  UNL     1      23.608   4.175  50.969  1.00  0.00    -0.285 NA
HETATM    2  C6  UNL     1      22.557   3.642  51.522  1.00  0.00     0.067 A 
HETATM    3  C7  UNL     1      21.192   4.171  51.432  1.00  0.00     0.051 A 
HETATM    4  C8  UNL     1      20.098   3.586  51.905  1.00  0.00     0.120 A 
HETATM    5  N2  UNL     1      20.292   2.319  52.554  1.00  0.00    -0.253 NA
HETATM    6  C9  UNL     1      21.453   1.790  52.666  1.00  0.00     0.116 A 
HETATM    7 BR1  UNL     1      21.415   0.123  53.556  1.00  0.00    -0.028 Br
HETATM    8  C10 UNL     1      22.691   2.367  52.181  1.00  0.00     0.043 A 
HETATM    9  C11 UNL     1      23.873   1.826  52.270  1.00  0.00     0.099 C 
ENDROOT
BRANCH   9  10
HETATM   10  N3  UNL     1      24.348   0.638  52.823  1.00  0.00    -0.396 N 
HETATM   11  H11 UNL     1      23.954   0.972  53.763  1.00  0.00     0.158 HD
BRANCH  10  12
HETATM   12  C12 UNL     1      24.823  -0.555  53.377  1.00  0.00     0.149 C 
BRANCH  12  13
HETATM   13  C13 UNL     1      25.908  -0.413  54.421  1.00  0.00     0.292 C 
BRANCH  13  14
HETATM   14  N4  UNL     1      27.178  -0.067  53.849  1.00  0.00     0.094 N 
HETATM   15  C14 UNL     1      27.715  -1.087  52.980  1.00  0.00     0.298 C 
HETATM   16  C15 UNL     1      29.117  -1.433  53.386  1.00  0.00     0.198 C 
HETATM   17  O1  UNL     1      29.976  -0.336  53.387  1.00  0.00    -0.388 OA
HETATM   18  C16 UNL     1      29.390   0.774  54.040  1.00  0.00     0.198 C 
HETATM   19  C17 UNL     1      28.146   0.374  54.817  1.00  0.00     0.298 C 
ENDBRANCH  13  14
ENDBRANCH  12  13
ENDBRANCH  10  12
ENDBRANCH   9  10
BRANCH   1  20
HETATM   20  C5  UNL     1      23.534   5.329  50.195  1.00  0.00     0.177 C 
BRANCH  20  21
HETATM   21  C4  UNL     1      24.566   5.746  49.250  1.00  0.00    -0.005 C 
HETATM   22  C3  UNL     1      25.849   5.490  49.586  1.00  0.00    -0.003 C 
BRANCH  22  23
HETATM   23  C2  UNL     1      26.903   5.893  48.623  1.00  0.00    -0.011 C 
HETATM   24  C1  UNL     1      27.591   4.720  48.686  1.00  0.00     0.011 C 
ENDBRANCH  22  23
ENDBRANCH  20  21
ENDBRANCH   1  20
TORSDOF 7
ENDMDL
MODEL 3
REMARK VINA RESULT:      -6.7      4.688      8.170
REMARK  7 active torsions:
REMARK  status: ('A' for Active; 'I' for Inactive)
REMARK    1  A    between atoms: C2_2  and  C3_3 
REMARK    2  A    between atoms: C4_4  and  C5_5 
REMARK    3  A    between atoms: C5_5  and  N1_6 
REMARK    4  A    between atoms: C11_14  and  N3_15 
REMARK    5  A    between atoms: N3_15  and  C12_16 
REMARK    6  A    between atoms: C12_16  and  C13_17 
REMARK    7  A    between atoms: C13_17  and  N4_18 
ROOT
HETATM    1  N1  UNL     1      29.564   5.077  48.288  1.00  0.00    -0.285 NA
HETATM    2  C6  UNL     1      28.542   5.877  48.183  1.00  0.00     0.067 A 
HETATM    3  C7  UNL     1      28.548   7.174  47.499  1.00  0.00     0.051 A 
HETATM    4  C8  UNL     1      27.492   7.953  47.298  1.00  0.00     0.120 A 
HETATM    5  N2  UNL     1      26.240   7.458  47.800  1.00  0.00    -0.253 NA
HETATM    6  C9  UNL     1      26.154   6.331  48.404  1.00  0.00     0.116 A 
HETATM    7 BR1  UNL     1      24.391   5.927  48.951  1.00  0.00    -0.028 Br
HETATM    8  C10 UNL     1      27.259   5.430  48.664  1.00  0.00     0.043 A 
HETATM    9  C11 UNL     1      27.177   4.272  49.256  1.00  0.00     0.099 C 
ENDROOT
BRANCH   9  10
HETATM   10  N3  UNL     1      26.126   3.554  49.823  1.00  0.00    -0.396 N 
HETATM   11  H11 UNL     1      25.726   3.448  48.832  1.00  0.00     0.158 HD
BRANCH  10  12
HETATM   12  C12 UNL     1      25.071   2.832  50.391  1.00  0.00     0.149 C 
BRANCH  12  13
HETATM   13  C13 UNL     1      25.215   2.492  51.857  1.00  0.00     0.292 C 
BRANCH  13  14
HETATM   14  N4  UNL     1      25.452   1.093  52.075  1.00  0.00     0.094 N 
HETATM   15  C14 UNL     1      24.589   0.511  53.075  1.00  0.00     0.298 C 
HETATM   16  C15 UNL     1      25.401  -0.212  54.108  1.00  0.00     0.198 C 
HETATM   17  O1  UNL     1      26.213  -1.208  53.571  1.00  0.00    -0.388 OA
HETATM   18  C16 UNL     1      26.915  -0.741  52.436  1.00  0.00     0.198 C 
HETATM   19  C17 UNL     1      26.834   0.772  52.310  1.00  0.00     0.298 C 
ENDBRANCH  13  14
ENDBRANCH  12  13
ENDBRANCH  10  12
ENDBRANCH   9  10
BRANCH   1  20
HETATM   20  C5  UNL     1      30.800   5.375  47.723  1.00  0.00     0.177 C 
BRANCH  20  21
HETATM   21  C4  UNL     1      31.894   4.416  47.601  1.00  0.00    -0.005 C 
HETATM   22  C3  UNL     1      31.721   3.388  46.743  1.00  0.00    -0.003 C 
BRANCH  22  23
HETATM   23  C2  UNL     1      32.835   2.420  46.597  1.00  0.00    -0.011 C 
HETATM   24  C1  UNL     1      33.180   2.422  47.914  1.00  0.00     0.011 C 
ENDBRANCH  22  23
ENDBRANCH  20  21
ENDBRANCH   1  20
TORSDOF 7
ENDMDL
MODEL 4
REMARK VINA RESULT:      -6.3      4.044      5.231
REMARK  7 active torsions:
REMARK  status: ('A' for Active; 'I' for Inactive)
REMARK    1  A    between atoms: C2_2  and  C3_3 
REMARK    2  A    between atoms: C4_4  and  C5_5 
REMARK    3  A    between atoms: C5_5  and  N1_6 
REMARK    4  A    between atoms: C11_14  and  N3_15 
REMARK    5  A    between atoms: N3_15  and  C12_16 
REMARK    6  A    between atoms: C12_16  and  C13_17 
REMARK    7  A    between atoms: C13_17  and  N4_18 
ROOT
HETATM    1  N1  UNL     1      25.348   0.699  53.198  1.00  0.00    -0.285 NA
HETATM    2  C6  UNL     1      24.540  -0.073  53.865  1.00  0.00     0.067 A 
HETATM    3  C7  UNL     1      24.869  -0.762  55.117  1.00  0.00     0.051 A 
HETATM    4  C8  UNL     1      24.027  -1.470  55.861  1.00  0.00     0.120 A 
HETATM    5  N2  UNL     1      22.676  -1.551  55.378  1.00  0.00    -0.253 NA
HETATM    6  C9  UNL     1      22.312  -0.971  54.295  1.00  0.00     0.116 A 
HETATM    7 BR1  UNL     1      20.483  -1.237  53.902  1.00  0.00    -0.028 Br
HETATM    8  C10 UNL     1      23.171  -0.187  53.431  1.00  0.00     0.043 A 
HETATM    9  C11 UNL     1      22.804   0.425  52.340  1.00  0.00     0.099 C 
ENDROOT
BRANCH   9  10
HETATM   10  N3  UNL     1      21.595   0.527  51.654  1.00  0.00    -0.396 N 
HETATM   11  H11 UNL     1      21.453   1.474  52.140  1.00  0.00     0.158 HD
BRANCH  10  12
HETATM   12  C12 UNL     1      20.383   0.630  50.966  1.00  0.00     0.149 C 
BRANCH  12  13
HETATM   13  C13 UNL     1      19.416   1.673  51.479  1.00  0.00     0.292 C 
BRANCH  13  14
HETATM   14  N4  UNL     1      18.100   1.141  51.697  1.00  0.00     0.094 N 
HETATM   15  C14 UNL     1      17.879  -0.132  51.053  1.00  0.00     0.298 C 
HETATM   16  C15 UNL     1      16.634  -0.083  50.216  1.00  0.00     0.198 C 
HETATM   17  O1  UNL     1      15.497   0.264  50.943  1.00  0.00    -0.388 OA
HETATM   18  C16 UNL     1      15.740   1.384  51.771  1.00  0.00     0.198 C 
HETATM   19  C17 UNL     1      17.045   2.075  51.411  1.00  0.00     0.298 C 
ENDBRANCH  13  14
ENDBRANCH  12  13
ENDBRANCH  10  12
ENDBRANCH   9  10
BRANCH   1  20
HETATM   20  C5  UNL     1      26.641   0.972  53.632  1.00  0.00     0.177 C 
BRANCH  20  21
HETATM   21  C4  UNL     1      27.838   0.345  53.078  1.00  0.00    -0.005 C 
HETATM   22  C3  UNL     1      28.584  -0.408  53.915  1.00  0.00    -0.003 C 
BRANCH  22  23
HETATM   23  C2  UNL     1      29.790  -1.065  53.356  1.00  0.00    -0.011 C 
HETATM   24  C1  UNL     1      29.242  -2.309  53.290  1.00  0.00     0.011 C 
ENDBRANCH  22  23
ENDBRANCH  20  21
ENDBRANCH   1  20
TORSDOF 7
ENDMDL
MODEL 5
REMARK VINA RESULT:      -6.3      4.766      8.151
REMARK  7 active torsions:
REMARK  status: ('A' for Active; 'I' for Inactive)
REMARK    1  A    between atoms: C2_2  and  C3_3 
REMARK    2  A    between atoms: C4_4  and  C5_5 
REMARK    3  A    between atoms: C5_5  and  N1_6 
REMARK    4  A    between atoms: C11_14  and  N3_15 
REMARK    5  A    between atoms: N3_15  and  C12_16 
REMARK    6  A    between atoms: C12_16  and  C13_17 
REMARK    7  A    between atoms: C13_17  and  N4_18 
ROOT
HETATM    1  N1  UNL     1      29.800   5.152  48.151  1.00  0.00    -0.285 NA
HETATM    2  C6  UNL     1      28.855   6.042  48.041  1.00  0.00     0.067 A 
HETATM    3  C7  UNL     1      28.997   7.354  47.402  1.00  0.00     0.051 A 
HETATM    4  C8  UNL     1      28.020   8.229  47.194  1.00  0.00     0.120 A 
HETATM    5  N2  UNL     1      26.714   7.830  47.640  1.00  0.00    -0.253 NA
HETATM    6  C9  UNL     1      26.510   6.697  48.201  1.00  0.00     0.116 A 
HETATM    7 BR1  UNL     1      24.701   6.432  48.679  1.00  0.00    -0.028 Br
HETATM    8  C10 UNL     1      27.523   5.695  48.466  1.00  0.00     0.043 A 
HETATM    9  C11 UNL     1      27.320   4.531  49.016  1.00  0.00     0.099 C 
ENDROOT
BRANCH   9  10
HETATM   10  N3  UNL     1      26.192   3.890  49.524  1.00  0.00    -0.396 N 
HETATM   11  H11 UNL     1      26.617   4.016  50.501  1.00  0.00     0.158 HD
BRANCH  10  12
HETATM   12  C12 UNL     1      25.060   3.247  50.034  1.00  0.00     0.149 C 
BRANCH  12  13
HETATM   13  C13 UNL     1      25.276   2.409  51.273  1.00  0.00     0.292 C 
BRANCH  13  14
HETATM   14  N4  UNL     1      24.139   1.590  51.588  1.00  0.00     0.094 N 
HETATM   15  C14 UNL     1      22.929   2.004  50.918  1.00  0.00     0.298 C 
HETATM   16  C15 UNL     1      21.818   2.181  51.912  1.00  0.00     0.198 C 
HETATM   17  O1  UNL     1      21.558   1.032  52.656  1.00  0.00    -0.388 OA
HETATM   18  C16 UNL     1      22.754   0.458  53.148  1.00  0.00     0.198 C 
HETATM   19  C17 UNL     1      23.933   1.405  52.998  1.00  0.00     0.298 C 
ENDBRANCH  13  14
ENDBRANCH  12  13
ENDBRANCH  10  12
ENDBRANCH   9  10
BRANCH   1  20
HETATM   20  C5  UNL     1      31.076   5.359  47.636  1.00  0.00     0.177 C 
BRANCH  20  21
HETATM   21  C4  UNL     1      32.111   4.330  47.585  1.00  0.00    -0.005 C 
HETATM   22  C3  UNL     1      31.823   3.198  46.908  1.00  0.00    -0.003 C 
BRANCH  22  23
HETATM   23  C2  UNL     1      32.876   2.156  46.834  1.00  0.00    -0.011 C 
HETATM   24  C1  UNL     1      32.020   1.122  46.610  1.00  0.00     0.011 C 
ENDBRANCH  22  23
ENDBRANCH  20  21
ENDBRANCH   1  20
TORSDOF 7
ENDMDL
MODEL 6
REMARK VINA RESULT:      -6.2      6.212      8.641
REMARK  7 active torsions:
REMARK  status: ('A' for Active; 'I' for Inactive)
REMARK    1  A    between atoms: C2_2  and  C3_3 
REMARK    2  A    between atoms: C4_4  and  C5_5 
REMARK    3  A    between atoms: C5_5  and  N1_6 
REMARK    4  A    between atoms: C11_14  and  N3_15 
REMARK    5  A    between atoms: N3_15  and  C12_16 
REMARK    6  A    between atoms: C12_16  and  C13_17 
REMARK    7  A    between atoms: C13_17  and  N4_18 
ROOT
HETATM    1  N1  UNL     1      26.805   3.621  49.781  1.00  0.00    -0.285 NA
HETATM    2  C6  UNL     1      26.427   4.723  49.199  1.00  0.00     0.067 A 
HETATM    3  C7  UNL     1      25.072   5.280  49.240  1.00  0.00     0.051 A 
HETATM    4  C8  UNL     1      24.695   6.451  48.739  1.00  0.00     0.120 A 
HETATM    5  N2  UNL     1      25.728   7.225  48.107  1.00  0.00    -0.253 NA
HETATM    6  C9  UNL     1      26.937   6.807  48.037  1.00  0.00     0.116 A 
HETATM    7 BR1  UNL     1      28.083   8.028  47.161  1.00  0.00    -0.028 Br
HETATM    8  C10 UNL     1      27.421   5.544  48.556  1.00  0.00     0.043 A 
HETATM    9  C11 UNL     1      28.653   5.121  48.509  1.00  0.00     0.099 C 
ENDROOT
BRANCH   9  10
HETATM   10  N3  UNL     1      29.831   5.647  47.983  1.00  0.00    -0.396 N 
HETATM   11  H11 UNL     1      29.965   4.713  47.471  1.00  0.00     0.158 HD
BRANCH  10  12
HETATM   12  C12 UNL     1      31.014   6.174  47.454  1.00  0.00     0.149 C 
BRANCH  12  13
HETATM   13  C13 UNL     1      32.267   5.365  47.698  1.00  0.00     0.292 C 
BRANCH  13  14
HETATM   14  N4  UNL     1      33.461   6.152  47.573  1.00  0.00     0.094 N 
HETATM   15  C14 UNL     1      34.671   5.410  47.835  1.00  0.00     0.298 C 
HETATM   16  C15 UNL     1      35.507   6.122  48.858  1.00  0.00     0.198 C 
HETATM   17  O1  UNL     1      35.841   7.423  48.487  1.00  0.00    -0.388 OA
HETATM   18  C16 UNL     1      34.713   8.123  48.003  1.00  0.00     0.198 C 
HETATM   19  C17 UNL     1      33.420   7.385  48.311  1.00  0.00     0.298 C 
ENDBRANCH  13  14
ENDBRANCH  12  13
ENDBRANCH  10  12
ENDBRANCH   9  10
BRANCH   1  20
HETATM   20  C5  UNL     1      25.934   2.847  50.542  1.00  0.00     0.177 C 
BRANCH  20  21
HETATM   21  C4  UNL     1      26.325   2.126  51.750  1.00  0.00    -0.005 C 
HETATM   22  C3  UNL     1      26.555   0.801  51.630  1.00  0.00    -0.003 C 
BRANCH  22  23
HETATM   23  C2  UNL     1      26.972   0.064  52.847  1.00  0.00    -0.011 C 
HETATM   24  C1  UNL     1      25.711  -0.266  53.237  1.00  0.00     0.011 C 
ENDBRANCH  22  23
ENDBRANCH  20  21
ENDBRANCH   1  20
TORSDOF 7
ENDMDL
MODEL 7
REMARK VINA RESULT:      -6.2      2.264      2.793
REMARK  7 active torsions:
REMARK  status: ('A' for Active; 'I' for Inactive)
REMARK    1  A    between atoms: C2_2  and  C3_3 
REMARK    2  A    between atoms: C4_4  and  C5_5 
REMARK    3  A    between atoms: C5_5  and  N1_6 
REMARK    4  A    between atoms: C11_14  and  N3_15 
REMARK    5  A    between atoms: N3_15  and  C12_16 
REMARK    6  A    between atoms: C12_16  and  C13_17 
REMARK    7  A    between atoms: C13_17  and  N4_18 
ROOT
HETATM    1  N1  UNL     1      25.700   1.085  53.382  1.00  0.00    -0.285 NA
HETATM    2  C6  UNL     1      24.530   0.600  53.081  1.00  0.00     0.067 A 
HETATM    3  C7  UNL     1      23.803  -0.406  53.862  1.00  0.00     0.051 A 
HETATM    4  C8  UNL     1      22.569  -0.835  53.624  1.00  0.00     0.120 A 
HETATM    5  N2  UNL     1      21.904  -0.244  52.496  1.00  0.00    -0.253 NA
HETATM    6  C9  UNL     1      22.472   0.645  51.769  1.00  0.00     0.116 A 
HETATM    7 BR1  UNL     1      21.369   1.253  50.360  1.00  0.00    -0.028 Br
HETATM    8  C10 UNL     1      23.813   1.159  51.963  1.00  0.00     0.043 A 
HETATM    9  C11 UNL     1      24.390   2.079  51.242  1.00  0.00     0.099 C 
ENDROOT
BRANCH   9  10
HETATM   10  N3  UNL     1      23.996   2.815  50.126  1.00  0.00    -0.396 N 
HETATM   11  H11 UNL     1      23.909   1.883  49.601  1.00  0.00     0.158 HD
BRANCH  10  12
HETATM   12  C12 UNL     1      23.601   3.553  49.006  1.00  0.00     0.149 C 
BRANCH  12  13
HETATM   13  C13 UNL     1      22.477   4.540  49.226  1.00  0.00     0.292 C 
BRANCH  13  14
HETATM   14  N4  UNL     1      21.826   4.913  48.002  1.00  0.00     0.094 N 
HETATM   15  C14 UNL     1      21.345   3.786  47.239  1.00  0.00     0.298 C 
HETATM   16  C15 UNL     1      21.847   3.860  45.827  1.00  0.00     0.198 C 
HETATM   17  O1  UNL     1      21.487   5.039  45.176  1.00  0.00    -0.388 OA
HETATM   18  C16 UNL     1      21.733   6.169  45.990  1.00  0.00     0.198 C 
HETATM   19  C17 UNL     1      22.595   5.818  47.191  1.00  0.00     0.298 C 
ENDBRANCH  13  14
ENDBRANCH  12  13
ENDBRANCH  10  12
ENDBRANCH   9  10
BRANCH   1  20
HETATM   20  C5  UNL     1      26.391   0.698  54.526  1.00  0.00     0.177 C 
BRANCH  20  21
HETATM   21  C4  UNL     1      27.704   0.058  54.509  1.00  0.00    -0.005 C 
HETATM   22  C3  UNL     1      27.992  -0.731  53.452  1.00  0.00    -0.003 C 
BRANCH  22  23
HETATM   23  C2  UNL     1      29.331  -1.369  53.417  1.00  0.00    -0.011 C 
HETATM   24  C1  UNL     1      30.030  -0.208  53.543  1.00  0.00     0.011 C 
ENDBRANCH  22  23
ENDBRANCH  20  21
ENDBRANCH   1  20
TORSDOF 7
ENDMDL
MODEL 8
REMARK VINA RESULT:      -6.2      2.015      2.232
REMARK  7 active torsions:
REMARK  status: ('A' for Active; 'I' for Inactive)
REMARK    1  A    between atoms: C2_2  and  C3_3 
REMARK    2  A    between atoms: C4_4  and  C5_5 
REMARK    3  A    between atoms: C5_5  and  N1_6 
REMARK    4  A    between atoms: C11_14  and  N3_15 
REMARK    5  A    between atoms: N3_15  and  C12_16 
REMARK    6  A    between atoms: C12_16  and  C13_17 
REMARK    7  A    between atoms: C13_17  and  N4_18 
ROOT
HETATM    1  N1  UNL     1      25.091   0.595  53.253  1.00  0.00    -0.285 NA
HETATM    2  C6  UNL     1      23.806   0.385  53.275  1.00  0.00     0.067 A 
HETATM    3  C7  UNL     1      23.149  -0.788  53.858  1.00  0.00     0.051 A 
HETATM    4  C8  UNL     1      21.839  -0.968  53.979  1.00  0.00     0.120 A 
HETATM    5  N2  UNL     1      21.010   0.099  53.490  1.00  0.00    -0.253 NA
HETATM    6  C9  UNL     1      21.511   1.158  52.973  1.00  0.00     0.116 A 
HETATM    7 BR1  UNL     1      20.193   2.397  52.422  1.00  0.00    -0.028 Br
HETATM    8  C10 UNL     1      22.925   1.424  52.804  1.00  0.00     0.043 A 
HETATM    9  C11 UNL     1      23.443   2.509  52.300  1.00  0.00     0.099 C 
ENDROOT
BRANCH   9  10
HETATM   10  N3  UNL     1      22.902   3.677  51.769  1.00  0.00    -0.396 N 
HETATM   11  H11 UNL     1      22.161   3.063  51.294  1.00  0.00     0.158 HD
BRANCH  10  12
HETATM   12  C12 UNL     1      22.357   4.850  51.236  1.00  0.00     0.149 C 
BRANCH  12  13
HETATM   13  C13 UNL     1      23.272   5.660  50.346  1.00  0.00     0.292 C 
BRANCH  13  14
HETATM   14  N4  UNL     1      22.852   7.028  50.227  1.00  0.00     0.094 N 
HETATM   15  C14 UNL     1      21.567   7.291  50.830  1.00  0.00     0.298 C 
HETATM   16  C15 UNL     1      20.660   7.973  49.848  1.00  0.00     0.198 C 
HETATM   17  O1  UNL     1      21.184   9.165  49.353  1.00  0.00    -0.388 OA
HETATM   18  C16 UNL     1      22.532   9.007  48.956  1.00  0.00     0.198 C 
HETATM   19  C17 UNL     1      22.928   7.541  48.886  1.00  0.00     0.298 C 
ENDBRANCH  13  14
ENDBRANCH  12  13
ENDBRANCH  10  12
ENDBRANCH   9  10
BRANCH   1  20
HETATM   20  C5  UNL     1      25.997  -0.297  53.817  1.00  0.00     0.177 C 
BRANCH  20  21
HETATM   21  C4  UNL     1      27.340  -0.537  53.295  1.00  0.00    -0.005 C 
HETATM   22  C3  UNL     1      28.379  -0.225  54.098  1.00  0.00    -0.003 C 
BRANCH  22  23
HETATM   23  C2  UNL     1      29.745  -0.484  53.583  1.00  0.00    -0.011 C 
HETATM   24  C1  UNL     1      29.556  -1.815  53.376  1.00  0.00     0.011 C 
ENDBRANCH  22  23
ENDBRANCH  20  21
ENDBRANCH   1  20
TORSDOF 7
ENDMDL
MODEL 9
REMARK VINA RESULT:      -6.0      4.819      8.023
REMARK  7 active torsions:
REMARK  status: ('A' for Active; 'I' for Inactive)
REMARK    1  A    between atoms: C2_2  and  C3_3 
REMARK    2  A    between atoms: C4_4  and  C5_5 
REMARK    3  A    between atoms: C5_5  and  N1_6 
REMARK    4  A    between atoms: C11_14  and  N3_15 
REMARK    5  A    between atoms: N3_15  and  C12_16 
REMARK    6  A    between atoms: C12_16  and  C13_17 
REMARK    7  A    between atoms: C13_17  and  N4_18 
ROOT
HETATM    1  N1  UNL     1      29.817   5.230  48.235  1.00  0.00    -0.285 NA
HETATM    2  C6  UNL     1      28.908   6.150  48.085  1.00  0.00     0.067 A 
HETATM    3  C7  UNL     1      29.131   7.473  47.493  1.00  0.00     0.051 A 
HETATM    4  C8  UNL     1      28.196   8.381  47.241  1.00  0.00     0.120 A 
HETATM    5  N2  UNL     1      26.851   8.011  47.584  1.00  0.00    -0.253 NA
HETATM    6  C9  UNL     1      26.576   6.871  48.100  1.00  0.00     0.116 A 
HETATM    7 BR1  UNL     1      24.731   6.649  48.443  1.00  0.00    -0.028 Br
HETATM    8  C10 UNL     1      27.539   5.832  48.407  1.00  0.00     0.043 A 
HETATM    9  C11 UNL     1      27.266   4.662  48.909  1.00  0.00     0.099 C 
ENDROOT
BRANCH   9  10
HETATM   10  N3  UNL     1      26.088   4.042  49.321  1.00  0.00    -0.396 N 
HETATM   11  H11 UNL     1      25.676   4.293  48.362  1.00  0.00     0.158 HD
BRANCH  10  12
HETATM   12  C12 UNL     1      24.905   3.420  49.733  1.00  0.00     0.149 C 
BRANCH  12  13
HETATM   13  C13 UNL     1      24.268   3.973  50.988  1.00  0.00     0.292 C 
BRANCH  13  14
HETATM   14  N4  UNL     1      22.859   3.707  51.051  1.00  0.00     0.094 N 
HETATM   15  C14 UNL     1      22.111   4.297  49.967  1.00  0.00     0.298 C 
HETATM   16  C15 UNL     1      20.967   5.107  50.503  1.00  0.00     0.198 C 
HETATM   17  O1  UNL     1      20.100   4.369  51.306  1.00  0.00    -0.388 OA
HETATM   18  C16 UNL     1      20.812   3.589  52.247  1.00  0.00     0.198 C 
HETATM   19  C17 UNL     1      22.272   4.004  52.329  1.00  0.00     0.298 C 
ENDBRANCH  13  14
ENDBRANCH  12  13
ENDBRANCH  10  12
ENDBRANCH   9  10
BRANCH   1  20
HETATM   20  C5  UNL     1      31.131   5.410  47.816  1.00  0.00     0.177 C 
BRANCH  20  21
HETATM   21  C4  UNL     1      32.134   4.349  47.793  1.00  0.00    -0.005 C 
HETATM   22  C3  UNL     1      31.996   3.391  46.851  1.00  0.00    -0.003 C 
BRANCH  22  23
HETATM   23  C2  UNL     1      33.020   2.320  46.807  1.00  0.00    -0.011 C 
HETATM   24  C1  UNL     1      33.975   3.026  47.471  1.00  0.00     0.011 C 
ENDBRANCH  22  23
ENDBRANCH  20  21
ENDBRANCH   1  20
TORSDOF 7
ENDMDL
