MODEL 1
REMARK VINA RESULT:      -8.1      0.000      0.000
REMARK  6 active torsions:
REMARK  status: ('A' for Active; 'I' for Inactive)
REMARK    1  A    between atoms: C1_2  and  N1_3 
REMARK    2  A    between atoms: C1_2  and  N3_12 
REMARK    3  A    between atoms: N1_3  and  C2_4 
REMARK    4  A    between atoms: C2_4  and  C3_5 
REMARK    5  A    between atoms: C3_5  and  N2_6 
REMARK    6  A    between atoms: N3_12  and  C8_13 
ROOT
HETATM    1  C8  UNL     1      24.594   2.879  51.738  1.00  0.00     0.109 C 
HETATM    2  C9  UNL     1      25.852   2.283  52.166  1.00  0.00     0.025 C 
HETATM    3  C10 UNL     1      26.543   1.669  53.145  1.00  0.00     0.041 C 
HETATM    4  C11 UNL     1      26.130   1.286  54.519  1.00  0.00     0.136 C 
HETATM    5  C12 UNL     1      26.450  -0.152  54.686  1.00  0.00     0.101 C 
HETATM    6  N4  UNL     1      27.482  -0.711  54.151  1.00  0.00    -0.229 NA
HETATM    7  C13 UNL     1      28.291   0.024  53.227  1.00  0.00     0.235 C 
HETATM    8  N5  UNL     1      27.894   1.258  52.992  1.00  0.00    -0.246 NA
HETATM    9  N6  UNL     1      25.612  -0.954  55.471  1.00  0.00    -0.378 NA
HETATM   10  C14 UNL     1      24.370  -1.155  55.369  1.00  0.00     0.268 C 
HETATM   11  C15 UNL     1      22.997  -1.132  54.946  1.00  0.00     0.062 C 
HETATM   12  C16 UNL     1      21.723  -1.261  54.755  1.00  0.00     0.003 C 
HETATM   13  C17 UNL     1      21.319  -0.473  53.568  1.00  0.00     0.004 C 
HETATM   14 BR1  UNL     1      19.416  -0.600  53.257  1.00  0.00    -0.052 Br
HETATM   15  C18 UNL     1      22.042   0.263  52.741  1.00  0.00    -0.008 C 
HETATM   16  C19 UNL     1      23.328   0.845  52.258  1.00  0.00     0.031 C 
HETATM   17  C20 UNL     1      23.362   2.322  52.404  1.00  0.00     0.033 C 
ENDROOT
BRANCH   1  18
HETATM   18  N3  UNL     1      24.355   2.622  50.300  1.00  0.00    -0.359 N 
HETATM   19  H14 UNL     1      24.941   1.990  49.716  1.00  0.00     0.162 HD
BRANCH  18  20
HETATM   20  C1  UNL     1      23.384   3.084  49.371  1.00  0.00     0.168 C 
HETATM   21  S1  UNL     1      23.141   4.719  49.493  1.00  0.00    -0.041 SA
BRANCH  20  22
HETATM   22  N1  UNL     1      22.593   2.387  48.401  1.00  0.00    -0.366 N 
HETATM   23  H1  UNL     1      22.969   2.363  47.432  1.00  0.00     0.161 HD
BRANCH  22  24
HETATM   24  C2  UNL     1      21.328   1.711  48.621  1.00  0.00     0.152 C 
BRANCH  24  25
HETATM   25  C3  UNL     1      20.125   2.527  48.290  1.00  0.00     0.292 C 
BRANCH  25  26
HETATM   26  N2  UNL     1      19.189   2.677  49.397  1.00  0.00     0.094 N 
HETATM   27  C4  UNL     1      19.767   2.173  50.631  1.00  0.00     0.298 C 
HETATM   28  C5  UNL     1      19.831   3.247  51.697  1.00  0.00     0.198 C 
HETATM   29  O1  UNL     1      18.540   3.682  51.968  1.00  0.00    -0.388 OA
HETATM   30  C6  UNL     1      17.879   4.048  50.822  1.00  0.00     0.198 C 
HETATM   31  C7  UNL     1      18.777   4.034  49.599  1.00  0.00     0.298 C 
ENDBRANCH  25  26
ENDBRANCH  24  25
ENDBRANCH  22  24
ENDBRANCH  20  22
ENDBRANCH  18  20
ENDBRANCH   1  18
TORSDOF 6
ENDMDL
MODEL 2
REMARK VINA RESULT:      -8.0      3.694      5.212
REMARK  6 active torsions:
REMARK  status: ('A' for Active; 'I' for Inactive)
REMARK    1  A    between atoms: C1_2  and  N1_3 
REMARK    2  A    between atoms: C1_2  and  N3_12 
REMARK    3  A    between atoms: N1_3  and  C2_4 
REMARK    4  A    between atoms: C2_4  and  C3_5 
REMARK    5  A    between atoms: C3_5  and  N2_6 
REMARK    6  A    between atoms: N3_12  and  C8_13 
ROOT
HETATM    1  C8  UNL     1      24.587   2.948  51.764  1.00  0.00     0.109 C 
HETATM    2  C9  UNL     1      25.831   2.323  52.189  1.00  0.00     0.025 C 
HETATM    3  C10 UNL     1      26.503   1.673  53.160  1.00  0.00     0.041 C 
HETATM    4  C11 UNL     1      26.070   1.264  54.519  1.00  0.00     0.136 C 
HETATM    5  C12 UNL     1      26.365  -0.183  54.654  1.00  0.00     0.101 C 
HETATM    6  N4  UNL     1      27.394  -0.745  54.115  1.00  0.00    -0.229 NA
HETATM    7  C13 UNL     1      28.223  -0.000  53.218  1.00  0.00     0.235 C 
HETATM    8  N5  UNL     1      27.848   1.245  53.009  1.00  0.00    -0.246 NA
HETATM    9  N6  UNL     1      25.507  -0.991  55.411  1.00  0.00    -0.378 NA
HETATM   10  C14 UNL     1      24.263  -1.168  55.292  1.00  0.00     0.268 C 
HETATM   11  C15 UNL     1      22.895  -1.113  54.857  1.00  0.00     0.062 C 
HETATM   12  C16 UNL     1      21.621  -1.217  54.650  1.00  0.00     0.003 C 
HETATM   13  C17 UNL     1      21.242  -0.394  53.479  1.00  0.00     0.004 C 
HETATM   14 BR1  UNL     1      19.340  -0.482  53.147  1.00  0.00    -0.052 Br
HETATM   15  C18 UNL     1      21.984   0.350  52.678  1.00  0.00    -0.008 C 
HETATM   16  C19 UNL     1      23.284   0.923  52.222  1.00  0.00     0.031 C 
HETATM   17  C20 UNL     1      23.340   2.396  52.405  1.00  0.00     0.033 C 
ENDROOT
BRANCH   1  18
HETATM   18  N3  UNL     1      24.359   2.731  50.318  1.00  0.00    -0.359 N 
HETATM   19  H14 UNL     1      24.550   1.834  49.827  1.00  0.00     0.162 HD
BRANCH  18  20
HETATM   20  C1  UNL     1      23.868   3.555  49.270  1.00  0.00     0.168 C 
HETATM   21  S1  UNL     1      22.694   2.792  48.382  1.00  0.00    -0.041 SA
BRANCH  20  22
HETATM   22  N1  UNL     1      24.227   4.879  48.856  1.00  0.00    -0.366 N 
HETATM   23  H1  UNL     1      23.627   5.312  48.126  1.00  0.00     0.161 HD
BRANCH  22  24
HETATM   24  C2  UNL     1      25.333   5.682  49.345  1.00  0.00     0.152 C 
BRANCH  24  25
HETATM   25  C3  UNL     1      26.682   5.144  49.010  1.00  0.00     0.292 C 
BRANCH  25  26
HETATM   26  N2  UNL     1      27.470   6.019  48.150  1.00  0.00     0.094 N 
HETATM   27  C4  UNL     1      27.148   7.414  48.402  1.00  0.00     0.298 C 
HETATM   28  C5  UNL     1      28.370   8.199  48.832  1.00  0.00     0.198 C 
HETATM   29  O1  UNL     1      29.312   8.149  47.813  1.00  0.00    -0.388 OA
HETATM   30  C6  UNL     1      29.567   6.857  47.424  1.00  0.00     0.198 C 
HETATM   31  C7  UNL     1      28.882   5.834  48.310  1.00  0.00     0.298 C 
ENDBRANCH  25  26
ENDBRANCH  24  25
ENDBRANCH  22  24
ENDBRANCH  20  22
ENDBRANCH  18  20
ENDBRANCH   1  18
TORSDOF 6
ENDMDL
MODEL 3
REMARK VINA RESULT:      -7.9      2.774      6.852
REMARK  6 active torsions:
REMARK  status: ('A' for Active; 'I' for Inactive)
REMARK    1  A    between atoms: C1_2  and  N1_3 
REMARK    2  A    between atoms: C1_2  and  N3_12 
REMARK    3  A    between atoms: N1_3  and  C2_4 
REMARK    4  A    between atoms: C2_4  and  C3_5 
REMARK    5  A    between atoms: C3_5  and  N2_6 
REMARK    6  A    between atoms: N3_12  and  C8_13 
ROOT
HETATM    1  C8  UNL     1      22.779   2.599  50.386  1.00  0.00     0.109 C 
HETATM    2  C9  UNL     1      21.363   2.883  50.207  1.00  0.00     0.025 C 
HETATM    3  C10 UNL     1      20.104   2.406  50.165  1.00  0.00     0.041 C 
HETATM    4  C11 UNL     1      19.595   1.022  50.335  1.00  0.00     0.136 C 
HETATM    5  C12 UNL     1      18.535   1.071  51.370  1.00  0.00     0.101 C 
HETATM    6  N4  UNL     1      17.728   2.069  51.506  1.00  0.00    -0.229 NA
HETATM    7  C13 UNL     1      17.935   3.260  50.740  1.00  0.00     0.235 C 
HETATM    8  N5  UNL     1      18.975   3.235  49.932  1.00  0.00    -0.246 NA
HETATM    9  N6  UNL     1      18.376  -0.015  52.241  1.00  0.00    -0.378 NA
HETATM   10  C14 UNL     1      19.219  -0.556  53.008  1.00  0.00     0.268 C 
HETATM   11  C15 UNL     1      20.416  -0.892  53.727  1.00  0.00     0.062 C 
HETATM   12  C16 UNL     1      21.360  -1.373  54.471  1.00  0.00     0.003 C 
HETATM   13  C17 UNL     1      22.593  -0.575  54.286  1.00  0.00     0.004 C 
HETATM   14 BR1  UNL     1      24.048  -1.274  55.347  1.00  0.00    -0.052 Br
HETATM   15  C18 UNL     1      22.819   0.490  53.535  1.00  0.00    -0.008 C 
HETATM   16  C19 UNL     1      22.403   1.548  52.569  1.00  0.00     0.031 C 
HETATM   17  C20 UNL     1      23.088   1.409  51.259  1.00  0.00     0.033 C 
ENDROOT
BRANCH   1  18
HETATM   18  N3  UNL     1      23.456   3.719  51.077  1.00  0.00    -0.359 N 
HETATM   19  H14 UNL     1      23.130   4.131  51.976  1.00  0.00     0.162 HD
BRANCH  18  20
HETATM   20  C1  UNL     1      24.613   4.492  50.787  1.00  0.00     0.168 C 
HETATM   21  S1  UNL     1      24.262   6.108  50.672  1.00  0.00    -0.041 SA
BRANCH  20  22
HETATM   22  N1  UNL     1      25.976   4.113  50.564  1.00  0.00    -0.366 N 
HETATM   23  H1  UNL     1      26.610   4.859  50.214  1.00  0.00     0.161 HD
BRANCH  22  24
HETATM   24  C2  UNL     1      26.568   2.805  50.772  1.00  0.00     0.152 C 
BRANCH  24  25
HETATM   25  C3  UNL     1      26.604   2.361  52.195  1.00  0.00     0.292 C 
BRANCH  25  26
HETATM   26  N2  UNL     1      27.303   1.099  52.403  1.00  0.00     0.094 N 
HETATM   27  C4  UNL     1      28.167   1.177  53.569  1.00  0.00     0.298 C 
HETATM   28  C5  UNL     1      27.804   0.132  54.603  1.00  0.00     0.198 C 
HETATM   29  O1  UNL     1      27.953  -1.127  54.035  1.00  0.00    -0.388 OA
HETATM   30  C6  UNL     1      27.270  -1.231  52.849  1.00  0.00     0.198 C 
HETATM   31  C7  UNL     1      26.412  -0.012  52.561  1.00  0.00     0.298 C 
ENDBRANCH  25  26
ENDBRANCH  24  25
ENDBRANCH  22  24
ENDBRANCH  20  22
ENDBRANCH  18  20
ENDBRANCH   1  18
TORSDOF 6
ENDMDL
MODEL 4
REMARK VINA RESULT:      -7.7      1.896      2.037
REMARK  6 active torsions:
REMARK  status: ('A' for Active; 'I' for Inactive)
REMARK    1  A    between atoms: C1_2  and  N1_3 
REMARK    2  A    between atoms: C1_2  and  N3_12 
REMARK    3  A    between atoms: N1_3  and  C2_4 
REMARK    4  A    between atoms: C2_4  and  C3_5 
REMARK    5  A    between atoms: C3_5  and  N2_6 
REMARK    6  A    between atoms: N3_12  and  C8_13 
ROOT
HETATM    1  C8  UNL     1      24.577   2.987  51.827  1.00  0.00     0.109 C 
HETATM    2  C9  UNL     1      25.825   2.355  52.230  1.00  0.00     0.025 C 
HETATM    3  C10 UNL     1      26.507   1.688  53.181  1.00  0.00     0.041 C 
HETATM    4  C11 UNL     1      26.085   1.250  54.536  1.00  0.00     0.136 C 
HETATM    5  C12 UNL     1      26.385  -0.199  54.639  1.00  0.00     0.101 C 
HETATM    6  N4  UNL     1      27.410  -0.748  54.080  1.00  0.00    -0.229 NA
HETATM    7  C13 UNL     1      28.230   0.017  53.192  1.00  0.00     0.235 C 
HETATM    8  N5  UNL     1      27.852   1.265  53.011  1.00  0.00    -0.246 NA
HETATM    9  N6  UNL     1      25.534  -1.023  55.386  1.00  0.00    -0.378 NA
HETATM   10  C14 UNL     1      24.290  -1.201  55.275  1.00  0.00     0.268 C 
HETATM   11  C15 UNL     1      22.918  -1.139  54.851  1.00  0.00     0.062 C 
HETATM   12  C16 UNL     1      21.643  -1.242  54.653  1.00  0.00     0.003 C 
HETATM   13  C17 UNL     1      21.252  -0.396  53.502  1.00  0.00     0.004 C 
HETATM   14 BR1  UNL     1      19.348  -0.482  53.184  1.00  0.00    -0.052 Br
HETATM   15  C18 UNL     1      21.987   0.365  52.710  1.00  0.00    -0.008 C 
HETATM   16  C19 UNL     1      23.282   0.950  52.255  1.00  0.00     0.031 C 
HETATM   17  C20 UNL     1      23.336   2.419  52.467  1.00  0.00     0.033 C 
ENDROOT
BRANCH   1  18
HETATM   18  N3  UNL     1      24.337   2.799  50.379  1.00  0.00    -0.359 N 
HETATM   19  H14 UNL     1      24.421   1.884  49.890  1.00  0.00     0.162 HD
BRANCH  18  20
HETATM   20  C1  UNL     1      23.961   3.676  49.327  1.00  0.00     0.168 C 
HETATM   21  S1  UNL     1      24.944   5.009  49.254  1.00  0.00    -0.041 SA
BRANCH  20  22
HETATM   22  N1  UNL     1      22.897   3.609  48.370  1.00  0.00    -0.366 N 
HETATM   23  H1  UNL     1      23.177   3.471  47.379  1.00  0.00     0.161 HD
BRANCH  22  24
HETATM   24  C2  UNL     1      21.474   3.713  48.632  1.00  0.00     0.152 C 
BRANCH  24  25
HETATM   25  C3  UNL     1      21.123   3.943  50.063  1.00  0.00     0.292 C 
BRANCH  25  26
HETATM   26  N2  UNL     1      20.655   5.295  50.347  1.00  0.00     0.094 N 
HETATM   27  C4  UNL     1      21.614   6.009  51.172  1.00  0.00     0.298 C 
HETATM   28  C5  UNL     1      22.105   7.270  50.492  1.00  0.00     0.198 C 
HETATM   29  O1  UNL     1      21.018   8.105  50.267  1.00  0.00    -0.388 OA
HETATM   30  C6  UNL     1      20.007   7.453  49.607  1.00  0.00     0.198 C 
HETATM   31  C7  UNL     1      20.405   6.058  49.160  1.00  0.00     0.298 C 
ENDBRANCH  25  26
ENDBRANCH  24  25
ENDBRANCH  22  24
ENDBRANCH  20  22
ENDBRANCH  18  20
ENDBRANCH   1  18
TORSDOF 6
ENDMDL
MODEL 5
REMARK VINA RESULT:      -7.6      5.024      7.455
REMARK  6 active torsions:
REMARK  status: ('A' for Active; 'I' for Inactive)
REMARK    1  A    between atoms: C1_2  and  N1_3 
REMARK    2  A    between atoms: C1_2  and  N3_12 
REMARK    3  A    between atoms: N1_3  and  C2_4 
REMARK    4  A    between atoms: C2_4  and  C3_5 
REMARK    5  A    between atoms: C3_5  and  N2_6 
REMARK    6  A    between atoms: N3_12  and  C8_13 
ROOT
HETATM    1  C8  UNL     1      24.466   3.714  50.384  1.00  0.00     0.109 C 
HETATM    2  C9  UNL     1      23.037   3.515  50.578  1.00  0.00     0.025 C 
HETATM    3  C10 UNL     1      22.029   2.647  50.787  1.00  0.00     0.041 C 
HETATM    4  C11 UNL     1      22.047   1.169  50.929  1.00  0.00     0.136 C 
HETATM    5  C12 UNL     1      21.331   0.842  52.186  1.00  0.00     0.101 C 
HETATM    6  N4  UNL     1      20.315   1.512  52.612  1.00  0.00    -0.229 NA
HETATM    7  C13 UNL     1      19.928   2.719  51.948  1.00  0.00     0.235 C 
HETATM    8  N5  UNL     1      20.675   3.057  50.917  1.00  0.00    -0.246 NA
HETATM    9  N6  UNL     1      21.756  -0.251  52.952  1.00  0.00    -0.378 NA
HETATM   10  C14 UNL     1      22.895  -0.496  53.436  1.00  0.00     0.268 C 
HETATM   11  C15 UNL     1      24.280  -0.428  53.810  1.00  0.00     0.062 C 
HETATM   12  C16 UNL     1      25.486  -0.583  54.254  1.00  0.00     0.003 C 
HETATM   13  C17 UNL     1      26.310   0.584  53.864  1.00  0.00     0.004 C 
HETATM   14 BR1  UNL     1      28.135   0.388  54.470  1.00  0.00    -0.052 Br
HETATM   15  C18 UNL     1      25.986   1.677  53.196  1.00  0.00    -0.008 C 
HETATM   16  C19 UNL     1      25.021   2.556  52.473  1.00  0.00     0.031 C 
HETATM   17  C20 UNL     1      25.351   2.678  51.030  1.00  0.00     0.033 C 
ENDROOT
BRANCH   1  18
HETATM   18  N3  UNL     1      24.908   4.982  51.006  1.00  0.00    -0.359 N 
HETATM   19  H14 UNL     1      25.080   5.101  52.026  1.00  0.00     0.162 HD
BRANCH  18  20
HETATM   20  C1  UNL     1      25.207   6.273  50.493  1.00  0.00     0.168 C 
HETATM   21  S1  UNL     1      23.934   7.319  50.675  1.00  0.00    -0.041 SA
BRANCH  20  22
HETATM   22  N1  UNL     1      26.376   6.789  49.846  1.00  0.00    -0.366 N 
HETATM   23  H1  UNL     1      26.956   7.449  50.402  1.00  0.00     0.161 HD
BRANCH  22  24
HETATM   24  C2  UNL     1      26.840   6.492  48.504  1.00  0.00     0.152 C 
BRANCH  24  25
HETATM   25  C3  UNL     1      28.041   5.610  48.446  1.00  0.00     0.292 C 
BRANCH  25  26
HETATM   26  N2  UNL     1      29.189   6.216  47.784  1.00  0.00     0.094 N 
HETATM   27  C4  UNL     1      29.408   7.568  48.270  1.00  0.00     0.298 C 
HETATM   28  C5  UNL     1      30.787   7.727  48.875  1.00  0.00     0.198 C 
HETATM   29  O1  UNL     1      31.736   7.459  47.896  1.00  0.00    -0.388 OA
HETATM   30  C6  UNL     1      31.509   6.248  47.291  1.00  0.00     0.198 C 
HETATM   31  C7  UNL     1      30.395   5.461  47.957  1.00  0.00     0.298 C 
ENDBRANCH  25  26
ENDBRANCH  24  25
ENDBRANCH  22  24
ENDBRANCH  20  22
ENDBRANCH  18  20
ENDBRANCH   1  18
TORSDOF 6
ENDMDL
MODEL 6
REMARK VINA RESULT:      -7.5      5.845      8.516
REMARK  6 active torsions:
REMARK  status: ('A' for Active; 'I' for Inactive)
REMARK    1  A    between atoms: C1_2  and  N1_3 
REMARK    2  A    between atoms: C1_2  and  N3_12 
REMARK    3  A    between atoms: N1_3  and  C2_4 
REMARK    4  A    between atoms: C2_4  and  C3_5 
REMARK    5  A    between atoms: C3_5  and  N2_6 
REMARK    6  A    between atoms: N3_12  and  C8_13 
ROOT
HETATM    1  C8  UNL     1      25.608   3.808  49.405  1.00  0.00     0.109 C 
HETATM    2  C9  UNL     1      24.201   3.855  49.776  1.00  0.00     0.025 C 
HETATM    3  C10 UNL     1      23.116   3.184  50.208  1.00  0.00     0.041 C 
HETATM    4  C11 UNL     1      22.945   1.748  50.543  1.00  0.00     0.136 C 
HETATM    5  C12 UNL     1      22.356   1.684  51.902  1.00  0.00     0.101 C 
HETATM    6  N4  UNL     1      21.505   2.548  52.343  1.00  0.00    -0.229 NA
HETATM    7  C13 UNL     1      21.210   3.714  51.568  1.00  0.00     0.235 C 
HETATM    8  N5  UNL     1      21.860   3.811  50.427  1.00  0.00    -0.246 NA
HETATM    9  N6  UNL     1      22.717   0.635  52.757  1.00  0.00    -0.378 NA
HETATM   10  C14 UNL     1      23.863   0.275  53.144  1.00  0.00     0.268 C 
HETATM   11  C15 UNL     1      25.280   0.171  53.354  1.00  0.00     0.062 C 
HETATM   12  C16 UNL     1      26.499  -0.116  53.681  1.00  0.00     0.003 C 
HETATM   13  C17 UNL     1      27.422   0.856  53.053  1.00  0.00     0.004 C 
HETATM   14 BR1  UNL     1      29.263   0.452  53.479  1.00  0.00    -0.052 Br
HETATM   15  C18 UNL     1      27.172   1.901  52.283  1.00  0.00    -0.008 C 
HETATM   16  C19 UNL     1      26.255   2.828  51.557  1.00  0.00     0.031 C 
HETATM   17  C20 UNL     1      26.413   2.730  50.084  1.00  0.00     0.033 C 
ENDROOT
BRANCH   1  18
HETATM   18  N3  UNL     1      26.297   5.056  49.800  1.00  0.00    -0.359 N 
HETATM   19  H14 UNL     1      26.505   5.318  50.786  1.00  0.00     0.162 HD
BRANCH  18  20
HETATM   20  C1  UNL     1      26.833   6.152  49.072  1.00  0.00     0.168 C 
HETATM   21  S1  UNL     1      25.654   6.990  48.262  1.00  0.00    -0.041 SA
BRANCH  20  22
HETATM   22  N1  UNL     1      28.178   6.617  48.910  1.00  0.00    -0.366 N 
HETATM   23  H1  UNL     1      28.465   7.415  49.511  1.00  0.00     0.161 HD
BRANCH  22  24
HETATM   24  C2  UNL     1      29.184   6.097  48.003  1.00  0.00     0.152 C 
BRANCH  24  25
HETATM   25  C3  UNL     1      30.517   5.861  48.626  1.00  0.00     0.292 C 
BRANCH  25  26
HETATM   26  N2  UNL     1      31.599   5.695  47.663  1.00  0.00     0.094 N 
HETATM   27  C4  UNL     1      32.661   6.655  47.912  1.00  0.00     0.298 C 
HETATM   28  C5  UNL     1      33.982   5.968  48.185  1.00  0.00     0.198 C 
HETATM   29  O1  UNL     1      34.330   5.215  47.071  1.00  0.00    -0.388 OA
HETATM   30  C6  UNL     1      33.314   4.375  46.691  1.00  0.00     0.198 C 
HETATM   31  C7  UNL     1      32.157   4.375  47.673  1.00  0.00     0.298 C 
ENDBRANCH  25  26
ENDBRANCH  24  25
ENDBRANCH  22  24
ENDBRANCH  20  22
ENDBRANCH  18  20
ENDBRANCH   1  18
TORSDOF 6
ENDMDL
MODEL 7
REMARK VINA RESULT:      -7.4      7.597     10.140
REMARK  6 active torsions:
REMARK  status: ('A' for Active; 'I' for Inactive)
REMARK    1  A    between atoms: C1_2  and  N1_3 
REMARK    2  A    between atoms: C1_2  and  N3_12 
REMARK    3  A    between atoms: N1_3  and  C2_4 
REMARK    4  A    between atoms: C2_4  and  C3_5 
REMARK    5  A    between atoms: C3_5  and  N2_6 
REMARK    6  A    between atoms: N3_12  and  C8_13 
ROOT
HETATM    1  C8  UNL     1      27.876   6.640  48.016  1.00  0.00     0.109 C 
HETATM    2  C9  UNL     1      29.149   5.938  48.083  1.00  0.00     0.025 C 
HETATM    3  C10 UNL     1      30.444   5.894  47.714  1.00  0.00     0.041 C 
HETATM    4  C11 UNL     1      31.232   6.820  46.862  1.00  0.00     0.136 C 
HETATM    5  C12 UNL     1      32.443   7.195  47.630  1.00  0.00     0.101 C 
HETATM    6  N4  UNL     1      33.054   6.381  48.423  1.00  0.00    -0.229 NA
HETATM    7  C13 UNL     1      32.478   5.105  48.714  1.00  0.00     0.235 C 
HETATM    8  N5  UNL     1      31.327   4.860  48.125  1.00  0.00    -0.246 NA
HETATM    9  N6  UNL     1      32.974   8.483  47.487  1.00  0.00    -0.378 NA
HETATM   10  C14 UNL     1      32.415   9.602  47.657  1.00  0.00     0.268 C 
HETATM   11  C15 UNL     1      31.466  10.644  47.938  1.00  0.00     0.062 C 
HETATM   12  C16 UNL     1      30.795  11.733  48.134  1.00  0.00     0.003 C 
HETATM   13  C17 UNL     1      29.420  11.396  48.567  1.00  0.00     0.004 C 
HETATM   14 BR1  UNL     1      28.360  12.989  48.837  1.00  0.00    -0.052 Br
HETATM   15  C18 UNL     1      28.853  10.222  48.780  1.00  0.00    -0.008 C 
HETATM   16  C19 UNL     1      28.863   8.731  48.833  1.00  0.00     0.031 C 
HETATM   17  C20 UNL     1      27.976   8.129  47.804  1.00  0.00     0.033 C 
ENDROOT
BRANCH   1  18
HETATM   18  N3  UNL     1      27.144   6.522  49.297  1.00  0.00    -0.359 N 
HETATM   19  H14 UNL     1      27.497   6.888  50.205  1.00  0.00     0.162 HD
BRANCH  18  20
HETATM   20  C1  UNL     1      25.893   5.955  49.661  1.00  0.00     0.168 C 
HETATM   21  S1  UNL     1      24.651   6.555  48.741  1.00  0.00    -0.041 SA
BRANCH  20  22
HETATM   22  N1  UNL     1      25.541   5.002  50.672  1.00  0.00    -0.366 N 
HETATM   23  H1  UNL     1      25.455   5.370  51.640  1.00  0.00     0.161 HD
BRANCH  22  24
HETATM   24  C2  UNL     1      25.291   3.584  50.493  1.00  0.00     0.152 C 
BRANCH  24  25
HETATM   25  C3  UNL     1      26.518   2.738  50.472  1.00  0.00     0.292 C 
BRANCH  25  26
HETATM   26  N2  UNL     1      26.519   1.675  51.471  1.00  0.00     0.094 N 
HETATM   27  C4  UNL     1      27.250   2.086  52.658  1.00  0.00     0.298 C 
HETATM   28  C5  UNL     1      26.376   2.041  53.894  1.00  0.00     0.198 C 
HETATM   29  O1  UNL     1      25.940   0.736  54.083  1.00  0.00    -0.388 OA
HETATM   30  C6  UNL     1      25.357   0.229  52.949  1.00  0.00     0.198 C 
HETATM   31  C7  UNL     1      25.200   1.270  51.856  1.00  0.00     0.298 C 
ENDBRANCH  25  26
ENDBRANCH  24  25
ENDBRANCH  22  24
ENDBRANCH  20  22
ENDBRANCH  18  20
ENDBRANCH   1  18
TORSDOF 6
ENDMDL
MODEL 8
REMARK VINA RESULT:      -7.3      2.961      4.636
REMARK  6 active torsions:
REMARK  status: ('A' for Active; 'I' for Inactive)
REMARK    1  A    between atoms: C1_2  and  N1_3 
REMARK    2  A    between atoms: C1_2  and  N3_12 
REMARK    3  A    between atoms: N1_3  and  C2_4 
REMARK    4  A    between atoms: C2_4  and  C3_5 
REMARK    5  A    between atoms: C3_5  and  N2_6 
REMARK    6  A    between atoms: N3_12  and  C8_13 
ROOT
HETATM    1  C8  UNL     1      22.420  -0.090  52.409  1.00  0.00     0.109 C 
HETATM    2  C9  UNL     1      23.552  -0.266  53.307  1.00  0.00     0.025 C 
HETATM    3  C10 UNL     1      24.890  -0.286  53.460  1.00  0.00     0.041 C 
HETATM    4  C11 UNL     1      25.973  -0.075  52.466  1.00  0.00     0.136 C 
HETATM    5  C12 UNL     1      26.874   0.966  53.017  1.00  0.00     0.101 C 
HETATM    6  N4  UNL     1      27.131   1.081  54.276  1.00  0.00    -0.229 NA
HETATM    7  C13 UNL     1      26.416   0.283  55.224  1.00  0.00     0.235 C 
HETATM    8  N5  UNL     1      25.519  -0.532  54.709  1.00  0.00    -0.246 NA
HETATM    9  N6  UNL     1      27.496   1.866  52.142  1.00  0.00    -0.378 NA
HETATM   10  C14 UNL     1      26.980   2.641  51.290  1.00  0.00     0.268 C 
HETATM   11  C15 UNL     1      26.056   3.359  50.457  1.00  0.00     0.062 C 
HETATM   12  C16 UNL     1      25.424   4.109  49.612  1.00  0.00     0.003 C 
HETATM   13  C17 UNL     1      23.966   3.893  49.753  1.00  0.00     0.004 C 
HETATM   14 BR1  UNL     1      22.973   4.961  48.485  1.00  0.00    -0.052 Br
HETATM   15  C18 UNL     1      23.291   3.113  50.579  1.00  0.00    -0.008 C 
HETATM   16  C19 UNL     1      23.195   2.122  51.691  1.00  0.00     0.031 C 
HETATM   17  C20 UNL     1      22.674   0.811  51.228  1.00  0.00     0.033 C 
ENDROOT
BRANCH   1  18
HETATM   18  N3  UNL     1      21.293   0.565  53.108  1.00  0.00    -0.359 N 
HETATM   19  H14 UNL     1      21.304   0.824  54.116  1.00  0.00     0.162 HD
BRANCH  18  20
HETATM   20  C1  UNL     1      20.005   1.002  52.694  1.00  0.00     0.168 C 
HETATM   21  S1  UNL     1      18.938  -0.259  52.560  1.00  0.00    -0.041 SA
BRANCH  20  22
HETATM   22  N1  UNL     1      19.506   2.304  52.364  1.00  0.00    -0.366 N 
HETATM   23  H1  UNL     1      19.199   2.895  53.162  1.00  0.00     0.161 HD
BRANCH  22  24
HETATM   24  C2  UNL     1      19.383   2.887  51.042  1.00  0.00     0.152 C 
BRANCH  24  25
HETATM   25  C3  UNL     1      17.979   3.128  50.600  1.00  0.00     0.292 C 
BRANCH  25  26
HETATM   26  N2  UNL     1      16.984   2.889  51.638  1.00  0.00     0.094 N 
HETATM   27  C4  UNL     1      16.262   4.111  51.950  1.00  0.00     0.298 C 
HETATM   28  C5  UNL     1      14.773   3.953  51.720  1.00  0.00     0.198 C 
HETATM   29  O1  UNL     1      14.299   2.945  52.549  1.00  0.00    -0.388 OA
HETATM   30  C6  UNL     1      15.028   1.790  52.409  1.00  0.00     0.198 C 
HETATM   31  C7  UNL     1      16.040   1.871  51.281  1.00  0.00     0.298 C 
ENDBRANCH  25  26
ENDBRANCH  24  25
ENDBRANCH  22  24
ENDBRANCH  20  22
ENDBRANCH  18  20
ENDBRANCH   1  18
TORSDOF 6
ENDMDL
MODEL 9
REMARK VINA RESULT:      -7.0      7.502      9.770
REMARK  6 active torsions:
REMARK  status: ('A' for Active; 'I' for Inactive)
REMARK    1  A    between atoms: C1_2  and  N1_3 
REMARK    2  A    between atoms: C1_2  and  N3_12 
REMARK    3  A    between atoms: N1_3  and  C2_4 
REMARK    4  A    between atoms: C2_4  and  C3_5 
REMARK    5  A    between atoms: C3_5  and  N2_6 
REMARK    6  A    between atoms: N3_12  and  C8_13 
ROOT
HETATM    1  C8  UNL     1      27.737   6.735  48.040  1.00  0.00     0.109 C 
HETATM    2  C9  UNL     1      29.004   6.021  48.104  1.00  0.00     0.025 C 
HETATM    3  C10 UNL     1      30.298   5.964  47.732  1.00  0.00     0.041 C 
HETATM    4  C11 UNL     1      31.092   6.880  46.876  1.00  0.00     0.136 C 
HETATM    5  C12 UNL     1      32.309   7.246  47.640  1.00  0.00     0.101 C 
HETATM    6  N4  UNL     1      32.914   6.429  48.434  1.00  0.00    -0.229 NA
HETATM    7  C13 UNL     1      32.327   5.158  48.730  1.00  0.00     0.235 C 
HETATM    8  N5  UNL     1      31.172   4.923  48.144  1.00  0.00    -0.246 NA
HETATM    9  N6  UNL     1      32.851   8.529  47.494  1.00  0.00    -0.378 NA
HETATM   10  C14 UNL     1      32.303   9.654  47.663  1.00  0.00     0.268 C 
HETATM   11  C15 UNL     1      31.365  10.705  47.943  1.00  0.00     0.062 C 
HETATM   12  C16 UNL     1      30.704  11.801  48.138  1.00  0.00     0.003 C 
HETATM   13  C17 UNL     1      29.327  11.478  48.575  1.00  0.00     0.004 C 
HETATM   14 BR1  UNL     1      28.283  13.081  48.845  1.00  0.00    -0.052 Br
HETATM   15  C18 UNL     1      28.749  10.309  48.792  1.00  0.00    -0.008 C 
HETATM   16  C19 UNL     1      28.746   8.818  48.849  1.00  0.00     0.031 C 
HETATM   17  C20 UNL     1      27.851   8.222  47.824  1.00  0.00     0.033 C 
ENDROOT
BRANCH   1  18
HETATM   18  N3  UNL     1      27.008   6.626  49.322  1.00  0.00    -0.359 N 
HETATM   19  H14 UNL     1      27.370   6.982  50.230  1.00  0.00     0.162 HD
BRANCH  18  20
HETATM   20  C1  UNL     1      25.747   6.081  49.688  1.00  0.00     0.168 C 
HETATM   21  S1  UNL     1      24.570   6.449  48.580  1.00  0.00    -0.041 SA
BRANCH  20  22
HETATM   22  N1  UNL     1      25.340   5.316  50.829  1.00  0.00    -0.366 N 
HETATM   23  H1  UNL     1      25.856   5.496  51.713  1.00  0.00     0.161 HD
BRANCH  22  24
HETATM   24  C2  UNL     1      24.286   4.320  50.886  1.00  0.00     0.152 C 
BRANCH  24  25
HETATM   25  C3  UNL     1      23.483   4.341  52.142  1.00  0.00     0.292 C 
BRANCH  25  26
HETATM   26  N2  UNL     1      23.274   3.025  52.733  1.00  0.00     0.094 N 
HETATM   27  C4  UNL     1      22.076   2.403  52.193  1.00  0.00     0.298 C 
HETATM   28  C5  UNL     1      22.387   1.081  51.524  1.00  0.00     0.198 C 
HETATM   29  O1  UNL     1      22.934   0.222  52.469  1.00  0.00    -0.388 OA
HETATM   30  C6  UNL     1      23.994   0.798  53.122  1.00  0.00     0.198 C 
HETATM   31  C7  UNL     1      24.384   2.141  52.533  1.00  0.00     0.298 C 
ENDBRANCH  25  26
ENDBRANCH  24  25
ENDBRANCH  22  24
ENDBRANCH  20  22
ENDBRANCH  18  20
ENDBRANCH   1  18
TORSDOF 6
ENDMDL
