MODEL 1
REMARK VINA RESULT:      -7.5      0.000      0.000
REMARK  7 active torsions:
REMARK  status: ('A' for Active; 'I' for Inactive)
REMARK    1  A    between atoms: O1_2  and  C2_3 
REMARK       I    between atoms: C2_3  and  N1_5 
REMARK    2  A    between atoms: N1_5  and  C3_6 
REMARK    3  A    between atoms: C6_9  and  O3_10 
REMARK    4  A    between atoms: O3_10  and  C7_11 
REMARK    5  A    between atoms: C11_17  and  O4_18 
REMARK    6  A    between atoms: C13_20  and  O5_21 
REMARK    7  A    between atoms: O5_21  and  P1_22 
ROOT
HETATM    1  C7  UNL     1      25.948   2.613  51.146  1.00  0.00     0.183 A 
HETATM    2  N2  UNL     1      27.184   2.498  51.614  1.00  0.00    -0.217 NA
HETATM    3  C8  UNL     1      27.522   1.649  52.594  1.00  0.00     0.236 A 
HETATM    4  N3  UNL     1      26.586   0.854  53.158  1.00  0.00    -0.241 NA
HETATM    5  C9  UNL     1      25.295   0.895  52.750  1.00  0.00     0.075 A 
HETATM    6  C10 UNL     1      24.438   0.043  53.397  1.00  0.00     0.072 A 
HETATM    7  C11 UNL     1      23.122   0.080  52.987  1.00  0.00     0.104 A 
HETATM    8  C13 UNL     1      22.720   0.933  51.983  1.00  0.00     0.107 A 
HETATM    9  C15 UNL     1      23.639   1.763  51.379  1.00  0.00     0.058 A 
HETATM   10  C16 UNL     1      24.986   1.786  51.735  1.00  0.00     0.049 A 
ENDROOT
BRANCH   1  11
HETATM   11  O3  UNL     1      25.394   3.392  50.178  1.00  0.00    -0.291 OA
BRANCH  11  12
HETATM   12  C6  UNL     1      26.049   4.484  49.666  1.00  0.00     0.078 A 
HETATM   13  C5  UNL     1      27.147   4.680  48.874  1.00  0.00     0.039 A 
HETATM   14  C4  UNL     1      27.566   5.941  48.524  1.00  0.00     0.032 A 
HETATM   15  C3  UNL     1      26.903   7.072  48.951  1.00  0.00     0.037 A 
HETATM   16  C18 UNL     1      25.786   6.920  49.756  1.00  0.00     0.032 A 
HETATM   17  C17 UNL     1      25.372   5.631  50.102  1.00  0.00     0.039 A 
BRANCH  15  18
HETATM   18  N1  UNL     1      27.471   8.295  48.497  1.00  0.00    -0.303 N 
HETATM   19  C2  UNL     1      27.761   9.402  49.340  1.00  0.00     0.364 C 
HETATM   20  O2  UNL     1      27.559   9.456  50.583  1.00  0.00    -0.238 OA
HETATM   21  H4  UNL     1      27.665   8.321  47.471  1.00  0.00     0.171 HD
BRANCH  19  22
HETATM   22  O1  UNL     1      28.308  10.503  48.729  1.00  0.00    -0.309 OA
HETATM   23  C1  UNL     1      29.674  10.896  48.903  1.00  0.00     0.215 C 
ENDBRANCH  19  22
ENDBRANCH  15  18
ENDBRANCH  11  12
ENDBRANCH   1  11
BRANCH   8  24
HETATM   24  O5  UNL     1      21.401   0.961  51.582  1.00  0.00    -0.325 OA
BRANCH  24  25
HETATM   25  P1  UNL     1      20.209   2.057  52.213  1.00  0.00     0.016 P 
HETATM   26  C14 UNL     1      20.455   3.808  51.723  1.00  0.00     0.072 C 
HETATM   27  H12 UNL     1      18.866   1.574  52.080  1.00  0.00     0.087 HD
ENDBRANCH  24  25
ENDBRANCH   8  24
BRANCH   7  28
HETATM   28  O4  UNL     1      22.163  -0.739  53.569  1.00  0.00    -0.353 OA
HETATM   29  C12 UNL     1      21.630  -0.488  54.852  1.00  0.00     0.210 C 
ENDBRANCH   7  28
TORSDOF 7
ENDMDL
MODEL 2
REMARK VINA RESULT:      -7.4      0.820      1.287
REMARK  7 active torsions:
REMARK  status: ('A' for Active; 'I' for Inactive)
REMARK    1  A    between atoms: O1_2  and  C2_3 
REMARK       I    between atoms: C2_3  and  N1_5 
REMARK    2  A    between atoms: N1_5  and  C3_6 
REMARK    3  A    between atoms: C6_9  and  O3_10 
REMARK    4  A    between atoms: O3_10  and  C7_11 
REMARK    5  A    between atoms: C11_17  and  O4_18 
REMARK    6  A    between atoms: C13_20  and  O5_21 
REMARK    7  A    between atoms: O5_21  and  P1_22 
ROOT
HETATM    1  C7  UNL     1      26.365   2.575  51.180  1.00  0.00     0.183 A 
HETATM    2  N2  UNL     1      27.516   2.602  51.840  1.00  0.00    -0.217 NA
HETATM    3  C8  UNL     1      27.699   1.996  53.021  1.00  0.00     0.236 A 
HETATM    4  N3  UNL     1      26.686   1.315  53.600  1.00  0.00    -0.241 NA
HETATM    5  C9  UNL     1      25.472   1.228  53.008  1.00  0.00     0.075 A 
HETATM    6  C10 UNL     1      24.525   0.512  53.691  1.00  0.00     0.072 A 
HETATM    7  C11 UNL     1      23.286   0.419  53.094  1.00  0.00     0.104 A 
HETATM    8  C13 UNL     1      23.042   1.022  51.879  1.00  0.00     0.107 A 
HETATM    9  C15 UNL     1      24.044   1.728  51.251  1.00  0.00     0.058 A 
HETATM   10  C16 UNL     1      25.323   1.867  51.788  1.00  0.00     0.049 A 
ENDROOT
BRANCH   1  11
HETATM   11  O3  UNL     1      25.966   3.109  49.994  1.00  0.00    -0.291 OA
BRANCH  11  12
HETATM   12  C6  UNL     1      25.963   4.464  49.776  1.00  0.00     0.078 A 
HETATM   13  C5  UNL     1      25.189   5.516  50.182  1.00  0.00     0.039 A 
HETATM   14  C4  UNL     1      25.452   6.803  49.777  1.00  0.00     0.032 A 
HETATM   15  C3  UNL     1      26.508   7.100  48.942  1.00  0.00     0.037 A 
HETATM   16  C18 UNL     1      27.318   6.064  48.506  1.00  0.00     0.032 A 
HETATM   17  C17 UNL     1      27.038   4.762  48.927  1.00  0.00     0.039 A 
BRANCH  15  18
HETATM   18  N1  UNL     1      26.636   8.481  48.622  1.00  0.00    -0.303 N 
HETATM   19  C2  UNL     1      27.020   9.482  49.555  1.00  0.00     0.364 C 
HETATM   20  O2  UNL     1      27.295   9.293  50.770  1.00  0.00    -0.238 OA
HETATM   21  H4  UNL     1      26.422   8.710  47.627  1.00  0.00     0.171 HD
BRANCH  19  22
HETATM   22  O1  UNL     1      27.091  10.765  49.071  1.00  0.00    -0.309 OA
HETATM   23  C1  UNL     1      26.048  11.366  48.293  1.00  0.00     0.215 C 
ENDBRANCH  19  22
ENDBRANCH  15  18
ENDBRANCH  11  12
ENDBRANCH   1  11
BRANCH   8  24
HETATM   24  O5  UNL     1      21.798   0.923  51.291  1.00  0.00    -0.325 OA
BRANCH  24  25
HETATM   25  P1  UNL     1      20.491   2.032  51.575  1.00  0.00     0.016 P 
HETATM   26  C14 UNL     1      21.021   3.717  52.070  1.00  0.00     0.072 C 
HETATM   27  H12 UNL     1      19.480   1.990  50.560  1.00  0.00     0.087 HD
ENDBRANCH  24  25
ENDBRANCH   8  24
BRANCH   7  28
HETATM   28  O4  UNL     1      22.247  -0.282  53.693  1.00  0.00    -0.353 OA
HETATM   29  C12 UNL     1      22.442  -1.106  54.823  1.00  0.00     0.210 C 
ENDBRANCH   7  28
TORSDOF 7
ENDMDL
MODEL 3
REMARK VINA RESULT:      -7.3      6.282      8.725
REMARK  7 active torsions:
REMARK  status: ('A' for Active; 'I' for Inactive)
REMARK    1  A    between atoms: O1_2  and  C2_3 
REMARK       I    between atoms: C2_3  and  N1_5 
REMARK    2  A    between atoms: N1_5  and  C3_6 
REMARK    3  A    between atoms: C6_9  and  O3_10 
REMARK    4  A    between atoms: O3_10  and  C7_11 
REMARK    5  A    between atoms: C11_17  and  O4_18 
REMARK    6  A    between atoms: C13_20  and  O5_21 
REMARK    7  A    between atoms: O5_21  and  P1_22 
ROOT
HETATM    1  C7  UNL     1      19.161  -0.778  53.212  1.00  0.00     0.183 A 
HETATM    2  N2  UNL     1      18.957  -1.933  53.833  1.00  0.00    -0.217 NA
HETATM    3  C8  UNL     1      17.835  -2.652  53.695  1.00  0.00     0.236 A 
HETATM    4  N3  UNL     1      16.840  -2.214  52.893  1.00  0.00    -0.241 NA
HETATM    5  C9  UNL     1      16.951  -1.047  52.215  1.00  0.00     0.075 A 
HETATM    6  C10 UNL     1      15.877  -0.707  51.435  1.00  0.00     0.072 A 
HETATM    7  C11 UNL     1      15.983   0.480  50.741  1.00  0.00     0.104 A 
HETATM    8  C13 UNL     1      17.114   1.259  50.845  1.00  0.00     0.107 A 
HETATM    9  C15 UNL     1      18.154   0.853  51.651  1.00  0.00     0.058 A 
HETATM   10  C16 UNL     1      18.125  -0.333  52.384  1.00  0.00     0.049 A 
ENDROOT
BRANCH   1  11
HETATM   11  O3  UNL     1      20.201   0.099  53.207  1.00  0.00    -0.291 OA
BRANCH  11  12
HETATM   12  C6  UNL     1      21.431  -0.237  53.713  1.00  0.00     0.078 A 
HETATM   13  C5  UNL     1      21.883  -0.894  54.824  1.00  0.00     0.039 A 
HETATM   14  C4  UNL     1      23.225  -1.077  55.058  1.00  0.00     0.032 A 
HETATM   15  C3  UNL     1      24.184  -0.608  54.186  1.00  0.00     0.037 A 
HETATM   16  C18 UNL     1      23.772   0.064  53.047  1.00  0.00     0.032 A 
HETATM   17  C17 UNL     1      22.404   0.241  52.824  1.00  0.00     0.039 A 
BRANCH  15  18
HETATM   18  N1  UNL     1      25.524  -0.883  54.580  1.00  0.00    -0.303 N 
HETATM   19  C2  UNL     1      26.516   0.114  54.780  1.00  0.00     0.364 C 
HETATM   20  O2  UNL     1      26.355   1.356  54.640  1.00  0.00    -0.238 OA
HETATM   21  H4  UNL     1      25.730  -1.897  54.714  1.00  0.00     0.171 HD
BRANCH  19  22
HETATM   22  O1  UNL     1      27.758  -0.334  55.160  1.00  0.00    -0.309 OA
HETATM   23  C1  UNL     1      28.954  -0.033  54.431  1.00  0.00     0.215 C 
ENDBRANCH  19  22
ENDBRANCH  15  18
ENDBRANCH  11  12
ENDBRANCH   1  11
BRANCH   8  24
HETATM   24  O5  UNL     1      17.208   2.445  50.147  1.00  0.00    -0.325 OA
BRANCH  24  25
HETATM   25  P1  UNL     1      17.300   4.013  50.889  1.00  0.00     0.016 P 
HETATM   26  C14 UNL     1      16.051   4.303  52.202  1.00  0.00     0.072 C 
HETATM   27  H12 UNL     1      18.636   4.404  51.229  1.00  0.00     0.087 HD
ENDBRANCH  24  25
ENDBRANCH   8  24
BRANCH   7  28
HETATM   28  O4  UNL     1      14.957   0.927  49.917  1.00  0.00    -0.353 OA
HETATM   29  C12 UNL     1      14.602   0.266  48.722  1.00  0.00     0.210 C 
ENDBRANCH   7  28
TORSDOF 7
ENDMDL
MODEL 4
REMARK VINA RESULT:      -7.2      2.507      3.504
REMARK  7 active torsions:
REMARK  status: ('A' for Active; 'I' for Inactive)
REMARK    1  A    between atoms: O1_2  and  C2_3 
REMARK       I    between atoms: C2_3  and  N1_5 
REMARK    2  A    between atoms: N1_5  and  C3_6 
REMARK    3  A    between atoms: C6_9  and  O3_10 
REMARK    4  A    between atoms: O3_10  and  C7_11 
REMARK    5  A    between atoms: C11_17  and  O4_18 
REMARK    6  A    between atoms: C13_20  and  O5_21 
REMARK    7  A    between atoms: O5_21  and  P1_22 
ROOT
HETATM    1  C7  UNL     1      24.481   2.877  50.259  1.00  0.00     0.183 A 
HETATM    2  N2  UNL     1      23.427   3.113  49.488  1.00  0.00    -0.217 NA
HETATM    3  C8  UNL     1      22.238   2.525  49.670  1.00  0.00     0.236 A 
HETATM    4  N3  UNL     1      22.062   1.642  50.678  1.00  0.00    -0.241 NA
HETATM    5  C9  UNL     1      23.076   1.333  51.521  1.00  0.00     0.075 A 
HETATM    6  C10 UNL     1      22.778   0.425  52.503  1.00  0.00     0.072 A 
HETATM    7  C11 UNL     1      23.804   0.105  53.366  1.00  0.00     0.104 A 
HETATM    8  C13 UNL     1      25.048   0.680  53.225  1.00  0.00     0.107 A 
HETATM    9  C15 UNL     1      25.274   1.586  52.212  1.00  0.00     0.058 A 
HETATM   10  C16 UNL     1      24.289   1.962  51.300  1.00  0.00     0.049 A 
ENDROOT
BRANCH   1  11
HETATM   11  O3  UNL     1      25.756   3.352  50.256  1.00  0.00    -0.291 OA
BRANCH  11  12
HETATM   12  C6  UNL     1      26.079   4.549  49.667  1.00  0.00     0.078 A 
HETATM   13  C5  UNL     1      25.491   5.779  49.573  1.00  0.00     0.039 A 
HETATM   14  C4  UNL     1      26.087   6.812  48.889  1.00  0.00     0.032 A 
HETATM   15  C3  UNL     1      27.307   6.662  48.265  1.00  0.00     0.037 A 
HETATM   16  C18 UNL     1      27.939   5.431  48.335  1.00  0.00     0.032 A 
HETATM   17  C17 UNL     1      27.320   4.392  49.034  1.00  0.00     0.039 A 
BRANCH  15  18
HETATM   18  N1  UNL     1      27.779   7.830  47.604  1.00  0.00    -0.303 N 
HETATM   19  C2  UNL     1      28.837   8.647  48.087  1.00  0.00     0.364 C 
HETATM   20  O2  UNL     1      29.493   8.456  49.146  1.00  0.00    -0.238 OA
HETATM   21  H4  UNL     1      27.278   8.050  46.715  1.00  0.00     0.171 HD
BRANCH  19  22
HETATM   22  O1  UNL     1      29.159   9.738  47.318  1.00  0.00    -0.309 OA
HETATM   23  C1  UNL     1      28.178  10.549  46.661  1.00  0.00     0.215 C 
ENDBRANCH  19  22
ENDBRANCH  15  18
ENDBRANCH  11  12
ENDBRANCH   1  11
BRANCH   8  24
HETATM   24  O5  UNL     1      26.068   0.352  54.094  1.00  0.00    -0.325 OA
BRANCH  24  25
HETATM   25  P1  UNL     1      27.672  -0.092  53.596  1.00  0.00     0.016 P 
HETATM   26  C14 UNL     1      28.924   1.233  53.807  1.00  0.00     0.072 C 
HETATM   27  H12 UNL     1      28.075  -1.385  54.065  1.00  0.00     0.087 HD
ENDBRANCH  24  25
ENDBRANCH   8  24
BRANCH   7  28
HETATM   28  O4  UNL     1      23.620  -0.803  54.401  1.00  0.00    -0.353 OA
HETATM   29  C12 UNL     1      22.339  -1.216  54.827  1.00  0.00     0.210 C 
ENDBRANCH   7  28
TORSDOF 7
ENDMDL
MODEL 5
REMARK VINA RESULT:      -7.1      2.868      4.143
REMARK  7 active torsions:
REMARK  status: ('A' for Active; 'I' for Inactive)
REMARK    1  A    between atoms: O1_2  and  C2_3 
REMARK       I    between atoms: C2_3  and  N1_5 
REMARK    2  A    between atoms: N1_5  and  C3_6 
REMARK    3  A    between atoms: C6_9  and  O3_10 
REMARK    4  A    between atoms: O3_10  and  C7_11 
REMARK    5  A    between atoms: C11_17  and  O4_18 
REMARK    6  A    between atoms: C13_20  and  O5_21 
REMARK    7  A    between atoms: O5_21  and  P1_22 
ROOT
HETATM    1  C7  UNL     1      22.261   1.701  50.961  1.00  0.00     0.183 A 
HETATM    2  N2  UNL     1      20.946   1.583  51.095  1.00  0.00    -0.217 NA
HETATM    3  C8  UNL     1      20.370   0.850  52.057  1.00  0.00     0.236 A 
HETATM    4  N3  UNL     1      21.131   0.185  52.954  1.00  0.00    -0.241 NA
HETATM    5  C9  UNL     1      22.483   0.242  52.903  1.00  0.00     0.075 A 
HETATM    6  C10 UNL     1      23.146  -0.475  53.865  1.00  0.00     0.072 A 
HETATM    7  C11 UNL     1      24.523  -0.422  53.820  1.00  0.00     0.104 A 
HETATM    8  C13 UNL     1      25.168   0.317  52.852  1.00  0.00     0.107 A 
HETATM    9  C15 UNL     1      24.434   1.011  51.916  1.00  0.00     0.058 A 
HETATM   10  C16 UNL     1      23.040   1.009  51.895  1.00  0.00     0.049 A 
ENDROOT
BRANCH   1  11
HETATM   11  O3  UNL     1      23.044   2.377  50.077  1.00  0.00    -0.291 OA
BRANCH  11  12
HETATM   12  C6  UNL     1      23.562   3.614  50.370  1.00  0.00     0.078 A 
HETATM   13  C5  UNL     1      23.229   4.635  51.216  1.00  0.00     0.039 A 
HETATM   14  C4  UNL     1      23.974   5.789  51.282  1.00  0.00     0.032 A 
HETATM   15  C3  UNL     1      25.094   5.975  50.499  1.00  0.00     0.037 A 
HETATM   16  C18 UNL     1      25.467   4.966  49.627  1.00  0.00     0.032 A 
HETATM   17  C17 UNL     1      24.700   3.800  49.573  1.00  0.00     0.039 A 
BRANCH  15  18
HETATM   18  N1  UNL     1      25.746   7.226  50.693  1.00  0.00    -0.303 N 
HETATM   19  C2  UNL     1      25.578   8.352  49.843  1.00  0.00     0.364 C 
HETATM   20  O2  UNL     1      24.844   8.402  48.820  1.00  0.00    -0.238 OA
HETATM   21  H4  UNL     1      26.374   7.255  51.526  1.00  0.00     0.171 HD
BRANCH  19  22
HETATM   22  O1  UNL     1      26.287   9.478  50.182  1.00  0.00    -0.309 OA
HETATM   23  C1  UNL     1      27.693   9.617  49.942  1.00  0.00     0.215 C 
ENDBRANCH  19  22
ENDBRANCH  15  18
ENDBRANCH  11  12
ENDBRANCH   1  11
BRANCH   8  24
HETATM   24  O5  UNL     1      26.546   0.362  52.816  1.00  0.00    -0.325 OA
BRANCH  24  25
HETATM   25  P1  UNL     1      27.480   1.823  52.930  1.00  0.00     0.016 P 
HETATM   26  C14 UNL     1      28.992   1.677  53.960  1.00  0.00     0.072 C 
HETATM   27  H12 UNL     1      27.669   2.477  51.669  1.00  0.00     0.087 HD
ENDBRANCH  24  25
ENDBRANCH   8  24
BRANCH   7  28
HETATM   28  O4  UNL     1      25.301  -1.107  54.744  1.00  0.00    -0.353 OA
HETATM   29  C12 UNL     1      25.079  -1.019  56.135  1.00  0.00     0.210 C 
ENDBRANCH   7  28
TORSDOF 7
ENDMDL
MODEL 6
REMARK VINA RESULT:      -7.1      2.474      3.430
REMARK  7 active torsions:
REMARK  status: ('A' for Active; 'I' for Inactive)
REMARK    1  A    between atoms: O1_2  and  C2_3 
REMARK       I    between atoms: C2_3  and  N1_5 
REMARK    2  A    between atoms: N1_5  and  C3_6 
REMARK    3  A    between atoms: C6_9  and  O3_10 
REMARK    4  A    between atoms: O3_10  and  C7_11 
REMARK    5  A    between atoms: C11_17  and  O4_18 
REMARK    6  A    between atoms: C13_20  and  O5_21 
REMARK    7  A    between atoms: O5_21  and  P1_22 
ROOT
HETATM    1  C7  UNL     1      24.314   2.986  50.035  1.00  0.00     0.183 A 
HETATM    2  N2  UNL     1      23.294   3.173  49.207  1.00  0.00    -0.217 NA
HETATM    3  C8  UNL     1      22.115   2.551  49.343  1.00  0.00     0.236 A 
HETATM    4  N3  UNL     1      21.917   1.684  50.361  1.00  0.00    -0.241 NA
HETATM    5  C9  UNL     1      22.896   1.425  51.260  1.00  0.00     0.075 A 
HETATM    6  C10 UNL     1      22.577   0.529  52.246  1.00  0.00     0.072 A 
HETATM    7  C11 UNL     1      23.569   0.260  53.166  1.00  0.00     0.104 A 
HETATM    8  C13 UNL     1      24.800   0.872  53.074  1.00  0.00     0.107 A 
HETATM    9  C15 UNL     1      25.048   1.762  52.053  1.00  0.00     0.058 A 
HETATM   10  C16 UNL     1      24.099   2.088  51.085  1.00  0.00     0.049 A 
ENDROOT
BRANCH   1  11
HETATM   11  O3  UNL     1      25.573   3.502  50.083  1.00  0.00    -0.291 OA
BRANCH  11  12
HETATM   12  C6  UNL     1      25.849   4.774  49.651  1.00  0.00     0.078 A 
HETATM   13  C5  UNL     1      26.723   5.334  48.761  1.00  0.00     0.039 A 
HETATM   14  C4  UNL     1      26.759   6.690  48.541  1.00  0.00     0.032 A 
HETATM   15  C3  UNL     1      25.917   7.556  49.207  1.00  0.00     0.037 A 
HETATM   16  C18 UNL     1      25.016   7.032  50.119  1.00  0.00     0.032 A 
HETATM   17  C17 UNL     1      24.992   5.651  50.330  1.00  0.00     0.039 A 
BRANCH  15  18
HETATM   18  N1  UNL     1      26.087   8.926  48.861  1.00  0.00    -0.303 N 
HETATM   19  C2  UNL     1      26.877   9.844  49.606  1.00  0.00     0.364 C 
HETATM   20  O2  UNL     1      27.523   9.580  50.655  1.00  0.00    -0.238 OA
HETATM   21  H4  UNL     1      25.576   9.215  47.998  1.00  0.00     0.171 HD
BRANCH  19  22
HETATM   22  O1  UNL     1      26.927  11.129  49.125  1.00  0.00    -0.309 OA
HETATM   23  C1  UNL     1      26.153  11.576  48.005  1.00  0.00     0.215 C 
ENDBRANCH  19  22
ENDBRANCH  15  18
ENDBRANCH  11  12
ENDBRANCH   1  11
BRANCH   8  24
HETATM   24  O5  UNL     1      25.785   0.595  53.999  1.00  0.00    -0.325 OA
BRANCH  24  25
HETATM   25  P1  UNL     1      27.296  -0.173  53.619  1.00  0.00     0.016 P 
HETATM   26  C14 UNL     1      28.623   0.115  54.854  1.00  0.00     0.072 C 
HETATM   27  H12 UNL     1      27.151  -1.534  53.193  1.00  0.00     0.087 HD
ENDBRANCH  24  25
ENDBRANCH   8  24
BRANCH   7  28
HETATM   28  O4  UNL     1      23.361  -0.632  54.210  1.00  0.00    -0.353 OA
HETATM   29  C12 UNL     1      22.089  -0.838  54.789  1.00  0.00     0.210 C 
ENDBRANCH   7  28
TORSDOF 7
ENDMDL
MODEL 7
REMARK VINA RESULT:      -6.9      4.625      7.940
REMARK  7 active torsions:
REMARK  status: ('A' for Active; 'I' for Inactive)
REMARK    1  A    between atoms: O1_2  and  C2_3 
REMARK       I    between atoms: C2_3  and  N1_5 
REMARK    2  A    between atoms: N1_5  and  C3_6 
REMARK    3  A    between atoms: C6_9  and  O3_10 
REMARK    4  A    between atoms: O3_10  and  C7_11 
REMARK    5  A    between atoms: C11_17  and  O4_18 
REMARK    6  A    between atoms: C13_20  and  O5_21 
REMARK    7  A    between atoms: O5_21  and  P1_22 
ROOT
HETATM    1  C7  UNL     1      23.626  -0.568  53.417  1.00  0.00     0.183 A 
HETATM    2  N2  UNL     1      23.401  -1.177  54.574  1.00  0.00    -0.217 NA
HETATM    3  C8  UNL     1      24.294  -1.209  55.573  1.00  0.00     0.236 A 
HETATM    4  N3  UNL     1      25.493  -0.602  55.432  1.00  0.00    -0.241 NA
HETATM    5  C9  UNL     1      25.820   0.047  54.289  1.00  0.00     0.075 A 
HETATM    6  C10 UNL     1      27.063   0.622  54.265  1.00  0.00     0.072 A 
HETATM    7  C11 UNL     1      27.403   1.285  53.105  1.00  0.00     0.104 A 
HETATM    8  C13 UNL     1      26.523   1.349  52.046  1.00  0.00     0.107 A 
HETATM    9  C15 UNL     1      25.289   0.746  52.143  1.00  0.00     0.058 A 
HETATM   10  C16 UNL     1      24.870   0.057  53.282  1.00  0.00     0.049 A 
ENDROOT
BRANCH   1  11
HETATM   11  O3  UNL     1      22.878  -0.415  52.291  1.00  0.00    -0.291 OA
BRANCH  11  12
HETATM   12  C6  UNL     1      21.807   0.443  52.246  1.00  0.00     0.078 A 
HETATM   13  C5  UNL     1      21.265   1.371  53.091  1.00  0.00     0.039 A 
HETATM   14  C4  UNL     1      20.149   2.096  52.746  1.00  0.00     0.032 A 
HETATM   15  C3  UNL     1      19.519   1.923  51.531  1.00  0.00     0.037 A 
HETATM   16  C18 UNL     1      20.034   0.993  50.645  1.00  0.00     0.032 A 
HETATM   17  C17 UNL     1      21.169   0.265  51.011  1.00  0.00     0.039 A 
BRANCH  15  18
HETATM   18  N1  UNL     1      18.379   2.753  51.337  1.00  0.00    -0.303 N 
HETATM   19  C2  UNL     1      17.036   2.303  51.460  1.00  0.00     0.364 C 
HETATM   20  O2  UNL     1      16.673   1.132  51.751  1.00  0.00    -0.238 OA
HETATM   21  H4  UNL     1      18.606   3.741  51.091  1.00  0.00     0.171 HD
BRANCH  19  22
HETATM   22  O1  UNL     1      16.060   3.242  51.236  1.00  0.00    -0.309 OA
HETATM   23  C1  UNL     1      16.081   4.141  50.120  1.00  0.00     0.215 C 
ENDBRANCH  19  22
ENDBRANCH  15  18
ENDBRANCH  11  12
ENDBRANCH   1  11
BRANCH   8  24
HETATM   24  O5  UNL     1      26.873   2.015  50.890  1.00  0.00    -0.325 OA
BRANCH  24  25
HETATM   25  P1  UNL     1      26.108   3.470  50.329  1.00  0.00     0.016 P 
HETATM   26  C14 UNL     1      24.445   3.216  49.596  1.00  0.00     0.072 C 
HETATM   27  H12 UNL     1      26.199   4.556  51.259  1.00  0.00     0.087 HD
ENDBRANCH  24  25
ENDBRANCH   8  24
BRANCH   7  28
HETATM   28  O4  UNL     1      28.637   1.907  52.965  1.00  0.00    -0.353 OA
HETATM   29  C12 UNL     1      29.417   2.301  54.073  1.00  0.00     0.210 C 
ENDBRANCH   7  28
TORSDOF 7
ENDMDL
MODEL 8
REMARK VINA RESULT:      -6.8      2.535      3.605
REMARK  7 active torsions:
REMARK  status: ('A' for Active; 'I' for Inactive)
REMARK    1  A    between atoms: O1_2  and  C2_3 
REMARK       I    between atoms: C2_3  and  N1_5 
REMARK    2  A    between atoms: N1_5  and  C3_6 
REMARK    3  A    between atoms: C6_9  and  O3_10 
REMARK    4  A    between atoms: O3_10  and  C7_11 
REMARK    5  A    between atoms: C11_17  and  O4_18 
REMARK    6  A    between atoms: C13_20  and  O5_21 
REMARK    7  A    between atoms: O5_21  and  P1_22 
ROOT
HETATM    1  C7  UNL     1      23.295   0.853  52.055  1.00  0.00     0.183 A 
HETATM    2  N2  UNL     1      24.304   0.413  52.795  1.00  0.00    -0.217 NA
HETATM    3  C8  UNL     1      24.148  -0.433  53.822  1.00  0.00     0.236 A 
HETATM    4  N3  UNL     1      22.917  -0.883  54.151  1.00  0.00    -0.241 NA
HETATM    5  C9  UNL     1      21.821  -0.493  53.457  1.00  0.00     0.075 A 
HETATM    6  C10 UNL     1      20.628  -1.015  53.885  1.00  0.00     0.072 A 
HETATM    7  C11 UNL     1      19.508  -0.623  53.183  1.00  0.00     0.104 A 
HETATM    8  C13 UNL     1      19.611   0.245  52.119  1.00  0.00     0.107 A 
HETATM    9  C15 UNL     1      20.845   0.730  51.746  1.00  0.00     0.058 A 
HETATM   10  C16 UNL     1      22.025   0.381  52.404  1.00  0.00     0.049 A 
ENDROOT
BRANCH   1  11
HETATM   11  O3  UNL     1      23.227   1.696  50.989  1.00  0.00    -0.291 OA
BRANCH  11  12
HETATM   12  C6  UNL     1      23.595   3.014  51.087  1.00  0.00     0.078 A 
HETATM   13  C5  UNL     1      23.109   4.118  51.731  1.00  0.00     0.039 A 
HETATM   14  C4  UNL     1      23.724   5.342  51.628  1.00  0.00     0.032 A 
HETATM   15  C3  UNL     1      24.863   5.522  50.871  1.00  0.00     0.037 A 
HETATM   16  C18 UNL     1      25.390   4.430  50.200  1.00  0.00     0.032 A 
HETATM   17  C17 UNL     1      24.753   3.192  50.316  1.00  0.00     0.039 A 
BRANCH  15  18
HETATM   18  N1  UNL     1      25.369   6.852  50.874  1.00  0.00    -0.303 N 
HETATM   19  C2  UNL     1      25.383   7.702  49.735  1.00  0.00     0.364 C 
HETATM   20  O2  UNL     1      24.958   7.404  48.586  1.00  0.00    -0.238 OA
HETATM   21  H4  UNL     1      25.740   7.166  51.797  1.00  0.00     0.171 HD
BRANCH  19  22
HETATM   22  O1  UNL     1      25.910   8.955  49.920  1.00  0.00    -0.309 OA
HETATM   23  C1  UNL     1      27.298   9.187  50.193  1.00  0.00     0.215 C 
ENDBRANCH  19  22
ENDBRANCH  15  18
ENDBRANCH  11  12
ENDBRANCH   1  11
BRANCH   8  24
HETATM   24  O5  UNL     1      18.484   0.630  51.424  1.00  0.00    -0.325 OA
BRANCH  24  25
HETATM   25  P1  UNL     1      17.932   2.273  51.288  1.00  0.00     0.016 P 
HETATM   26  C14 UNL     1      16.194   2.443  50.725  1.00  0.00     0.072 C 
HETATM   27  H12 UNL     1      18.287   3.086  52.412  1.00  0.00     0.087 HD
ENDBRANCH  24  25
ENDBRANCH   8  24
BRANCH   7  28
HETATM   28  O4  UNL     1      18.244  -1.088  53.525  1.00  0.00    -0.353 OA
HETATM   29  C12 UNL     1      17.947  -2.463  53.636  1.00  0.00     0.210 C 
ENDBRANCH   7  28
TORSDOF 7
ENDMDL
MODEL 9
REMARK VINA RESULT:      -6.8      2.647      3.747
REMARK  7 active torsions:
REMARK  status: ('A' for Active; 'I' for Inactive)
REMARK    1  A    between atoms: O1_2  and  C2_3 
REMARK       I    between atoms: C2_3  and  N1_5 
REMARK    2  A    between atoms: N1_5  and  C3_6 
REMARK    3  A    between atoms: C6_9  and  O3_10 
REMARK    4  A    between atoms: O3_10  and  C7_11 
REMARK    5  A    between atoms: C11_17  and  O4_18 
REMARK    6  A    between atoms: C13_20  and  O5_21 
REMARK    7  A    between atoms: O5_21  and  P1_22 
ROOT
HETATM    1  C7  UNL     1      22.130   3.026  50.463  1.00  0.00     0.183 A 
HETATM    2  N2  UNL     1      21.091   3.847  50.373  1.00  0.00    -0.217 NA
HETATM    3  C8  UNL     1      20.071   3.837  51.241  1.00  0.00     0.236 A 
HETATM    4  N3  UNL     1      20.064   2.965  52.273  1.00  0.00    -0.241 NA
HETATM    5  C9  UNL     1      21.079   2.086  52.453  1.00  0.00     0.075 A 
HETATM    6  C10 UNL     1      20.960   1.252  53.534  1.00  0.00     0.072 A 
HETATM    7  C11 UNL     1      21.989   0.354  53.723  1.00  0.00     0.104 A 
HETATM    8  C13 UNL     1      23.063   0.320  52.860  1.00  0.00     0.107 A 
HETATM    9  C15 UNL     1      23.113   1.190  51.794  1.00  0.00     0.058 A 
HETATM   10  C16 UNL     1      22.114   2.127  51.534  1.00  0.00     0.049 A 
ENDROOT
BRANCH   1  11
HETATM   11  O3  UNL     1      23.250   2.866  49.708  1.00  0.00    -0.291 OA
BRANCH  11  12
HETATM   12  C6  UNL     1      24.032   3.932  49.340  1.00  0.00     0.078 A 
HETATM   13  C5  UNL     1      23.807   5.163  48.790  1.00  0.00     0.039 A 
HETATM   14  C4  UNL     1      24.836   6.037  48.532  1.00  0.00     0.032 A 
HETATM   15  C3  UNL     1      26.147   5.718  48.816  1.00  0.00     0.037 A 
HETATM   16  C18 UNL     1      26.422   4.481  49.374  1.00  0.00     0.032 A 
HETATM   17  C17 UNL     1      25.364   3.604  49.630  1.00  0.00     0.039 A 
BRANCH  15  18
HETATM   18  N1  UNL     1      27.086   6.737  48.486  1.00  0.00    -0.303 N 
HETATM   19  C2  UNL     1      27.259   7.933  49.233  1.00  0.00     0.364 C 
HETATM   20  O2  UNL     1      26.619   8.255  50.271  1.00  0.00    -0.238 OA
HETATM   21  H4  UNL     1      27.652   6.536  47.633  1.00  0.00     0.171 HD
BRANCH  19  22
HETATM   22  O1  UNL     1      28.211   8.806  48.768  1.00  0.00    -0.309 OA
HETATM   23  C1  UNL     1      28.067   9.542  47.547  1.00  0.00     0.215 C 
ENDBRANCH  19  22
ENDBRANCH  15  18
ENDBRANCH  11  12
ENDBRANCH   1  11
BRANCH   8  24
HETATM   24  O5  UNL     1      24.087  -0.582  53.060  1.00  0.00    -0.325 OA
BRANCH  24  25
HETATM   25  P1  UNL     1      25.771  -0.157  53.107  1.00  0.00     0.016 P 
HETATM   26  C14 UNL     1      26.421   0.175  54.790  1.00  0.00     0.072 C 
HETATM   27  H12 UNL     1      26.594  -1.004  52.297  1.00  0.00     0.087 HD
ENDBRANCH  24  25
ENDBRANCH   8  24
BRANCH   7  28
HETATM   28  O4  UNL     1      21.978  -0.541  54.785  1.00  0.00    -0.353 OA
HETATM   29  C12 UNL     1      21.369  -1.812  54.699  1.00  0.00     0.210 C 
ENDBRANCH   7  28
TORSDOF 7
ENDMDL
