MODEL 1
REMARK VINA RESULT:      -8.0      0.000      0.000
REMARK  4 active torsions:
REMARK  status: ('A' for Active; 'I' for Inactive)
REMARK    1  A    between atoms: C2_2  and  O1_3 
REMARK    2  A    between atoms: C2_2  and  C3_4 
REMARK    3  A    between atoms: C7_8  and  N1_9 
REMARK       I    between atoms: N1_9  and  C8_10 
REMARK    4  A    between atoms: C8_10  and  C9_12 
ROOT
HETATM    1  N1  UNL     1      24.986  -0.718  52.489  1.00  0.00    -0.324 N 
HETATM    2  C8  UNL     1      24.314  -0.557  53.760  1.00  0.00     0.247 C 
HETATM    3  O2  UNL     1      25.246  -0.676  54.635  1.00  0.00    -0.268 OA
HETATM    4  H9  UNL     1      24.361  -0.650  51.646  1.00  0.00     0.169 HD
ENDROOT
BRANCH   2   5
HETATM    5  C9  UNL     1      22.865  -0.309  53.959  1.00  0.00     0.104 C 
HETATM    6  C10 UNL     1      22.060   0.623  53.451  1.00  0.00     0.038 C 
HETATM    7  C11 UNL     1      22.709   1.557  52.548  1.00  0.00     0.042 C 
HETATM    8  N2  UNL     1      20.723   0.543  53.894  1.00  0.00    -0.366 N 
HETATM    9  C12 UNL     1      21.914   2.609  52.397  1.00  0.00    -0.024 C 
HETATM   10  P1  UNL     1      20.714   2.198  51.314  1.00  0.00    -0.093 P 
HETATM   11  C13 UNL     1      19.742   0.755  51.871  1.00  0.00     0.125 C 
HETATM   12  C14 UNL     1      18.810  -0.164  51.681  1.00  0.00    -0.014 C 
HETATM   13  C15 UNL     1      18.810  -0.954  52.905  1.00  0.00     0.014 C 
HETATM   14  C16 UNL     1      19.737  -0.399  53.648  1.00  0.00     0.088 C 
HETATM   15  H16 UNL     1      20.808   1.397  54.426  1.00  0.00     0.165 HD
ENDBRANCH   2   5
BRANCH   1  16
HETATM   16  C7  UNL     1      26.381  -0.937  52.790  1.00  0.00     0.035 A 
HETATM   17  C6  UNL     1      26.954  -2.201  52.633  1.00  0.00     0.029 A 
HETATM   18  C5  UNL     1      28.295  -2.270  52.957  1.00  0.00     0.003 A 
HETATM   19  C4  UNL     1      29.023  -1.184  53.401  1.00  0.00     0.010 A 
HETATM   20  C3  UNL     1      28.425   0.048  53.544  1.00  0.00    -0.028 A 
HETATM   21  C17 UNL     1      27.088   0.169  53.234  1.00  0.00     0.039 A 
BRANCH  20  22
HETATM   22  C2  UNL     1      29.171   1.230  54.015  1.00  0.00     0.147 C 
HETATM   23  C1  UNL     1      28.652   2.510  53.397  1.00  0.00     0.044 C 
BRANCH  22  24
HETATM   24  O1  UNL     1      29.076   1.378  55.407  1.00  0.00    -0.391 OA
HETATM   25  H5  UNL     1      29.365   0.530  55.805  1.00  0.00     0.210 HD
ENDBRANCH  22  24
ENDBRANCH  20  22
ENDBRANCH   1  16
TORSDOF 4
ENDMDL
MODEL 2
REMARK VINA RESULT:      -7.8      4.154      6.279
REMARK  4 active torsions:
REMARK  status: ('A' for Active; 'I' for Inactive)
REMARK    1  A    between atoms: C2_2  and  O1_3 
REMARK    2  A    between atoms: C2_2  and  C3_4 
REMARK    3  A    between atoms: C7_8  and  N1_9 
REMARK       I    between atoms: N1_9  and  C8_10 
REMARK    4  A    between atoms: C8_10  and  C9_12 
ROOT
HETATM    1  N1  UNL     1      23.204   2.470  51.667  1.00  0.00    -0.324 N 
HETATM    2  C8  UNL     1      23.577   3.658  52.404  1.00  0.00     0.247 C 
HETATM    3  O2  UNL     1      24.248   3.220  53.407  1.00  0.00    -0.268 OA
HETATM    4  H9  UNL     1      22.638   2.647  50.799  1.00  0.00     0.169 HD
ENDROOT
BRANCH   2   5
HETATM    5  C9  UNL     1      23.236   5.056  52.041  1.00  0.00     0.104 C 
HETATM    6  C10 UNL     1      23.789   5.891  51.162  1.00  0.00     0.038 C 
HETATM    7  C11 UNL     1      24.919   5.341  50.434  1.00  0.00     0.042 C 
HETATM    8  N2  UNL     1      23.186   7.165  51.108  1.00  0.00    -0.366 N 
HETATM    9  C12 UNL     1      25.580   6.346  49.873  1.00  0.00    -0.024 C 
HETATM   10  P1  UNL     1      24.754   6.805  48.499  1.00  0.00    -0.093 P 
HETATM   11  C13 UNL     1      23.036   7.311  48.860  1.00  0.00     0.125 C 
HETATM   12  C14 UNL     1      21.830   7.693  48.474  1.00  0.00    -0.014 C 
HETATM   13  C15 UNL     1      21.080   7.866  49.712  1.00  0.00     0.014 C 
HETATM   14  C16 UNL     1      21.938   7.563  50.655  1.00  0.00     0.088 C 
HETATM   15  H16 UNL     1      23.995   7.607  51.518  1.00  0.00     0.165 HD
ENDBRANCH   2   5
BRANCH   1  16
HETATM   16  C7  UNL     1      23.754   1.351  52.394  1.00  0.00     0.035 A 
HETATM   17  C6  UNL     1      25.069   0.937  52.176  1.00  0.00     0.029 A 
HETATM   18  C5  UNL     1      25.468  -0.145  52.937  1.00  0.00     0.003 A 
HETATM   19  C4  UNL     1      24.641  -0.776  53.846  1.00  0.00     0.010 A 
HETATM   20  C3  UNL     1      23.348  -0.341  54.035  1.00  0.00    -0.028 A 
HETATM   21  C17 UNL     1      22.903   0.735  53.299  1.00  0.00     0.039 A 
BRANCH  20  22
HETATM   22  C2  UNL     1      22.437  -0.989  54.996  1.00  0.00     0.147 C 
HETATM   23  C1  UNL     1      21.350  -1.780  54.301  1.00  0.00     0.044 C 
BRANCH  22  24
HETATM   24  O1  UNL     1      23.121  -1.881  55.835  1.00  0.00    -0.391 OA
HETATM   25  H5  UNL     1      23.130  -2.751  55.381  1.00  0.00     0.210 HD
ENDBRANCH  22  24
ENDBRANCH  20  22
ENDBRANCH   1  16
TORSDOF 4
ENDMDL
MODEL 3
REMARK VINA RESULT:      -7.7      4.445      6.484
REMARK  4 active torsions:
REMARK  status: ('A' for Active; 'I' for Inactive)
REMARK    1  A    between atoms: C2_2  and  O1_3 
REMARK    2  A    between atoms: C2_2  and  C3_4 
REMARK    3  A    between atoms: C7_8  and  N1_9 
REMARK       I    between atoms: N1_9  and  C8_10 
REMARK    4  A    between atoms: C8_10  and  C9_12 
ROOT
HETATM    1  N1  UNL     1      26.944   2.682  52.243  1.00  0.00    -0.324 N 
HETATM    2  C8  UNL     1      26.471   2.717  50.876  1.00  0.00     0.247 C 
HETATM    3  O2  UNL     1      26.040   1.528  50.653  1.00  0.00    -0.268 OA
HETATM    4  H9  UNL     1      27.339   3.590  52.597  1.00  0.00     0.169 HD
ENDROOT
BRANCH   2   5
HETATM    5  C9  UNL     1      26.498   3.891  49.969  1.00  0.00     0.104 C 
HETATM    6  C10 UNL     1      25.653   4.913  49.838  1.00  0.00     0.038 C 
HETATM    7  C11 UNL     1      24.510   4.874  50.734  1.00  0.00     0.042 C 
HETATM    8  N2  UNL     1      26.014   5.844  48.842  1.00  0.00    -0.366 N 
HETATM    9  C12 UNL     1      23.595   5.719  50.277  1.00  0.00    -0.024 C 
HETATM   10  P1  UNL     1      24.050   7.261  50.720  1.00  0.00    -0.093 P 
HETATM   11  C13 UNL     1      25.697   7.712  50.071  1.00  0.00     0.125 C 
HETATM   12  C14 UNL     1      26.724   8.539  49.976  1.00  0.00    -0.014 C 
HETATM   13  C15 UNL     1      27.661   7.870  49.084  1.00  0.00     0.014 C 
HETATM   14  C16 UNL     1      27.065   6.745  48.774  1.00  0.00     0.088 C 
HETATM   15  H16 UNL     1      25.238   5.575  48.255  1.00  0.00     0.165 HD
ENDBRANCH   2   5
BRANCH   1  16
HETATM   16  C7  UNL     1      26.715   1.339  52.719  1.00  0.00     0.035 A 
HETATM   17  C6  UNL     1      25.480   0.976  53.259  1.00  0.00     0.029 A 
HETATM   18  C5  UNL     1      25.397  -0.339  53.676  1.00  0.00     0.003 A 
HETATM   19  C4  UNL     1      26.444  -1.233  53.572  1.00  0.00     0.010 A 
HETATM   20  C3  UNL     1      27.649  -0.840  53.034  1.00  0.00    -0.028 A 
HETATM   21  C17 UNL     1      27.783   0.462  52.604  1.00  0.00     0.039 A 
BRANCH  20  22
HETATM   22  C2  UNL     1      28.789  -1.766  52.907  1.00  0.00     0.147 C 
HETATM   23  C1  UNL     1      29.933  -1.385  53.822  1.00  0.00     0.044 C 
BRANCH  22  24
HETATM   24  O1  UNL     1      28.424  -3.081  53.233  1.00  0.00    -0.391 OA
HETATM   25  H5  UNL     1      27.880  -3.419  52.490  1.00  0.00     0.210 HD
ENDBRANCH  22  24
ENDBRANCH  20  22
ENDBRANCH   1  16
TORSDOF 4
ENDMDL
MODEL 4
REMARK VINA RESULT:      -7.7      4.299      5.790
REMARK  4 active torsions:
REMARK  status: ('A' for Active; 'I' for Inactive)
REMARK    1  A    between atoms: C2_2  and  O1_3 
REMARK    2  A    between atoms: C2_2  and  C3_4 
REMARK    3  A    between atoms: C7_8  and  N1_9 
REMARK       I    between atoms: N1_9  and  C8_10 
REMARK    4  A    between atoms: C8_10  and  C9_12 
ROOT
HETATM    1  N1  UNL     1      25.569   3.115  52.078  1.00  0.00    -0.324 N 
HETATM    2  C8  UNL     1      26.078   3.385  50.750  1.00  0.00     0.247 C 
HETATM    3  O2  UNL     1      26.791   2.357  50.463  1.00  0.00    -0.268 OA
HETATM    4  H9  UNL     1      24.954   3.868  52.478  1.00  0.00     0.169 HD
ENDROOT
BRANCH   2   5
HETATM    5  C9  UNL     1      25.807   4.596  49.938  1.00  0.00     0.104 C 
HETATM    6  C10 UNL     1      24.745   4.942  49.212  1.00  0.00     0.038 C 
HETATM    7  C11 UNL     1      23.667   3.968  49.213  1.00  0.00     0.042 C 
HETATM    8  N2  UNL     1      24.865   6.187  48.560  1.00  0.00    -0.366 N 
HETATM    9  C12 UNL     1      22.850   4.252  48.206  1.00  0.00    -0.024 C 
HETATM   10  P1  UNL     1      21.875   5.521  48.675  1.00  0.00    -0.093 P 
HETATM   11  C13 UNL     1      22.839   7.003  49.135  1.00  0.00     0.125 C 
HETATM   12  C14 UNL     1      22.925   8.235  49.608  1.00  0.00    -0.014 C 
HETATM   13  C15 UNL     1      24.345   8.557  49.555  1.00  0.00     0.014 C 
HETATM   14  C16 UNL     1      24.903   7.478  49.061  1.00  0.00     0.088 C 
HETATM   15  H16 UNL     1      24.914   5.749  47.651  1.00  0.00     0.165 HD
ENDBRANCH   2   5
BRANCH   1  16
HETATM   16  C7  UNL     1      26.095   1.826  52.462  1.00  0.00     0.035 A 
HETATM   17  C6  UNL     1      25.391   0.656  52.174  1.00  0.00     0.029 A 
HETATM   18  C5  UNL     1      26.007  -0.507  52.597  1.00  0.00     0.003 A 
HETATM   19  C4  UNL     1      27.222  -0.523  53.252  1.00  0.00     0.010 A 
HETATM   20  C3  UNL     1      27.889   0.652  53.520  1.00  0.00    -0.028 A 
HETATM   21  C17 UNL     1      27.316   1.838  53.119  1.00  0.00     0.039 A 
BRANCH  20  22
HETATM   22  C2  UNL     1      29.188   0.673  54.217  1.00  0.00     0.147 C 
HETATM   23  C1  UNL     1      30.181  -0.284  53.595  1.00  0.00     0.044 C 
BRANCH  22  24
HETATM   24  O1  UNL     1      29.771   1.948  54.182  1.00  0.00    -0.391 OA
HETATM   25  H5  UNL     1      29.046   2.598  54.298  1.00  0.00     0.210 HD
ENDBRANCH  22  24
ENDBRANCH  20  22
ENDBRANCH   1  16
TORSDOF 4
ENDMDL
MODEL 5
REMARK VINA RESULT:      -7.6      3.268      4.719
REMARK  4 active torsions:
REMARK  status: ('A' for Active; 'I' for Inactive)
REMARK    1  A    between atoms: C2_2  and  O1_3 
REMARK    2  A    between atoms: C2_2  and  C3_4 
REMARK    3  A    between atoms: C7_8  and  N1_9 
REMARK       I    between atoms: N1_9  and  C8_10 
REMARK    4  A    between atoms: C8_10  and  C9_12 
ROOT
HETATM    1  N1  UNL     1      26.314   2.539  52.912  1.00  0.00    -0.324 N 
HETATM    2  C8  UNL     1      26.275   2.680  51.472  1.00  0.00     0.247 C 
HETATM    3  O2  UNL     1      27.158   1.853  51.042  1.00  0.00    -0.268 OA
HETATM    4  H9  UNL     1      25.642   3.155  53.435  1.00  0.00     0.169 HD
ENDROOT
BRANCH   2   5
HETATM    5  C9  UNL     1      25.392   3.593  50.705  1.00  0.00     0.104 C 
HETATM    6  C10 UNL     1      24.127   3.458  50.311  1.00  0.00     0.038 C 
HETATM    7  C11 UNL     1      23.503   2.204  50.695  1.00  0.00     0.042 C 
HETATM    8  N2  UNL     1      23.624   4.554  49.577  1.00  0.00    -0.366 N 
HETATM    9  C12 UNL     1      22.406   2.045  49.964  1.00  0.00    -0.024 C 
HETATM   10  P1  UNL     1      21.203   2.992  50.625  1.00  0.00    -0.093 P 
HETATM   11  C13 UNL     1      21.665   4.758  50.682  1.00  0.00     0.125 C 
HETATM   12  C14 UNL     1      21.430   6.012  51.031  1.00  0.00    -0.014 C 
HETATM   13  C15 UNL     1      22.578   6.759  50.535  1.00  0.00     0.014 C 
HETATM   14  C16 UNL     1      23.333   5.852  49.964  1.00  0.00     0.088 C 
HETATM   15  H16 UNL     1      23.586   4.014  48.725  1.00  0.00     0.165 HD
ENDBRANCH   2   5
BRANCH   1  16
HETATM   16  C7  UNL     1      27.319   1.542  53.196  1.00  0.00     0.035 A 
HETATM   17  C6  UNL     1      28.600   1.918  53.602  1.00  0.00     0.029 A 
HETATM   18  C5  UNL     1      29.462   0.865  53.840  1.00  0.00     0.003 A 
HETATM   19  C4  UNL     1      29.098  -0.459  53.693  1.00  0.00     0.010 A 
HETATM   20  C3  UNL     1      27.825  -0.793  53.290  1.00  0.00    -0.028 A 
HETATM   21  C17 UNL     1      26.927   0.221  53.039  1.00  0.00     0.039 A 
BRANCH  20  22
HETATM   22  C2  UNL     1      27.400  -2.195  53.122  1.00  0.00     0.147 C 
HETATM   23  C1  UNL     1      26.565  -2.388  51.875  1.00  0.00     0.044 C 
BRANCH  22  24
HETATM   24  O1  UNL     1      28.501  -3.059  53.016  1.00  0.00    -0.391 OA
HETATM   25  H5  UNL     1      29.293  -2.497  52.880  1.00  0.00     0.210 HD
ENDBRANCH  22  24
ENDBRANCH  20  22
ENDBRANCH   1  16
TORSDOF 4
ENDMDL
MODEL 6
REMARK VINA RESULT:      -7.4      4.351      6.771
REMARK  4 active torsions:
REMARK  status: ('A' for Active; 'I' for Inactive)
REMARK    1  A    between atoms: C2_2  and  O1_3 
REMARK    2  A    between atoms: C2_2  and  C3_4 
REMARK    3  A    between atoms: C7_8  and  N1_9 
REMARK       I    between atoms: N1_9  and  C8_10 
REMARK    4  A    between atoms: C8_10  and  C9_12 
ROOT
HETATM    1  N1  UNL     1      25.544   2.967  52.639  1.00  0.00    -0.324 N 
HETATM    2  C8  UNL     1      26.121   2.694  51.340  1.00  0.00     0.247 C 
HETATM    3  O2  UNL     1      26.300   1.422  51.327  1.00  0.00    -0.268 OA
HETATM    4  H9  UNL     1      25.329   3.980  52.823  1.00  0.00     0.169 HD
ENDROOT
BRANCH   2   5
HETATM    5  C9  UNL     1      26.420   3.694  50.286  1.00  0.00     0.104 C 
HETATM    6  C10 UNL     1      25.614   4.384  49.482  1.00  0.00     0.038 C 
HETATM    7  C11 UNL     1      24.199   4.112  49.664  1.00  0.00     0.042 C 
HETATM    8  N2  UNL     1      26.281   5.246  48.586  1.00  0.00    -0.366 N 
HETATM    9  C12 UNL     1      23.547   4.573  48.603  1.00  0.00    -0.024 C 
HETATM   10  P1  UNL     1      23.382   6.223  48.775  1.00  0.00    -0.093 P 
HETATM   11  C13 UNL     1      24.993   7.068  48.935  1.00  0.00     0.125 C 
HETATM   12  C14 UNL     1      25.724   8.151  49.141  1.00  0.00    -0.014 C 
HETATM   13  C15 UNL     1      27.104   7.691  49.051  1.00  0.00     0.014 C 
HETATM   14  C16 UNL     1      27.003   6.408  48.807  1.00  0.00     0.088 C 
HETATM   15  H16 UNL     1      26.024   4.680  47.790  1.00  0.00     0.165 HD
ENDBRANCH   2   5
BRANCH   1  16
HETATM   16  C7  UNL     1      25.438   1.695  53.313  1.00  0.00     0.035 A 
HETATM   17  C6  UNL     1      26.492   1.213  54.092  1.00  0.00     0.029 A 
HETATM   18  C5  UNL     1      26.259  -0.015  54.681  1.00  0.00     0.003 A 
HETATM   19  C4  UNL     1      25.082  -0.720  54.520  1.00  0.00     0.010 A 
HETATM   20  C3  UNL     1      24.063  -0.213  53.744  1.00  0.00    -0.028 A 
HETATM   21  C17 UNL     1      24.247   1.009  53.135  1.00  0.00     0.039 A 
BRANCH  20  22
HETATM   22  C2  UNL     1      22.793  -0.937  53.549  1.00  0.00     0.147 C 
HETATM   23  C1  UNL     1      21.900  -0.851  54.768  1.00  0.00     0.044 C 
BRANCH  22  24
HETATM   24  O1  UNL     1      22.064  -0.418  52.469  1.00  0.00    -0.391 OA
HETATM   25  H5  UNL     1      22.499  -0.738  51.650  1.00  0.00     0.210 HD
ENDBRANCH  22  24
ENDBRANCH  20  22
ENDBRANCH   1  16
TORSDOF 4
ENDMDL
MODEL 7
REMARK VINA RESULT:      -7.4      5.815      8.704
REMARK  4 active torsions:
REMARK  status: ('A' for Active; 'I' for Inactive)
REMARK    1  A    between atoms: C2_2  and  O1_3 
REMARK    2  A    between atoms: C2_2  and  C3_4 
REMARK    3  A    between atoms: C7_8  and  N1_9 
REMARK       I    between atoms: N1_9  and  C8_10 
REMARK    4  A    between atoms: C8_10  and  C9_12 
ROOT
HETATM    1  N1  UNL     1      25.858   4.535  50.571  1.00  0.00    -0.324 N 
HETATM    2  C8  UNL     1      26.753   4.086  49.526  1.00  0.00     0.247 C 
HETATM    3  O2  UNL     1      26.473   2.843  49.373  1.00  0.00    -0.268 OA
HETATM    4  H9  UNL     1      25.953   5.550  50.829  1.00  0.00     0.169 HD
ENDROOT
BRANCH   2   5
HETATM    5  C9  UNL     1      27.756   4.917  48.815  1.00  0.00     0.104 C 
HETATM    6  C10 UNL     1      27.655   6.121  48.254  1.00  0.00     0.038 C 
HETATM    7  C11 UNL     1      26.338   6.726  48.353  1.00  0.00     0.042 C 
HETATM    8  N2  UNL     1      28.842   6.586  47.652  1.00  0.00    -0.366 N 
HETATM    9  C12 UNL     1      26.272   7.723  47.479  1.00  0.00    -0.024 C 
HETATM   10  P1  UNL     1      27.065   9.036  48.133  1.00  0.00    -0.093 P 
HETATM   11  C13 UNL     1      28.809   8.666  48.530  1.00  0.00     0.125 C 
HETATM   12  C14 UNL     1      29.981   8.998  49.045  1.00  0.00    -0.014 C 
HETATM   13  C15 UNL     1      30.830   7.836  48.819  1.00  0.00     0.014 C 
HETATM   14  C16 UNL     1      30.051   6.980  48.205  1.00  0.00     0.088 C 
HETATM   15  H16 UNL     1      28.451   6.500  46.725  1.00  0.00     0.165 HD
ENDBRANCH   2   5
BRANCH   1  16
HETATM   16  C7  UNL     1      25.072   3.387  50.955  1.00  0.00     0.035 A 
HETATM   17  C6  UNL     1      23.872   3.095  50.303  1.00  0.00     0.029 A 
HETATM   18  C5  UNL     1      23.221   1.970  50.770  1.00  0.00     0.003 A 
HETATM   19  C4  UNL     1      23.707   1.187  51.798  1.00  0.00     0.010 A 
HETATM   20  C3  UNL     1      24.895   1.505  52.419  1.00  0.00    -0.028 A 
HETATM   21  C17 UNL     1      25.582   2.619  51.990  1.00  0.00     0.039 A 
BRANCH  20  22
HETATM   22  C2  UNL     1      25.445   0.693  53.520  1.00  0.00     0.147 C 
HETATM   23  C1  UNL     1      26.247  -0.484  53.010  1.00  0.00     0.044 C 
BRANCH  22  24
HETATM   24  O1  UNL     1      26.297   1.446  54.341  1.00  0.00    -0.391 OA
HETATM   25  H5  UNL     1      27.205   1.342  53.982  1.00  0.00     0.210 HD
ENDBRANCH  22  24
ENDBRANCH  20  22
ENDBRANCH   1  16
TORSDOF 4
ENDMDL
MODEL 8
REMARK VINA RESULT:      -7.3      4.786      7.078
REMARK  4 active torsions:
REMARK  status: ('A' for Active; 'I' for Inactive)
REMARK    1  A    between atoms: C2_2  and  O1_3 
REMARK    2  A    between atoms: C2_2  and  C3_4 
REMARK    3  A    between atoms: C7_8  and  N1_9 
REMARK       I    between atoms: N1_9  and  C8_10 
REMARK    4  A    between atoms: C8_10  and  C9_12 
ROOT
HETATM    1  N1  UNL     1      24.647   3.674  52.285  1.00  0.00    -0.324 N 
HETATM    2  C8  UNL     1      24.920   3.615  50.865  1.00  0.00     0.247 C 
HETATM    3  O2  UNL     1      24.579   2.426  50.520  1.00  0.00    -0.268 OA
HETATM    4  H9  UNL     1      24.873   4.594  52.741  1.00  0.00     0.169 HD
ENDROOT
BRANCH   2   5
HETATM    5  C9  UNL     1      25.473   4.711  50.033  1.00  0.00     0.104 C 
HETATM    6  C10 UNL     1      24.880   5.759  49.462  1.00  0.00     0.038 C 
HETATM    7  C11 UNL     1      23.449   5.845  49.693  1.00  0.00     0.042 C 
HETATM    8  N2  UNL     1      25.749   6.591  48.724  1.00  0.00    -0.366 N 
HETATM    9  C12 UNL     1      22.936   6.695  48.811  1.00  0.00    -0.024 C 
HETATM   10  P1  UNL     1      23.244   8.244  49.349  1.00  0.00    -0.093 P 
HETATM   11  C13 UNL     1      25.031   8.562  49.559  1.00  0.00     0.125 C 
HETATM   12  C14 UNL     1      26.039   9.329  49.936  1.00  0.00    -0.014 C 
HETATM   13  C15 UNL     1      27.233   8.548  49.641  1.00  0.00     0.014 C 
HETATM   14  C16 UNL     1      26.772   7.431  49.134  1.00  0.00     0.088 C 
HETATM   15  H16 UNL     1      25.331   6.313  47.848  1.00  0.00     0.165 HD
ENDBRANCH   2   5
BRANCH   1  16
HETATM   16  C7  UNL     1      24.122   2.381  52.653  1.00  0.00     0.035 A 
HETATM   17  C6  UNL     1      22.749   2.130  52.605  1.00  0.00     0.029 A 
HETATM   18  C5  UNL     1      22.383   0.853  52.984  1.00  0.00     0.003 A 
HETATM   19  C4  UNL     1      23.292  -0.109  53.380  1.00  0.00     0.010 A 
HETATM   20  C3  UNL     1      24.639   0.175  53.415  1.00  0.00    -0.028 A 
HETATM   21  C17 UNL     1      25.055   1.435  53.048  1.00  0.00     0.039 A 
BRANCH  20  22
HETATM   22  C2  UNL     1      25.639  -0.826  53.833  1.00  0.00     0.147 C 
HETATM   23  C1  UNL     1      26.704  -1.037  52.779  1.00  0.00     0.044 C 
BRANCH  22  24
HETATM   24  O1  UNL     1      26.297  -0.438  55.009  1.00  0.00    -0.391 OA
HETATM   25  H5  UNL     1      26.752  -1.234  55.358  1.00  0.00     0.210 HD
ENDBRANCH  22  24
ENDBRANCH  20  22
ENDBRANCH   1  16
TORSDOF 4
ENDMDL
MODEL 9
REMARK VINA RESULT:      -7.3      3.743      4.940
REMARK  4 active torsions:
REMARK  status: ('A' for Active; 'I' for Inactive)
REMARK    1  A    between atoms: C2_2  and  O1_3 
REMARK    2  A    between atoms: C2_2  and  C3_4 
REMARK    3  A    between atoms: C7_8  and  N1_9 
REMARK       I    between atoms: N1_9  and  C8_10 
REMARK    4  A    between atoms: C8_10  and  C9_12 
ROOT
HETATM    1  N1  UNL     1      24.429   2.247  51.864  1.00  0.00    -0.324 N 
HETATM    2  C8  UNL     1      24.102   3.399  52.676  1.00  0.00     0.247 C 
HETATM    3  O2  UNL     1      24.613   3.139  53.825  1.00  0.00    -0.268 OA
HETATM    4  H9  UNL     1      24.080   2.291  50.873  1.00  0.00     0.169 HD
ENDROOT
BRANCH   2   5
HETATM    5  C9  UNL     1      23.341   4.594  52.236  1.00  0.00     0.104 C 
HETATM    6  C10 UNL     1      23.634   5.535  51.339  1.00  0.00     0.038 C 
HETATM    7  C11 UNL     1      24.917   5.365  50.680  1.00  0.00     0.042 C 
HETATM    8  N2  UNL     1      22.651   6.537  51.202  1.00  0.00    -0.366 N 
HETATM    9  C12 UNL     1      25.241   6.513  50.097  1.00  0.00    -0.024 C 
HETATM   10  P1  UNL     1      24.380   6.629  48.673  1.00  0.00    -0.093 P 
HETATM   11  C13 UNL     1      22.576   6.552  48.946  1.00  0.00     0.125 C 
HETATM   12  C14 UNL     1      21.332   6.504  48.498  1.00  0.00    -0.014 C 
HETATM   13  C15 UNL     1      20.506   6.460  49.697  1.00  0.00     0.014 C 
HETATM   14  C16 UNL     1      21.366   6.488  50.685  1.00  0.00     0.088 C 
HETATM   15  H16 UNL     1      23.249   7.235  51.621  1.00  0.00     0.165 HD
ENDBRANCH   2   5
BRANCH   1  16
HETATM   16  C7  UNL     1      25.172   1.347  52.713  1.00  0.00     0.035 A 
HETATM   17  C6  UNL     1      24.545   0.252  53.310  1.00  0.00     0.029 A 
HETATM   18  C5  UNL     1      25.371  -0.527  54.098  1.00  0.00     0.003 A 
HETATM   19  C4  UNL     1      26.712  -0.254  54.288  1.00  0.00     0.010 A 
HETATM   20  C3  UNL     1      27.297   0.835  53.683  1.00  0.00    -0.028 A 
HETATM   21  C17 UNL     1      26.515   1.644  52.887  1.00  0.00     0.039 A 
BRANCH  20  22
HETATM   22  C2  UNL     1      28.725   1.157  53.862  1.00  0.00     0.147 C 
HETATM   23  C1  UNL     1      29.620   0.003  53.465  1.00  0.00     0.044 C 
BRANCH  22  24
HETATM   24  O1  UNL     1      29.107   2.259  53.082  1.00  0.00    -0.391 OA
HETATM   25  H5  UNL     1      28.673   3.049  53.470  1.00  0.00     0.210 HD
ENDBRANCH  22  24
ENDBRANCH  20  22
ENDBRANCH   1  16
TORSDOF 4
ENDMDL
