MODEL 1
REMARK VINA RESULT:      -7.9      0.000      0.000
REMARK  2 active torsions:
REMARK  status: ('A' for Active; 'I' for Inactive)
REMARK    1  A    between atoms: C10_14  and  O3_15 
REMARK    2  A    between atoms: O3_15  and  C11_16 
ROOT
HETATM    1  C1  UNL     1      23.848  -1.642  55.644  1.00  0.00     0.071 C 
HETATM    2  C2  UNL     1      22.878  -0.897  54.813  1.00  0.00     0.047 A 
HETATM    3  N1  UNL     1      21.542  -0.992  54.958  1.00  0.00    -0.246 NA
HETATM    4  C3  UNL     1      20.739  -0.265  54.143  1.00  0.00     0.233 A 
HETATM    5  N2  UNL     1      21.241   0.560  53.179  1.00  0.00    -0.244 NA
HETATM    6  C4  UNL     1      22.563   0.676  53.013  1.00  0.00     0.070 A 
HETATM    7  C5  UNL     1      23.376  -0.062  53.839  1.00  0.00     0.050 A 
HETATM    8  C6  UNL     1      24.811   0.085  53.645  1.00  0.00     0.115 A 
HETATM    9  C7  UNL     1      25.167   0.920  52.686  1.00  0.00     0.111 A 
HETATM   10  O1  UNL     1      26.536   1.071  52.486  1.00  0.00    -0.348 OA
HETATM   11  C8  UNL     1      27.508   0.196  53.037  1.00  0.00     0.202 C 
HETATM   12  C9  UNL     1      27.120  -0.257  54.416  1.00  0.00     0.202 C 
HETATM   13  O2  UNL     1      25.743  -0.580  54.385  1.00  0.00    -0.345 OA
HETATM   14  C10 UNL     1      24.398   1.783  51.719  1.00  0.00     0.204 A 
HETATM   15  C12 UNL     1      22.920   1.617  51.909  1.00  0.00     0.077 A 
HETATM   16  C13 UNL     1      22.291   2.929  52.241  1.00  0.00     0.004 A 
HETATM   17  C14 UNL     1      21.395   3.669  51.602  1.00  0.00     0.050 A 
HETATM   18  S1  UNL     1      20.765   3.061  50.044  1.00  0.00    -0.073 SA
HETATM   19  C15 UNL     1      21.458   1.439  49.765  1.00  0.00     0.154 A 
HETATM   20  F1  UNL     1      21.168   0.608  48.735  1.00  0.00    -0.198 F 
HETATM   21  C16 UNL     1      22.341   1.033  50.669  1.00  0.00     0.046 A 
ENDROOT
BRANCH  14  22
HETATM   22  O3  UNL     1      24.834   3.101  51.789  1.00  0.00    -0.363 OA
BRANCH  22  23
HETATM   23  C11 UNL     1      25.534   3.523  50.692  1.00  0.00     0.283 C 
HETATM   24 CL1  UNL     1      24.403   3.705  49.332  1.00  0.00    -0.102 Cl
ENDBRANCH  22  23
ENDBRANCH  14  22
TORSDOF 2
ENDMDL
MODEL 2
REMARK VINA RESULT:      -7.6      1.693      2.132
REMARK  2 active torsions:
REMARK  status: ('A' for Active; 'I' for Inactive)
REMARK    1  A    between atoms: C10_14  and  O3_15 
REMARK    2  A    between atoms: O3_15  and  C11_16 
ROOT
HETATM    1  C1  UNL     1      21.262  -0.432  54.480  1.00  0.00     0.071 C 
HETATM    2  C2  UNL     1      21.095   0.589  53.424  1.00  0.00     0.047 A 
HETATM    3  N1  UNL     1      19.906   1.122  53.081  1.00  0.00    -0.246 NA
HETATM    4  C3  UNL     1      19.861   2.054  52.097  1.00  0.00     0.233 A 
HETATM    5  N2  UNL     1      20.983   2.468  51.441  1.00  0.00    -0.244 NA
HETATM    6  C4  UNL     1      22.177   1.958  51.759  1.00  0.00     0.070 A 
HETATM    7  C5  UNL     1      22.221   1.014  52.757  1.00  0.00     0.050 A 
HETATM    8  C6  UNL     1      23.532   0.477  53.092  1.00  0.00     0.115 A 
HETATM    9  C7  UNL     1      24.537   0.966  52.389  1.00  0.00     0.111 A 
HETATM   10  O1  UNL     1      25.798   0.463  52.695  1.00  0.00    -0.348 OA
HETATM   11  C8  UNL     1      26.005  -0.700  53.482  1.00  0.00     0.202 C 
HETATM   12  C9  UNL     1      25.002  -0.797  54.596  1.00  0.00     0.202 C 
HETATM   13  O2  UNL     1      23.736  -0.464  54.057  1.00  0.00    -0.345 OA
HETATM   14  C10 UNL     1      24.636   1.988  51.286  1.00  0.00     0.204 A 
HETATM   15  C12 UNL     1      23.282   2.526  50.931  1.00  0.00     0.077 A 
HETATM   16  C13 UNL     1      23.248   4.006  51.124  1.00  0.00     0.004 A 
HETATM   17  C14 UNL     1      23.072   5.007  50.272  1.00  0.00     0.050 A 
HETATM   18  S1  UNL     1      22.821   4.605  48.549  1.00  0.00    -0.073 SA
HETATM   19  C15 UNL     1      22.749   2.827  48.403  1.00  0.00     0.154 A 
HETATM   20  F1  UNL     1      22.491   2.124  47.273  1.00  0.00    -0.198 F 
HETATM   21  C16 UNL     1      22.973   2.153  49.524  1.00  0.00     0.046 A 
ENDROOT
BRANCH  14  22
HETATM   22  O3  UNL     1      25.568   2.967  51.610  1.00  0.00    -0.363 OA
BRANCH  22  23
HETATM   23  C11 UNL     1      26.711   2.927  50.860  1.00  0.00     0.283 C 
HETATM   24 CL1  UNL     1      26.417   3.784  49.330  1.00  0.00    -0.102 Cl
ENDBRANCH  22  23
ENDBRANCH  14  22
TORSDOF 2
ENDMDL
MODEL 3
REMARK VINA RESULT:      -7.4      3.091      4.405
REMARK  2 active torsions:
REMARK  status: ('A' for Active; 'I' for Inactive)
REMARK    1  A    between atoms: C10_14  and  O3_15 
REMARK    2  A    between atoms: O3_15  and  C11_16 
ROOT
HETATM    1  C1  UNL     1      25.542  -0.844  53.930  1.00  0.00     0.071 C 
HETATM    2  C2  UNL     1      25.635   0.270  52.962  1.00  0.00     0.047 A 
HETATM    3  N1  UNL     1      26.783   0.649  52.368  1.00  0.00    -0.246 NA
HETATM    4  C3  UNL     1      26.761   1.685  51.493  1.00  0.00     0.233 A 
HETATM    5  N2  UNL     1      25.612   2.357  51.195  1.00  0.00    -0.244 NA
HETATM    6  C4  UNL     1      24.456   2.002  51.768  1.00  0.00     0.070 A 
HETATM    7  C5  UNL     1      24.481   0.952  52.654  1.00  0.00     0.050 A 
HETATM    8  C6  UNL     1      23.211   0.580  53.260  1.00  0.00     0.115 A 
HETATM    9  C7  UNL     1      22.172   1.302  52.882  1.00  0.00     0.111 A 
HETATM   10  O1  UNL     1      20.950   0.960  53.453  1.00  0.00    -0.348 OA
HETATM   11  C8  UNL     1      20.826   0.108  54.581  1.00  0.00     0.202 C 
HETATM   12  C9  UNL     1      21.836  -1.003  54.545  1.00  0.00     0.202 C 
HETATM   13  O2  UNL     1      23.074  -0.438  54.157  1.00  0.00    -0.345 OA
HETATM   14  C10 UNL     1      22.000   2.461  51.934  1.00  0.00     0.204 A 
HETATM   15  C12 UNL     1      23.313   2.854  51.324  1.00  0.00     0.077 A 
HETATM   16  C13 UNL     1      23.245   2.745  49.838  1.00  0.00     0.004 A 
HETATM   17  C14 UNL     1      23.349   3.654  48.876  1.00  0.00     0.050 A 
HETATM   18  S1  UNL     1      23.623   5.353  49.357  1.00  0.00    -0.073 SA
HETATM   19  C15 UNL     1      23.818   5.398  51.132  1.00  0.00     0.154 A 
HETATM   20  F1  UNL     1      24.121   6.489  51.879  1.00  0.00    -0.198 F 
HETATM   21  C16 UNL     1      23.643   4.240  51.755  1.00  0.00     0.046 A 
ENDROOT
BRANCH  14  22
HETATM   22  O3  UNL     1      21.003   2.187  51.005  1.00  0.00    -0.363 OA
BRANCH  22  23
HETATM   23  C11 UNL     1      19.858   2.914  51.175  1.00  0.00     0.283 C 
HETATM   24 CL1  UNL     1      20.195   4.610  50.759  1.00  0.00    -0.102 Cl
ENDBRANCH  22  23
ENDBRANCH  14  22
TORSDOF 2
ENDMDL
MODEL 4
REMARK VINA RESULT:      -7.3      2.782      4.220
REMARK  2 active torsions:
REMARK  status: ('A' for Active; 'I' for Inactive)
REMARK    1  A    between atoms: C10_14  and  O3_15 
REMARK    2  A    between atoms: O3_15  and  C11_16 
ROOT
HETATM    1  C1  UNL     1      27.270   0.458  53.470  1.00  0.00     0.071 C 
HETATM    2  C2  UNL     1      26.515   1.287  52.506  1.00  0.00     0.047 A 
HETATM    3  N1  UNL     1      27.097   2.112  51.614  1.00  0.00    -0.246 NA
HETATM    4  C3  UNL     1      26.313   2.830  50.773  1.00  0.00     0.233 A 
HETATM    5  N2  UNL     1      24.951   2.745  50.801  1.00  0.00    -0.244 NA
HETATM    6  C4  UNL     1      24.345   1.934  51.676  1.00  0.00     0.070 A 
HETATM    7  C5  UNL     1      25.141   1.207  52.528  1.00  0.00     0.050 A 
HETATM    8  C6  UNL     1      24.461   0.326  53.466  1.00  0.00     0.115 A 
HETATM    9  C7  UNL     1      23.143   0.329  53.386  1.00  0.00     0.111 A 
HETATM   10  O1  UNL     1      22.476  -0.507  54.277  1.00  0.00    -0.348 OA
HETATM   11  C8  UNL     1      23.100  -1.108  55.401  1.00  0.00     0.202 C 
HETATM   12  C9  UNL     1      24.513  -1.516  55.093  1.00  0.00     0.202 C 
HETATM   13  O2  UNL     1      25.113  -0.457  54.372  1.00  0.00    -0.345 OA
HETATM   14  C10 UNL     1      22.154   1.060  52.516  1.00  0.00     0.204 A 
HETATM   15  C12 UNL     1      22.857   1.980  51.562  1.00  0.00     0.077 A 
HETATM   16  C13 UNL     1      22.521   1.619  50.154  1.00  0.00     0.004 A 
HETATM   17  C14 UNL     1      21.888   2.283  49.195  1.00  0.00     0.050 A 
HETATM   18  S1  UNL     1      21.291   3.925  49.569  1.00  0.00    -0.073 SA
HETATM   19  C15 UNL     1      21.830   4.345  51.219  1.00  0.00     0.154 A 
HETATM   20  F1  UNL     1      21.651   5.535  51.844  1.00  0.00    -0.198 F 
HETATM   21  C16 UNL     1      22.466   3.382  51.874  1.00  0.00     0.046 A 
ENDROOT
BRANCH  14  22
HETATM   22  O3  UNL     1      21.287   0.163  51.903  1.00  0.00    -0.363 OA
BRANCH  22  23
HETATM   23  C11 UNL     1      19.969   0.349  52.215  1.00  0.00     0.283 C 
HETATM   24 CL1  UNL     1      19.045   0.515  50.705  1.00  0.00    -0.102 Cl
ENDBRANCH  22  23
ENDBRANCH  14  22
TORSDOF 2
ENDMDL
MODEL 5
REMARK VINA RESULT:      -6.9      3.043      4.547
REMARK  2 active torsions:
REMARK  status: ('A' for Active; 'I' for Inactive)
REMARK    1  A    between atoms: C10_14  and  O3_15 
REMARK    2  A    between atoms: O3_15  and  C11_16 
ROOT
HETATM    1  C1  UNL     1      27.089   1.343  52.673  1.00  0.00     0.071 C 
HETATM    2  C2  UNL     1      26.406   2.149  51.639  1.00  0.00     0.047 A 
HETATM    3  N1  UNL     1      27.041   3.024  50.834  1.00  0.00    -0.246 NA
HETATM    4  C3  UNL     1      26.321   3.716  49.916  1.00  0.00     0.233 A 
HETATM    5  N2  UNL     1      24.973   3.554  49.782  1.00  0.00    -0.244 NA
HETATM    6  C4  UNL     1      24.316   2.693  50.566  1.00  0.00     0.070 A 
HETATM    7  C5  UNL     1      25.047   1.993  51.496  1.00  0.00     0.050 A 
HETATM    8  C6  UNL     1      24.312   1.056  52.333  1.00  0.00     0.115 A 
HETATM    9  C7  UNL     1      23.015   0.987  52.098  1.00  0.00     0.111 A 
HETATM   10  O1  UNL     1      22.297   0.097  52.891  1.00  0.00    -0.348 OA
HETATM   11  C8  UNL     1      22.817  -0.493  54.072  1.00  0.00     0.202 C 
HETATM   12  C9  UNL     1      24.278  -0.816  53.928  1.00  0.00     0.202 C 
HETATM   13  O2  UNL     1      24.897   0.291  53.299  1.00  0.00    -0.345 OA
HETATM   14  C10 UNL     1      22.095   1.681  51.127  1.00  0.00     0.204 A 
HETATM   15  C12 UNL     1      22.851   2.659  50.277  1.00  0.00     0.077 A 
HETATM   16  C13 UNL     1      22.705   2.310  48.833  1.00  0.00     0.004 A 
HETATM   17  C14 UNL     1      22.152   2.959  47.816  1.00  0.00     0.050 A 
HETATM   18  S1  UNL     1      21.422   4.557  48.141  1.00  0.00    -0.073 SA
HETATM   19  C15 UNL     1      21.738   4.970  49.849  1.00  0.00     0.154 A 
HETATM   20  F1  UNL     1      21.418   6.135  50.466  1.00  0.00    -0.198 F 
HETATM   21  C16 UNL     1      22.346   4.030  50.561  1.00  0.00     0.046 A 
ENDROOT
BRANCH  14  22
HETATM   22  O3  UNL     1      21.359   0.751  50.402  1.00  0.00    -0.363 OA
BRANCH  22  23
HETATM   23  C11 UNL     1      20.027   0.722  50.709  1.00  0.00     0.283 C 
HETATM   24 CL1  UNL     1      19.218   2.052  49.849  1.00  0.00    -0.102 Cl
ENDBRANCH  22  23
ENDBRANCH  14  22
TORSDOF 2
ENDMDL
MODEL 6
REMARK VINA RESULT:      -6.5      1.619      2.189
REMARK  2 active torsions:
REMARK  status: ('A' for Active; 'I' for Inactive)
REMARK    1  A    between atoms: C10_14  and  O3_15 
REMARK    2  A    between atoms: O3_15  and  C11_16 
ROOT
HETATM    1  C1  UNL     1      25.281  -0.683  53.951  1.00  0.00     0.071 C 
HETATM    2  C2  UNL     1      23.877  -0.337  53.639  1.00  0.00     0.047 A 
HETATM    3  N1  UNL     1      22.817  -1.011  54.125  1.00  0.00    -0.246 NA
HETATM    4  C3  UNL     1      21.568  -0.613  53.778  1.00  0.00     0.233 A 
HETATM    5  N2  UNL     1      21.351   0.450  52.950  1.00  0.00    -0.244 NA
HETATM    6  C4  UNL     1      22.384   1.139  52.453  1.00  0.00     0.070 A 
HETATM    7  C5  UNL     1      23.649   0.733  52.806  1.00  0.00     0.050 A 
HETATM    8  C6  UNL     1      24.758   1.502  52.259  1.00  0.00     0.115 A 
HETATM    9  C7  UNL     1      24.414   2.510  51.479  1.00  0.00     0.111 A 
HETATM   10  O1  UNL     1      25.462   3.254  50.946  1.00  0.00    -0.348 OA
HETATM   11  C8  UNL     1      26.815   2.825  50.965  1.00  0.00     0.202 C 
HETATM   12  C9  UNL     1      27.143   2.099  52.239  1.00  0.00     0.202 C 
HETATM   13  O2  UNL     1      26.067   1.222  52.516  1.00  0.00    -0.345 OA
HETATM   14  C10 UNL     1      23.091   3.062  51.014  1.00  0.00     0.204 A 
HETATM   15  C12 UNL     1      21.951   2.259  51.565  1.00  0.00     0.077 A 
HETATM   16  C13 UNL     1      21.050   3.128  52.376  1.00  0.00     0.004 A 
HETATM   17  C14 UNL     1      19.780   3.479  52.221  1.00  0.00     0.050 A 
HETATM   18  S1  UNL     1      18.903   2.838  50.803  1.00  0.00    -0.073 SA
HETATM   19  C15 UNL     1      19.991   1.712  49.945  1.00  0.00     0.154 A 
HETATM   20  F1  UNL     1      19.675   0.957  48.864  1.00  0.00    -0.198 F 
HETATM   21  C16 UNL     1      21.222   1.625  50.433  1.00  0.00     0.046 A 
ENDROOT
BRANCH  14  22
HETATM   22  O3  UNL     1      23.009   4.423  51.285  1.00  0.00    -0.363 OA
BRANCH  22  23
HETATM   23  C11 UNL     1      22.626   5.189  50.219  1.00  0.00     0.283 C 
HETATM   24 CL1  UNL     1      21.445   6.394  50.780  1.00  0.00    -0.102 Cl
ENDBRANCH  22  23
ENDBRANCH  14  22
TORSDOF 2
ENDMDL
MODEL 7
REMARK VINA RESULT:      -6.3      2.810      3.780
REMARK  2 active torsions:
REMARK  status: ('A' for Active; 'I' for Inactive)
REMARK    1  A    between atoms: C10_14  and  O3_15 
REMARK    2  A    between atoms: O3_15  and  C11_16 
ROOT
HETATM    1  C1  UNL     1      22.163   1.077  53.102  1.00  0.00     0.071 C 
HETATM    2  C2  UNL     1      21.746   2.168  52.195  1.00  0.00     0.047 A 
HETATM    3  N1  UNL     1      20.471   2.583  52.064  1.00  0.00    -0.246 NA
HETATM    4  C3  UNL     1      20.193   3.593  51.203  1.00  0.00     0.233 A 
HETATM    5  N2  UNL     1      21.165   4.202  50.464  1.00  0.00    -0.244 NA
HETATM    6  C4  UNL     1      22.440   3.812  50.573  1.00  0.00     0.070 A 
HETATM    7  C5  UNL     1      22.719   2.788  51.446  1.00  0.00     0.050 A 
HETATM    8  C6  UNL     1      24.113   2.384  51.554  1.00  0.00     0.115 A 
HETATM    9  C7  UNL     1      24.956   3.057  50.792  1.00  0.00     0.111 A 
HETATM   10  O1  UNL     1      26.293   2.683  50.882  1.00  0.00    -0.348 OA
HETATM   11  C8  UNL     1      26.729   1.483  51.502  1.00  0.00     0.202 C 
HETATM   12  C9  UNL     1      25.902   1.158  52.714  1.00  0.00     0.202 C 
HETATM   13  O2  UNL     1      24.547   1.386  52.375  1.00  0.00    -0.345 OA
HETATM   14  C10 UNL     1      24.794   4.185  49.806  1.00  0.00     0.204 A 
HETATM   15  C12 UNL     1      23.354   4.588  49.684  1.00  0.00     0.077 A 
HETATM   16  C13 UNL     1      23.187   6.026  50.043  1.00  0.00     0.004 A 
HETATM   17  C14 UNL     1      22.791   7.077  49.337  1.00  0.00     0.050 A 
HETATM   18  S1  UNL     1      22.353   6.816  47.624  1.00  0.00    -0.073 SA
HETATM   19  C15 UNL     1      22.454   5.065  47.290  1.00  0.00     0.154 A 
HETATM   20  F1  UNL     1      22.122   4.448  46.129  1.00  0.00    -0.198 F 
HETATM   21  C16 UNL     1      22.899   4.318  48.293  1.00  0.00     0.046 A 
ENDROOT
BRANCH  14  22
HETATM   22  O3  UNL     1      25.651   5.234  50.120  1.00  0.00    -0.363 OA
BRANCH  22  23
HETATM   23  C11 UNL     1      26.306   5.768  49.045  1.00  0.00     0.283 C 
HETATM   24 CL1  UNL     1      27.681   4.716  48.638  1.00  0.00    -0.102 Cl
ENDBRANCH  22  23
ENDBRANCH  14  22
TORSDOF 2
ENDMDL
MODEL 8
REMARK VINA RESULT:      -6.3      4.233      6.590
REMARK  2 active torsions:
REMARK  status: ('A' for Active; 'I' for Inactive)
REMARK    1  A    between atoms: C10_14  and  O3_15 
REMARK    2  A    between atoms: O3_15  and  C11_16 
ROOT
HETATM    1  C1  UNL     1      27.385   5.611  48.598  1.00  0.00     0.071 C 
HETATM    2  C2  UNL     1      26.576   4.592  49.300  1.00  0.00     0.047 A 
HETATM    3  N1  UNL     1      27.104   3.532  49.943  1.00  0.00    -0.246 NA
HETATM    4  C3  UNL     1      26.273   2.654  50.557  1.00  0.00     0.233 A 
HETATM    5  N2  UNL     1      24.917   2.809  50.543  1.00  0.00    -0.244 NA
HETATM    6  C4  UNL     1      24.364   3.851  49.914  1.00  0.00     0.070 A 
HETATM    7  C5  UNL     1      25.208   4.740  49.292  1.00  0.00     0.050 A 
HETATM    8  C6  UNL     1      24.585   5.871  48.620  1.00  0.00     0.115 A 
HETATM    9  C7  UNL     1      23.267   5.910  48.687  1.00  0.00     0.111 A 
HETATM   10  O1  UNL     1      22.655   6.984  48.048  1.00  0.00    -0.348 OA
HETATM   11  C8  UNL     1      23.326   7.833  47.130  1.00  0.00     0.202 C 
HETATM   12  C9  UNL     1      24.749   8.076  47.544  1.00  0.00     0.202 C 
HETATM   13  O2  UNL     1      25.288   6.835  47.960  1.00  0.00    -0.345 OA
HETATM   14  C10 UNL     1      22.230   5.021  49.324  1.00  0.00     0.204 A 
HETATM   15  C12 UNL     1      22.874   3.848  50.001  1.00  0.00     0.077 A 
HETATM   16  C13 UNL     1      22.527   3.835  51.453  1.00  0.00     0.004 A 
HETATM   17  C14 UNL     1      21.848   2.971  52.195  1.00  0.00     0.050 A 
HETATM   18  S1  UNL     1      21.186   1.518  51.392  1.00  0.00    -0.073 SA
HETATM   19  C15 UNL     1      21.737   1.529  49.693  1.00  0.00     0.154 A 
HETATM   20  F1  UNL     1      21.517   0.559  48.771  1.00  0.00    -0.198 F 
HETATM   21  C16 UNL     1      22.427   2.601  49.324  1.00  0.00     0.046 A 
ENDROOT
BRANCH  14  22
HETATM   22  O3  UNL     1      21.393   5.763  50.149  1.00  0.00    -0.363 OA
BRANCH  22  23
HETATM   23  C11 UNL     1      20.113   5.890  49.686  1.00  0.00     0.283 C 
HETATM   24 CL1  UNL     1      19.211   4.414  50.098  1.00  0.00    -0.102 Cl
ENDBRANCH  22  23
ENDBRANCH  14  22
TORSDOF 2
ENDMDL
MODEL 9
REMARK VINA RESULT:      -6.3      9.149     10.988
REMARK  2 active torsions:
REMARK  status: ('A' for Active; 'I' for Inactive)
REMARK    1  A    between atoms: C10_14  and  O3_15 
REMARK    2  A    between atoms: O3_15  and  C11_16 
ROOT
HETATM    1  C1  UNL     1      31.759   4.878  47.725  1.00  0.00     0.071 C 
HETATM    2  C2  UNL     1      30.443   5.508  47.967  1.00  0.00     0.047 A 
HETATM    3  N1  UNL     1      29.301   4.812  48.134  1.00  0.00    -0.246 NA
HETATM    4  C3  UNL     1      28.145   5.487  48.350  1.00  0.00     0.233 A 
HETATM    5  N2  UNL     1      28.101   6.850  48.402  1.00  0.00    -0.244 NA
HETATM    6  C4  UNL     1      29.218   7.567  48.240  1.00  0.00     0.070 A 
HETATM    7  C5  UNL     1      30.388   6.881  48.021  1.00  0.00     0.050 A 
HETATM    8  C6  UNL     1      31.593   7.682  47.854  1.00  0.00     0.115 A 
HETATM    9  C7  UNL     1      31.417   8.988  47.934  1.00  0.00     0.111 A 
HETATM   10  O1  UNL     1      32.558   9.768  47.776  1.00  0.00    -0.348 OA
HETATM   11  C8  UNL     1      33.784   9.266  47.269  1.00  0.00     0.202 C 
HETATM   12  C9  UNL     1      34.042   7.864  47.743  1.00  0.00     0.202 C 
HETATM   13  O2  UNL     1      32.827   7.148  47.630  1.00  0.00    -0.345 OA
HETATM   14  C10 UNL     1      30.212   9.864  48.168  1.00  0.00     0.204 A 
HETATM   15  C12 UNL     1      28.970   9.037  48.322  1.00  0.00     0.077 A 
HETATM   16  C13 UNL     1      28.340   9.295  49.650  1.00  0.00     0.004 A 
HETATM   17  C14 UNL     1      27.167   9.814  49.989  1.00  0.00     0.050 A 
HETATM   18  S1  UNL     1      26.070  10.329  48.676  1.00  0.00    -0.073 SA
HETATM   19  C15 UNL     1      26.824   9.883  47.120  1.00  0.00     0.154 A 
HETATM   20  F1  UNL     1      26.275  10.030  45.889  1.00  0.00    -0.198 F 
HETATM   21  C16 UNL     1      28.041   9.359  47.206  1.00  0.00     0.046 A 
ENDROOT
BRANCH  14  22
HETATM   22  O3  UNL     1      30.444  10.740  49.221  1.00  0.00    -0.363 OA
BRANCH  22  23
HETATM   23  C11 UNL     1      30.518  12.056  48.855  1.00  0.00     0.283 C 
HETATM   24 CL1  UNL     1      28.900  12.778  49.006  1.00  0.00    -0.102 Cl
ENDBRANCH  22  23
ENDBRANCH  14  22
TORSDOF 2
ENDMDL
