MODEL 1
REMARK VINA RESULT:      -8.7      0.000      0.000
REMARK  5 active torsions:
REMARK  status: ('A' for Active; 'I' for Inactive)
REMARK    1  A    between atoms: C2_2  and  C3_3 
REMARK    2  A    between atoms: C7_7  and  C8_8 
REMARK    3  A    between atoms: C8_8  and  C9_9 
REMARK    4  A    between atoms: C11_12  and  N2_13 
REMARK    5  A    between atoms: C12_15  and  N4_16 
ROOT
HETATM    1  C3  UNL     1      21.543   0.884  50.871  1.00  0.00    -0.062 C 
HETATM    2  C4  UNL     1      22.604   1.027  51.627  1.00  0.00    -0.015 C 
HETATM    3  C5  UNL     1      23.833   1.215  52.400  1.00  0.00     0.066 C 
HETATM    4  C6  UNL     1      24.366   0.016  53.022  1.00  0.00    -0.056 C 
HETATM    5  C7  UNL     1      25.560  -0.638  52.897  1.00  0.00    -0.015 C 
HETATM    6  C13 UNL     1      23.637  -0.826  53.999  1.00  0.00     0.031 C 
HETATM    7  C14 UNL     1      22.439  -0.884  54.625  1.00  0.00     0.135 C 
HETATM    8  O1  UNL     1      21.114  -0.432  54.940  1.00  0.00    -0.363 OA
HETATM    9  C15 UNL     1      20.113  -0.729  53.918  1.00  0.00     0.178 C 
HETATM   10  C16 UNL     1      19.888   0.501  53.110  1.00  0.00     0.054 C 
HETATM   11  C17 UNL     1      19.169   0.386  51.854  1.00  0.00    -0.024 C 
HETATM   12  C18 UNL     1      20.123   0.608  50.951  1.00  0.00     0.003 C 
ENDROOT
BRANCH   5  13
HETATM   13  C8  UNL     1      26.520  -0.025  51.943  1.00  0.00     0.071 C 
BRANCH  13  14
HETATM   14  C9  UNL     1      27.485   0.766  52.761  1.00  0.00     0.009 A 
HETATM   15  C10 UNL     1      28.220   0.057  53.713  1.00  0.00     0.147 A 
HETATM   16  N1  UNL     1      29.139   0.694  54.469  1.00  0.00    -0.075 NA
HETATM   17  C11 UNL     1      29.374   2.030  54.332  1.00  0.00     0.721 A 
HETATM   18  N3  UNL     1      28.669   2.718  53.420  1.00  0.00    -0.045 NA
HETATM   19  C12 UNL     1      27.755   2.108  52.664  1.00  0.00     0.148 A 
BRANCH  17  20
HETATM   20  N2  UNL     1      30.372   2.453  55.244  1.00  0.00    -0.231 N 
HETATM   21  H13 UNL     1      30.451   2.005  56.196  1.00  0.00     0.174 HD
HETATM   22  H14 UNL     1      30.976   3.204  54.881  1.00  0.00     0.174 HD
ENDBRANCH  17  20
BRANCH  19  23
HETATM   23  N4  UNL     1      27.003   2.832  51.708  1.00  0.00    -0.383 N 
HETATM   24  H15 UNL     1      26.012   2.787  52.034  1.00  0.00     0.157 HD
HETATM   25  H16 UNL     1      27.169   3.367  50.806  1.00  0.00     0.157 HD
ENDBRANCH  19  23
ENDBRANCH  13  14
ENDBRANCH   5  13
BRANCH   1  26
HETATM   26  C2  UNL     1      22.047   1.274  49.545  1.00  0.00     0.034 C 
HETATM   27  C1  UNL     1      20.900   1.659  48.615  1.00  0.00     0.010 C 
ENDBRANCH   1  26
TORSDOF 5
ENDMDL
MODEL 2
REMARK VINA RESULT:      -8.3      2.655      4.115
REMARK  5 active torsions:
REMARK  status: ('A' for Active; 'I' for Inactive)
REMARK    1  A    between atoms: C2_2  and  C3_3 
REMARK    2  A    between atoms: C7_7  and  C8_8 
REMARK    3  A    between atoms: C8_8  and  C9_9 
REMARK    4  A    between atoms: C11_12  and  N2_13 
REMARK    5  A    between atoms: C12_15  and  N4_16 
ROOT
HETATM    1  C3  UNL     1      24.127   4.129  49.677  1.00  0.00    -0.062 C 
HETATM    2  C4  UNL     1      24.105   3.819  50.951  1.00  0.00    -0.015 C 
HETATM    3  C5  UNL     1      24.165   3.495  52.378  1.00  0.00     0.066 C 
HETATM    4  C6  UNL     1      23.878   2.112  52.715  1.00  0.00    -0.056 C 
HETATM    5  C7  UNL     1      24.611   1.141  53.338  1.00  0.00    -0.015 C 
HETATM    6  C13 UNL     1      22.613   1.410  52.398  1.00  0.00     0.031 C 
HETATM    7  C14 UNL     1      21.421   1.641  51.801  1.00  0.00     0.135 C 
HETATM    8  O1  UNL     1      20.446   2.437  51.111  1.00  0.00    -0.363 OA
HETATM    9  C15 UNL     1      20.713   2.622  49.687  1.00  0.00     0.178 C 
HETATM   10  C16 UNL     1      21.328   3.965  49.496  1.00  0.00     0.054 C 
HETATM   11  C17 UNL     1      21.957   4.266  48.222  1.00  0.00    -0.024 C 
HETATM   12  C18 UNL     1      23.251   4.305  48.538  1.00  0.00     0.003 C 
ENDROOT
BRANCH   5  13
HETATM   13  C8  UNL     1      25.973   1.552  53.765  1.00  0.00     0.071 C 
BRANCH  13  14
HETATM   14  C9  UNL     1      26.828   0.331  53.689  1.00  0.00     0.009 A 
HETATM   15  C10 UNL     1      26.269  -0.779  53.055  1.00  0.00     0.147 A 
HETATM   16  N1  UNL     1      26.991  -1.912  52.913  1.00  0.00    -0.075 NA
HETATM   17  C11 UNL     1      28.267  -2.006  53.381  1.00  0.00     0.721 A 
HETATM   18  N3  UNL     1      28.810  -0.943  53.994  1.00  0.00    -0.045 NA
HETATM   19  C12 UNL     1      28.114   0.185  54.144  1.00  0.00     0.148 A 
BRANCH  17  20
HETATM   20  N2  UNL     1      28.796  -3.295  53.117  1.00  0.00    -0.231 N 
HETATM   21  H13 UNL     1      28.634  -4.087  53.794  1.00  0.00     0.174 HD
HETATM   22  H14 UNL     1      29.324  -3.355  52.234  1.00  0.00     0.174 HD
ENDBRANCH  17  20
BRANCH  19  23
HETATM   23  N4  UNL     1      28.679   1.305  54.799  1.00  0.00    -0.383 N 
HETATM   24  H15 UNL     1      29.548   0.955  55.261  1.00  0.00     0.157 HD
HETATM   25  H16 UNL     1      28.464   2.336  54.940  1.00  0.00     0.157 HD
ENDBRANCH  19  23
ENDBRANCH  13  14
ENDBRANCH   5  13
BRANCH   1  26
HETATM   26  C2  UNL     1      25.529   4.529  49.476  1.00  0.00     0.034 C 
HETATM   27  C1  UNL     1      26.466   3.332  49.617  1.00  0.00     0.010 C 
ENDBRANCH   1  26
TORSDOF 5
ENDMDL
MODEL 3
REMARK VINA RESULT:      -8.2      2.039      3.638
REMARK  5 active torsions:
REMARK  status: ('A' for Active; 'I' for Inactive)
REMARK    1  A    between atoms: C2_2  and  C3_3 
REMARK    2  A    between atoms: C7_7  and  C8_8 
REMARK    3  A    between atoms: C8_8  and  C9_9 
REMARK    4  A    between atoms: C11_12  and  N2_13 
REMARK    5  A    between atoms: C12_15  and  N4_16 
ROOT
HETATM    1  C3  UNL     1      20.794   0.474  52.790  1.00  0.00    -0.062 C 
HETATM    2  C4  UNL     1      22.099   0.505  52.669  1.00  0.00    -0.015 C 
HETATM    3  C5  UNL     1      23.562   0.519  52.618  1.00  0.00     0.066 C 
HETATM    4  C6  UNL     1      24.160   1.788  52.244  1.00  0.00    -0.056 C 
HETATM    5  C7  UNL     1      25.027   2.627  52.888  1.00  0.00    -0.015 C 
HETATM    6  C13 UNL     1      23.904   2.502  50.971  1.00  0.00     0.031 C 
HETATM    7  C14 UNL     1      23.183   2.365  49.834  1.00  0.00     0.135 C 
HETATM    8  O1  UNL     1      22.270   1.704  48.946  1.00  0.00    -0.363 OA
HETATM    9  C15 UNL     1      20.863   1.836  49.316  1.00  0.00     0.178 C 
HETATM   10  C16 UNL     1      20.441   0.585  50.005  1.00  0.00     0.054 C 
HETATM   11  C17 UNL     1      19.184   0.582  50.731  1.00  0.00    -0.024 C 
HETATM   12  C18 UNL     1      19.581   0.517  52.002  1.00  0.00     0.003 C 
ENDROOT
BRANCH   5  13
HETATM   13  C8  UNL     1      25.459   2.178  54.236  1.00  0.00     0.071 C 
BRANCH  13  14
HETATM   14  C9  UNL     1      26.745   1.443  54.047  1.00  0.00     0.009 A 
HETATM   15  C10 UNL     1      27.742   2.110  53.335  1.00  0.00     0.147 A 
HETATM   16  N1  UNL     1      28.947   1.528  53.151  1.00  0.00    -0.075 NA
HETATM   17  C11 UNL     1      29.221   0.289  53.645  1.00  0.00     0.721 A 
HETATM   18  N3  UNL     1      28.266  -0.360  54.329  1.00  0.00    -0.045 NA
HETATM   19  C12 UNL     1      27.069   0.197  54.521  1.00  0.00     0.148 A 
BRANCH  17  20
HETATM   20  N2  UNL     1      30.543  -0.096  53.308  1.00  0.00    -0.231 N 
HETATM   21  H13 UNL     1      31.301  -0.104  54.042  1.00  0.00     0.174 HD
HETATM   22  H14 UNL     1      30.661  -0.354  52.318  1.00  0.00     0.174 HD
ENDBRANCH  17  20
BRANCH  19  23
HETATM   23  N4  UNL     1      26.055  -0.488  55.233  1.00  0.00    -0.383 N 
HETATM   24  H15 UNL     1      26.457  -1.421  55.471  1.00  0.00     0.157 HD
HETATM   25  H16 UNL     1      25.059  -0.315  55.561  1.00  0.00     0.157 HD
ENDBRANCH  19  23
ENDBRANCH  13  14
ENDBRANCH   5  13
BRANCH   1  26
HETATM   26  C2  UNL     1      20.620   0.171  54.219  1.00  0.00     0.034 C 
HETATM   27  C1  UNL     1      21.130  -1.230  54.549  1.00  0.00     0.010 C 
ENDBRANCH   1  26
TORSDOF 5
ENDMDL
MODEL 4
REMARK VINA RESULT:      -7.7      3.864      5.290
REMARK  5 active torsions:
REMARK  status: ('A' for Active; 'I' for Inactive)
REMARK    1  A    between atoms: C2_2  and  C3_3 
REMARK    2  A    between atoms: C7_7  and  C8_8 
REMARK    3  A    between atoms: C8_8  and  C9_9 
REMARK    4  A    between atoms: C11_12  and  N2_13 
REMARK    5  A    between atoms: C12_15  and  N4_16 
ROOT
HETATM    1  C3  UNL     1      22.701   1.012  52.021  1.00  0.00    -0.062 C 
HETATM    2  C4  UNL     1      23.611   1.952  51.942  1.00  0.00    -0.015 C 
HETATM    3  C5  UNL     1      24.572   3.048  51.806  1.00  0.00     0.066 C 
HETATM    4  C6  UNL     1      25.813   2.709  51.134  1.00  0.00    -0.056 C 
HETATM    5  C7  UNL     1      26.410   3.184  49.999  1.00  0.00    -0.015 C 
HETATM    6  C13 UNL     1      26.760   1.661  51.583  1.00  0.00     0.031 C 
HETATM    7  C14 UNL     1      26.902   0.749  52.572  1.00  0.00     0.135 C 
HETATM    8  O1  UNL     1      26.510   0.053  53.765  1.00  0.00    -0.363 OA
HETATM    9  C15 UNL     1      25.471  -0.954  53.566  1.00  0.00     0.178 C 
HETATM   10  C16 UNL     1      24.166  -0.370  53.980  1.00  0.00     0.054 C 
HETATM   11  C17 UNL     1      22.945  -1.059  53.601  1.00  0.00    -0.024 C 
HETATM   12  C18 UNL     1      22.419  -0.240  52.691  1.00  0.00     0.003 C 
ENDROOT
BRANCH   5  13
HETATM   13  C8  UNL     1      25.665   4.258  49.294  1.00  0.00     0.071 C 
BRANCH  13  14
HETATM   14  C9  UNL     1      26.662   5.316  48.957  1.00  0.00     0.009 A 
HETATM   15  C10 UNL     1      27.919   4.874  48.542  1.00  0.00     0.147 A 
HETATM   16  N1  UNL     1      28.866   5.769  48.186  1.00  0.00    -0.075 NA
HETATM   17  C11 UNL     1      28.629   7.110  48.222  1.00  0.00     0.721 A 
HETATM   18  N3  UNL     1      27.423   7.541  48.622  1.00  0.00    -0.045 NA
HETATM   19  C12 UNL     1      26.474   6.675  48.979  1.00  0.00     0.148 A 
BRANCH  17  20
HETATM   20  N2  UNL     1      29.781   7.827  47.811  1.00  0.00    -0.231 N 
HETATM   21  H13 UNL     1      30.272   7.579  46.911  1.00  0.00     0.174 HD
HETATM   22  H14 UNL     1      30.058   8.575  48.463  1.00  0.00     0.174 HD
ENDBRANCH  17  20
BRANCH  19  23
HETATM   23  N4  UNL     1      25.204   7.126  49.412  1.00  0.00    -0.383 N 
HETATM   24  H15 UNL     1      24.541   6.889  48.641  1.00  0.00     0.157 HD
HETATM   25  H16 UNL     1      24.778   7.614  50.254  1.00  0.00     0.157 HD
ENDBRANCH  19  23
ENDBRANCH  13  14
ENDBRANCH   5  13
BRANCH   1  26
HETATM   26  C2  UNL     1      21.599   1.576  51.225  1.00  0.00     0.034 C 
HETATM   27  C1  UNL     1      21.857   1.401  49.731  1.00  0.00     0.010 C 
ENDBRANCH   1  26
TORSDOF 5
ENDMDL
MODEL 5
REMARK VINA RESULT:      -7.5      4.530      6.672
REMARK  5 active torsions:
REMARK  status: ('A' for Active; 'I' for Inactive)
REMARK    1  A    between atoms: C2_2  and  C3_3 
REMARK    2  A    between atoms: C7_7  and  C8_8 
REMARK    3  A    between atoms: C8_8  and  C9_9 
REMARK    4  A    between atoms: C11_12  and  N2_13 
REMARK    5  A    between atoms: C12_15  and  N4_16 
ROOT
HETATM    1  C3  UNL     1      22.836   3.288  48.439  1.00  0.00    -0.062 C 
HETATM    2  C4  UNL     1      23.567   2.949  49.473  1.00  0.00    -0.015 C 
HETATM    3  C5  UNL     1      24.374   2.487  50.604  1.00  0.00     0.066 C 
HETATM    4  C6  UNL     1      23.841   2.799  51.917  1.00  0.00    -0.056 C 
HETATM    5  C7  UNL     1      23.463   2.016  52.972  1.00  0.00    -0.015 C 
HETATM    6  C13 UNL     1      23.559   4.167  52.413  1.00  0.00     0.031 C 
HETATM    7  C14 UNL     1      23.635   5.453  52.001  1.00  0.00     0.135 C 
HETATM    8  O1  UNL     1      23.930   6.505  51.070  1.00  0.00    -0.363 OA
HETATM    9  C15 UNL     1      22.938   6.671  50.010  1.00  0.00     0.178 C 
HETATM   10  C16 UNL     1      23.452   6.008  48.779  1.00  0.00     0.054 C 
HETATM   11  C17 UNL     1      22.532   5.773  47.681  1.00  0.00    -0.024 C 
HETATM   12  C18 UNL     1      22.391   4.449  47.696  1.00  0.00     0.003 C 
ENDROOT
BRANCH   5  13
HETATM   13  C8  UNL     1      23.613   0.553  52.760  1.00  0.00     0.071 C 
BRANCH  13  14
HETATM   14  C9  UNL     1      22.335  -0.074  53.210  1.00  0.00     0.009 A 
HETATM   15  C10 UNL     1      21.202   0.210  52.448  1.00  0.00     0.147 A 
HETATM   16  N1  UNL     1      20.014  -0.347  52.768  1.00  0.00    -0.075 NA
HETATM   17  C11 UNL     1      19.886  -1.190  53.831  1.00  0.00     0.721 A 
HETATM   18  N3  UNL     1      20.972  -1.466  54.570  1.00  0.00    -0.045 NA
HETATM   19  C12 UNL     1      22.154  -0.925  54.271  1.00  0.00     0.148 A 
BRANCH  17  20
HETATM   20  N2  UNL     1      18.544  -1.626  53.957  1.00  0.00    -0.231 N 
HETATM   21  H13 UNL     1      18.329  -2.596  54.313  1.00  0.00     0.174 HD
HETATM   22  H14 UNL     1      17.849  -0.920  53.677  1.00  0.00     0.174 HD
ENDBRANCH  17  20
BRANCH  19  23
HETATM   23  N4  UNL     1      23.300  -1.206  55.053  1.00  0.00    -0.383 N 
HETATM   24  H15 UNL     1      22.957  -1.297  56.035  1.00  0.00     0.157 HD
HETATM   25  H16 UNL     1      24.345  -1.333  54.915  1.00  0.00     0.157 HD
ENDBRANCH  19  23
ENDBRANCH  13  14
ENDBRANCH   5  13
BRANCH   1  26
HETATM   26  C2  UNL     1      22.515   1.982  47.840  1.00  0.00     0.034 C 
HETATM   27  C1  UNL     1      21.513   1.217  48.699  1.00  0.00     0.010 C 
ENDBRANCH   1  26
TORSDOF 5
ENDMDL
MODEL 6
REMARK VINA RESULT:      -7.5      4.539      6.268
REMARK  5 active torsions:
REMARK  status: ('A' for Active; 'I' for Inactive)
REMARK    1  A    between atoms: C2_2  and  C3_3 
REMARK    2  A    between atoms: C7_7  and  C8_8 
REMARK    3  A    between atoms: C8_8  and  C9_9 
REMARK    4  A    between atoms: C11_12  and  N2_13 
REMARK    5  A    between atoms: C12_15  and  N4_16 
ROOT
HETATM    1  C3  UNL     1      25.616   6.692  48.423  1.00  0.00    -0.062 C 
HETATM    2  C4  UNL     1      25.325   5.871  49.402  1.00  0.00    -0.015 C 
HETATM    3  C5  UNL     1      25.080   4.969  50.528  1.00  0.00     0.066 C 
HETATM    4  C6  UNL     1      24.797   3.590  50.171  1.00  0.00    -0.056 C 
HETATM    5  C7  UNL     1      25.421   2.411  50.470  1.00  0.00    -0.015 C 
HETATM    6  C13 UNL     1      23.674   3.152  49.309  1.00  0.00     0.031 C 
HETATM    7  C14 UNL     1      22.637   3.674  48.615  1.00  0.00     0.135 C 
HETATM    8  O1  UNL     1      21.802   4.735  48.129  1.00  0.00    -0.363 OA
HETATM    9  C15 UNL     1      22.372   5.496  47.019  1.00  0.00     0.178 C 
HETATM   10  C16 UNL     1      22.943   6.760  47.562  1.00  0.00     0.054 C 
HETATM   11  C17 UNL     1      23.825   7.543  46.716  1.00  0.00    -0.024 C 
HETATM   12  C18 UNL     1      25.011   7.380  47.301  1.00  0.00     0.003 C 
ENDROOT
BRANCH   5  13
HETATM   13  C8  UNL     1      26.629   2.534  51.326  1.00  0.00     0.071 C 
BRANCH  13  14
HETATM   14  C9  UNL     1      26.392   1.670  52.521  1.00  0.00     0.009 A 
HETATM   15  C10 UNL     1      25.401   0.696  52.395  1.00  0.00     0.147 A 
HETATM   16  N1  UNL     1      25.151  -0.149  53.419  1.00  0.00    -0.075 NA
HETATM   17  C11 UNL     1      25.844  -0.076  54.589  1.00  0.00     0.721 A 
HETATM   18  N3  UNL     1      26.797   0.860  54.717  1.00  0.00    -0.045 NA
HETATM   19  C12 UNL     1      27.060   1.705  53.719  1.00  0.00     0.148 A 
BRANCH  17  20
HETATM   20  N2  UNL     1      25.384  -1.061  55.498  1.00  0.00    -0.231 N 
HETATM   21  H13 UNL     1      24.681  -1.785  55.191  1.00  0.00     0.174 HD
HETATM   22  H14 UNL     1      25.801  -0.987  56.437  1.00  0.00     0.174 HD
ENDBRANCH  17  20
BRANCH  19  23
HETATM   23  N4  UNL     1      28.057   2.701  53.854  1.00  0.00    -0.383 N 
HETATM   24  H15 UNL     1      27.571   3.538  54.245  1.00  0.00     0.157 HD
HETATM   25  H16 UNL     1      29.097   2.815  53.668  1.00  0.00     0.157 HD
ENDBRANCH  19  23
ENDBRANCH  13  14
ENDBRANCH   5  13
BRANCH   1  26
HETATM   26  C2  UNL     1      27.004   7.070  48.733  1.00  0.00     0.034 C 
HETATM   27  C1  UNL     1      27.974   5.957  48.347  1.00  0.00     0.010 C 
ENDBRANCH   1  26
TORSDOF 5
ENDMDL
MODEL 7
REMARK VINA RESULT:      -7.4      5.431      7.345
REMARK  5 active torsions:
REMARK  status: ('A' for Active; 'I' for Inactive)
REMARK    1  A    between atoms: C2_2  and  C3_3 
REMARK    2  A    between atoms: C7_7  and  C8_8 
REMARK    3  A    between atoms: C8_8  and  C9_9 
REMARK    4  A    between atoms: C11_12  and  N2_13 
REMARK    5  A    between atoms: C12_15  and  N4_16 
ROOT
HETATM    1  C3  UNL     1      26.180   2.333  51.936  1.00  0.00    -0.062 C 
HETATM    2  C4  UNL     1      26.327   2.771  50.709  1.00  0.00    -0.015 C 
HETATM    3  C5  UNL     1      26.574   3.235  49.343  1.00  0.00     0.066 C 
HETATM    4  C6  UNL     1      26.353   4.652  49.117  1.00  0.00    -0.056 C 
HETATM    5  C7  UNL     1      27.174   5.661  48.695  1.00  0.00    -0.015 C 
HETATM    6  C13 UNL     1      25.067   5.355  49.343  1.00  0.00     0.031 C 
HETATM    7  C14 UNL     1      23.806   5.097  49.758  1.00  0.00     0.135 C 
HETATM    8  O1  UNL     1      22.739   4.263  50.233  1.00  0.00    -0.363 OA
HETATM    9  C15 UNL     1      22.818   3.928  51.653  1.00  0.00     0.178 C 
HETATM   10  C16 UNL     1      23.384   2.556  51.779  1.00  0.00     0.054 C 
HETATM   11  C17 UNL     1      23.840   2.111  53.084  1.00  0.00    -0.024 C 
HETATM   12  C18 UNL     1      25.162   2.068  52.931  1.00  0.00     0.003 C 
ENDROOT
BRANCH   5  13
HETATM   13  C8  UNL     1      28.573   5.257  48.404  1.00  0.00     0.071 C 
BRANCH  13  14
HETATM   14  C9  UNL     1      29.322   6.512  48.099  1.00  0.00     0.009 A 
HETATM   15  C10 UNL     1      28.789   7.325  47.097  1.00  0.00     0.147 A 
HETATM   16  N1  UNL     1      29.387   8.495  46.787  1.00  0.00    -0.075 NA
HETATM   17  C11 UNL     1      30.514   8.912  47.429  1.00  0.00     0.721 A 
HETATM   18  N3  UNL     1      31.033   8.134  48.392  1.00  0.00    -0.045 NA
HETATM   19  C12 UNL     1      30.458   6.974  48.713  1.00  0.00     0.148 A 
BRANCH  17  20
HETATM   20  N2  UNL     1      30.945  10.159  46.912  1.00  0.00    -0.231 N 
HETATM   21  H13 UNL     1      31.294  10.234  45.919  1.00  0.00     0.174 HD
HETATM   22  H14 UNL     1      30.876  10.934  47.587  1.00  0.00     0.174 HD
ENDBRANCH  17  20
BRANCH  19  23
HETATM   23  N4  UNL     1      31.008   6.146  49.721  1.00  0.00    -0.383 N 
HETATM   24  H15 UNL     1      30.524   6.416  50.606  1.00  0.00     0.157 HD
HETATM   25  H16 UNL     1      31.737   5.378  49.809  1.00  0.00     0.157 HD
ENDBRANCH  19  23
ENDBRANCH  13  14
ENDBRANCH   5  13
BRANCH   1  26
HETATM   26  C2  UNL     1      27.538   1.876  52.270  1.00  0.00     0.034 C 
HETATM   27  C1  UNL     1      27.956   2.364  53.654  1.00  0.00     0.010 C 
ENDBRANCH   1  26
TORSDOF 5
ENDMDL
MODEL 8
REMARK VINA RESULT:      -7.4      5.443      8.166
REMARK  5 active torsions:
REMARK  status: ('A' for Active; 'I' for Inactive)
REMARK    1  A    between atoms: C2_2  and  C3_3 
REMARK    2  A    between atoms: C7_7  and  C8_8 
REMARK    3  A    between atoms: C8_8  and  C9_9 
REMARK    4  A    between atoms: C11_12  and  N2_13 
REMARK    5  A    between atoms: C12_15  and  N4_16 
ROOT
HETATM    1  C3  UNL     1      24.214   2.235  52.760  1.00  0.00    -0.062 C 
HETATM    2  C4  UNL     1      23.421   1.204  52.600  1.00  0.00    -0.015 C 
HETATM    3  C5  UNL     1      22.484   0.102  52.372  1.00  0.00     0.066 C 
HETATM    4  C6  UNL     1      21.843  -0.427  53.562  1.00  0.00    -0.056 C 
HETATM    5  C7  UNL     1      20.533  -0.524  53.941  1.00  0.00    -0.015 C 
HETATM    6  C13 UNL     1      22.559  -1.004  54.724  1.00  0.00     0.031 C 
HETATM    7  C14 UNL     1      23.821  -1.258  55.140  1.00  0.00     0.135 C 
HETATM    8  O1  UNL     1      25.251  -1.268  55.022  1.00  0.00    -0.363 OA
HETATM    9  C15 UNL     1      25.889   0.025  55.257  1.00  0.00     0.178 C 
HETATM   10  C16 UNL     1      26.204   0.639  53.937  1.00  0.00     0.054 C 
HETATM   11  C17 UNL     1      26.564   2.045  53.894  1.00  0.00    -0.024 C 
HETATM   12  C18 UNL     1      25.507   2.599  53.302  1.00  0.00     0.003 C 
ENDROOT
BRANCH   5  13
HETATM   13  C8  UNL     1      19.550   0.009  52.963  1.00  0.00     0.071 C 
BRANCH  13  14
HETATM   14  C9  UNL     1      18.412  -0.957  52.936  1.00  0.00     0.009 A 
HETATM   15  C10 UNL     1      18.557  -2.108  53.711  1.00  0.00     0.147 A 
HETATM   16  N1  UNL     1      17.557  -3.015  53.769  1.00  0.00    -0.075 NA
HETATM   17  C11 UNL     1      16.394  -2.837  53.081  1.00  0.00     0.721 A 
HETATM   18  N3  UNL     1      16.249  -1.733  52.332  1.00  0.00    -0.045 NA
HETATM   19  C12 UNL     1      17.224  -0.826  52.261  1.00  0.00     0.148 A 
BRANCH  17  20
HETATM   20  N2  UNL     1      15.518  -3.930  53.301  1.00  0.00    -0.231 N 
HETATM   21  H13 UNL     1      14.744  -4.140  52.616  1.00  0.00     0.174 HD
HETATM   22  H14 UNL     1      15.723  -4.460  54.160  1.00  0.00     0.174 HD
ENDBRANCH  17  20
BRANCH  19  23
HETATM   23  N4  UNL     1      17.080   0.335  51.464  1.00  0.00    -0.383 N 
HETATM   24  H15 UNL     1      17.517   1.110  52.011  1.00  0.00     0.157 HD
HETATM   25  H16 UNL     1      16.666   0.608  50.525  1.00  0.00     0.157 HD
ENDBRANCH  19  23
ENDBRANCH  13  14
ENDBRANCH   5  13
BRANCH   1  26
HETATM   26  C2  UNL     1      23.523   3.284  51.993  1.00  0.00     0.034 C 
HETATM   27  C1  UNL     1      23.510   4.604  52.759  1.00  0.00     0.010 C 
ENDBRANCH   1  26
TORSDOF 5
ENDMDL
MODEL 9
REMARK VINA RESULT:      -7.3      3.586      5.122
REMARK  5 active torsions:
REMARK  status: ('A' for Active; 'I' for Inactive)
REMARK    1  A    between atoms: C2_2  and  C3_3 
REMARK    2  A    between atoms: C7_7  and  C8_8 
REMARK    3  A    between atoms: C8_8  and  C9_9 
REMARK    4  A    between atoms: C11_12  and  N2_13 
REMARK    5  A    between atoms: C12_15  and  N4_16 
ROOT
HETATM    1  C3  UNL     1      22.659   3.579  48.046  1.00  0.00    -0.062 C 
HETATM    2  C4  UNL     1      23.461   3.268  49.035  1.00  0.00    -0.015 C 
HETATM    3  C5  UNL     1      24.348   2.837  50.117  1.00  0.00     0.066 C 
HETATM    4  C6  UNL     1      23.904   3.176  51.457  1.00  0.00    -0.056 C 
HETATM    5  C7  UNL     1      23.605   2.414  52.552  1.00  0.00    -0.015 C 
HETATM    6  C13 UNL     1      23.646   4.552  51.940  1.00  0.00     0.031 C 
HETATM    7  C14 UNL     1      23.683   5.830  51.496  1.00  0.00     0.135 C 
HETATM    8  O1  UNL     1      23.905   6.862  50.523  1.00  0.00    -0.363 OA
HETATM    9  C15 UNL     1      22.842   6.998  49.531  1.00  0.00     0.178 C 
HETATM   10  C16 UNL     1      23.275   6.310  48.283  1.00  0.00     0.054 C 
HETATM   11  C17 UNL     1      22.283   6.045  47.256  1.00  0.00    -0.024 C 
HETATM   12  C18 UNL     1      22.155   4.720  47.310  1.00  0.00     0.003 C 
ENDROOT
BRANCH   5  13
HETATM   13  C8  UNL     1      23.752   0.948  52.363  1.00  0.00     0.071 C 
BRANCH  13  14
HETATM   14  C9  UNL     1      24.959   0.539  53.140  1.00  0.00     0.009 A 
HETATM   15  C10 UNL     1      26.170   1.115  52.755  1.00  0.00     0.147 A 
HETATM   16  N1  UNL     1      27.302   0.824  53.431  1.00  0.00    -0.075 NA
HETATM   17  C11 UNL     1      27.299  -0.031  54.492  1.00  0.00     0.721 A 
HETATM   18  N3  UNL     1      26.138  -0.591  54.866  1.00  0.00    -0.045 NA
HETATM   19  C12 UNL     1      25.009  -0.317  54.211  1.00  0.00     0.148 A 
BRANCH  17  20
HETATM   20  N2  UNL     1      28.608  -0.173  55.016  1.00  0.00    -0.231 N 
HETATM   21  H13 UNL     1      29.415  -0.410  54.379  1.00  0.00     0.174 HD
HETATM   22  H14 UNL     1      28.668  -0.023  56.033  1.00  0.00     0.174 HD
ENDBRANCH  17  20
BRANCH  19  23
HETATM   23  N4  UNL     1      23.784  -0.914  54.596  1.00  0.00    -0.383 N 
HETATM   24  H15 UNL     1      23.219  -0.990  53.721  1.00  0.00     0.157 HD
HETATM   25  H16 UNL     1      23.318  -1.274  55.480  1.00  0.00     0.157 HD
ENDBRANCH  19  23
ENDBRANCH  13  14
ENDBRANCH   5  13
BRANCH   1  26
HETATM   26  C2  UNL     1      22.309   2.258  47.500  1.00  0.00     0.034 C 
HETATM   27  C1  UNL     1      21.535   1.430  48.522  1.00  0.00     0.010 C 
ENDBRANCH   1  26
TORSDOF 5
ENDMDL
