MODEL 1
REMARK VINA RESULT:      -9.2      0.000      0.000
REMARK  5 active torsions:
REMARK  status: ('A' for Active; 'I' for Inactive)
REMARK    1  A    between atoms: C6_6  and  O1_7 
REMARK    2  A    between atoms: C7_8  and  C8_9 
REMARK    3  A    between atoms: C7_8  and  C9_11 
REMARK    4  A    between atoms: C11_13  and  N1_14 
REMARK    5  A    between atoms: C16_19  and  C17_20 
ROOT
HETATM    1  C9  UNL     1      22.037   1.740  51.902  1.00  0.00    -0.015 A 
HETATM    2  C10 UNL     1      21.400   1.095  52.896  1.00  0.00     0.023 A 
HETATM    3  C11 UNL     1      22.246   0.244  53.775  1.00  0.00     0.275 A 
HETATM    4  C12 UNL     1      23.584   0.488  53.152  1.00  0.00    -0.004 A 
HETATM    5  C13 UNL     1      23.413   1.343  52.083  1.00  0.00    -0.018 A 
HETATM    6  C14 UNL     1      24.532   1.690  51.356  1.00  0.00     0.013 A 
HETATM    7  C15 UNL     1      25.759   1.180  51.720  1.00  0.00     0.013 A 
HETATM    8  C16 UNL     1      25.916   0.316  52.806  1.00  0.00    -0.019 A 
HETATM    9  C23 UNL     1      24.787  -0.021  53.521  1.00  0.00    -0.041 A 
HETATM   10  C24 UNL     1      24.955  -0.928  54.664  1.00  0.00     0.049 C 
ENDROOT
BRANCH   1  11
HETATM   11  C7  UNL     1      21.365   2.626  50.936  1.00  0.00     0.115 C 
HETATM   12  C6  UNL     1      21.275   2.081  49.547  1.00  0.00     0.154 C 
HETATM   13  C5  UNL     1      20.066   2.701  48.881  1.00  0.00     0.038 C 
HETATM   14  C4  UNL     1      20.416   3.894  48.031  1.00  0.00     0.032 C 
HETATM   15  C3  UNL     1      21.554   4.633  48.619  1.00  0.00    -0.003 C 
HETATM   16  C2  UNL     1      22.305   4.749  49.704  1.00  0.00    -0.002 C 
HETATM   17  C1  UNL     1      23.440   5.733  49.823  1.00  0.00     0.067 C 
HETATM   18  N2  UNL     1      22.044   3.905  50.846  1.00  0.00    -0.376 N 
HETATM   19  H26 UNL     1      22.418   4.302  51.759  1.00  0.00     0.160 HD
BRANCH  12  20
HETATM   20  O1  UNL     1      21.378   0.724  49.416  1.00  0.00    -0.393 OA
HETATM   21  H10 UNL     1      22.178   0.439  49.924  1.00  0.00     0.210 HD
ENDBRANCH  12  20
BRANCH  11  22
HETATM   22  C8  UNL     1      20.008   2.950  51.490  1.00  0.00     0.430 C 
HETATM   23  O2  UNL     1      19.206   3.674  52.050  1.00  0.00    -0.427 OA
ENDBRANCH  11  22
ENDBRANCH   1  11
BRANCH   3  24
HETATM   24  N1  UNL     1      21.881  -1.133  53.486  1.00  0.00     0.090 N 
HETATM   25  H14 UNL     1      20.924  -1.310  53.913  1.00  0.00     0.314 HD
HETATM   26  H15 UNL     1      22.528  -1.785  54.002  1.00  0.00     0.314 HD
ENDBRANCH   3  24
BRANCH   8  27
HETATM   27  C17 UNL     1      27.274  -0.144  53.067  1.00  0.00    -0.025 A 
HETATM   28  C18 UNL     1      27.804  -1.410  52.956  1.00  0.00     0.012 A 
HETATM   29  C19 UNL     1      29.115  -1.653  53.251  1.00  0.00     0.001 A 
HETATM   30  C20 UNL     1      29.986  -0.672  53.673  1.00  0.00     0.000 A 
HETATM   31  C21 UNL     1      29.471   0.603  53.791  1.00  0.00     0.001 A 
HETATM   32  C22 UNL     1      28.156   0.851  53.496  1.00  0.00     0.012 A 
ENDBRANCH   8  27
TORSDOF 5
ENDMDL
MODEL 2
REMARK VINA RESULT:      -9.1      1.941      3.246
REMARK  5 active torsions:
REMARK  status: ('A' for Active; 'I' for Inactive)
REMARK    1  A    between atoms: C6_6  and  O1_7 
REMARK    2  A    between atoms: C7_8  and  C8_9 
REMARK    3  A    between atoms: C7_8  and  C9_11 
REMARK    4  A    between atoms: C11_13  and  N1_14 
REMARK    5  A    between atoms: C16_19  and  C17_20 
ROOT
HETATM    1  C9  UNL     1      20.989   0.506  52.494  1.00  0.00    -0.015 A 
HETATM    2  C10 UNL     1      20.508  -0.177  53.547  1.00  0.00     0.023 A 
HETATM    3  C11 UNL     1      21.519  -0.749  54.476  1.00  0.00     0.275 A 
HETATM    4  C12 UNL     1      22.773  -0.273  53.812  1.00  0.00    -0.004 A 
HETATM    5  C13 UNL     1      22.419   0.433  52.681  1.00  0.00    -0.018 A 
HETATM    6  C14 UNL     1      23.436   0.953  51.908  1.00  0.00     0.013 A 
HETATM    7  C15 UNL     1      24.744   0.753  52.289  1.00  0.00     0.013 A 
HETATM    8  C16 UNL     1      25.085   0.036  53.438  1.00  0.00    -0.019 A 
HETATM    9  C23 UNL     1      24.058  -0.477  54.198  1.00  0.00    -0.041 A 
HETATM   10  C24 UNL     1      24.419  -1.229  55.407  1.00  0.00     0.049 C 
ENDROOT
BRANCH   1  11
HETATM   11  C7  UNL     1      20.141   1.143  51.472  1.00  0.00     0.115 C 
HETATM   12  C6  UNL     1      19.593   2.479  51.858  1.00  0.00     0.154 C 
HETATM   13  C5  UNL     1      19.351   3.267  50.590  1.00  0.00     0.038 C 
HETATM   14  C4  UNL     1      17.922   3.191  50.121  1.00  0.00     0.032 C 
HETATM   15  C3  UNL     1      17.340   1.871  50.444  1.00  0.00    -0.003 C 
HETATM   16  C2  UNL     1      17.635   0.646  50.855  1.00  0.00    -0.002 C 
HETATM   17  C1  UNL     1      16.602  -0.434  51.045  1.00  0.00     0.067 C 
HETATM   18  N2  UNL     1      19.007   0.300  51.140  1.00  0.00    -0.376 N 
HETATM   19  H26 UNL     1      19.198  -0.745  51.096  1.00  0.00     0.160 HD
BRANCH  12  20
HETATM   20  O1  UNL     1      20.264   3.152  52.841  1.00  0.00    -0.393 OA
HETATM   21  H10 UNL     1      20.663   2.475  53.443  1.00  0.00     0.210 HD
ENDBRANCH  12  20
BRANCH  11  22
HETATM   22  C8  UNL     1      20.944   1.221  50.206  1.00  0.00     0.430 C 
HETATM   23  O2  UNL     1      21.195   0.911  49.056  1.00  0.00    -0.427 OA
ENDBRANCH  11  22
ENDBRANCH   1  11
BRANCH   3  24
HETATM   24  N1  UNL     1      21.463  -2.191  54.305  1.00  0.00     0.090 N 
HETATM   25  H14 UNL     1      20.800  -2.396  53.500  1.00  0.00     0.314 HD
HETATM   26  H15 UNL     1      21.002  -2.629  55.147  1.00  0.00     0.314 HD
ENDBRANCH   3  24
BRANCH   8  27
HETATM   27  C17 UNL     1      26.512  -0.095  53.710  1.00  0.00    -0.025 A 
HETATM   28  C18 UNL     1      27.303   0.610  54.588  1.00  0.00     0.012 A 
HETATM   29  C19 UNL     1      28.637   0.344  54.705  1.00  0.00     0.001 A 
HETATM   30  C20 UNL     1      29.277  -0.628  53.968  1.00  0.00     0.000 A 
HETATM   31  C21 UNL     1      28.499  -1.346  53.082  1.00  0.00     0.001 A 
HETATM   32  C22 UNL     1      27.160  -1.081  52.962  1.00  0.00     0.012 A 
ENDBRANCH   8  27
TORSDOF 5
ENDMDL
MODEL 3
REMARK VINA RESULT:      -9.1      1.455      1.869
REMARK  5 active torsions:
REMARK  status: ('A' for Active; 'I' for Inactive)
REMARK    1  A    between atoms: C6_6  and  O1_7 
REMARK    2  A    between atoms: C7_8  and  C8_9 
REMARK    3  A    between atoms: C7_8  and  C9_11 
REMARK    4  A    between atoms: C11_13  and  N1_14 
REMARK    5  A    between atoms: C16_19  and  C17_20 
ROOT
HETATM    1  C9  UNL     1      23.104   2.968  51.086  1.00  0.00    -0.015 A 
HETATM    2  C10 UNL     1      22.164   2.373  51.842  1.00  0.00     0.023 A 
HETATM    3  C11 UNL     1      22.627   1.253  52.704  1.00  0.00     0.275 A 
HETATM    4  C12 UNL     1      24.084   1.256  52.364  1.00  0.00    -0.004 A 
HETATM    5  C13 UNL     1      24.307   2.248  51.432  1.00  0.00    -0.018 A 
HETATM    6  C14 UNL     1      25.595   2.413  50.969  1.00  0.00     0.013 A 
HETATM    7  C15 UNL     1      26.595   1.596  51.449  1.00  0.00     0.013 A 
HETATM    8  C16 UNL     1      26.353   0.597  52.394  1.00  0.00    -0.019 A 
HETATM    9  C23 UNL     1      25.060   0.445  52.845  1.00  0.00    -0.041 A 
HETATM   10  C24 UNL     1      24.809  -0.605  53.841  1.00  0.00     0.049 C 
ENDROOT
BRANCH   1  11
HETATM   11  C7  UNL     1      22.833   4.092  50.174  1.00  0.00     0.115 C 
HETATM   12  C6  UNL     1      23.053   3.789  48.727  1.00  0.00     0.154 C 
HETATM   13  C5  UNL     1      22.154   4.699  47.919  1.00  0.00     0.038 C 
HETATM   14  C4  UNL     1      22.866   5.931  47.424  1.00  0.00     0.032 C 
HETATM   15  C3  UNL     1      23.887   6.367  48.400  1.00  0.00    -0.003 C 
HETATM   16  C2  UNL     1      24.326   6.187  49.637  1.00  0.00    -0.002 C 
HETATM   17  C1  UNL     1      25.500   6.934  50.214  1.00  0.00     0.067 C 
HETATM   18  N2  UNL     1      23.665   5.236  50.498  1.00  0.00    -0.376 N 
HETATM   19  H26 UNL     1      23.826   5.419  51.533  1.00  0.00     0.160 HD
BRANCH  12  20
HETATM   20  O1  UNL     1      23.017   2.471  48.367  1.00  0.00    -0.393 OA
HETATM   21  H10 UNL     1      23.034   2.434  47.377  1.00  0.00     0.210 HD
ENDBRANCH  12  20
BRANCH  11  22
HETATM   22  C8  UNL     1      21.428   4.553  50.434  1.00  0.00     0.430 C 
HETATM   23  O2  UNL     1      20.591   5.397  50.697  1.00  0.00    -0.427 OA
ENDBRANCH  11  22
ENDBRANCH   1  11
BRANCH   3  24
HETATM   24  N1  UNL     1      22.056   0.040  52.142  1.00  0.00     0.090 N 
HETATM   25  H14 UNL     1      21.068   0.267  51.823  1.00  0.00     0.314 HD
HETATM   26  H15 UNL     1      21.932  -0.677  52.904  1.00  0.00     0.314 HD
ENDBRANCH   3  24
BRANCH   8  27
HETATM   27  C17 UNL     1      27.510  -0.190  52.804  1.00  0.00    -0.025 A 
HETATM   28  C18 UNL     1      27.720  -1.548  52.714  1.00  0.00     0.012 A 
HETATM   29  C19 UNL     1      28.881  -2.112  53.160  1.00  0.00     0.001 A 
HETATM   30  C20 UNL     1      29.905  -1.382  53.721  1.00  0.00     0.000 A 
HETATM   31  C21 UNL     1      29.712  -0.019  53.820  1.00  0.00     0.001 A 
HETATM   32  C22 UNL     1      28.548   0.551  53.374  1.00  0.00     0.012 A 
ENDBRANCH   8  27
TORSDOF 5
ENDMDL
MODEL 4
REMARK VINA RESULT:      -9.0      1.876      2.847
REMARK  5 active torsions:
REMARK  status: ('A' for Active; 'I' for Inactive)
REMARK    1  A    between atoms: C6_6  and  O1_7 
REMARK    2  A    between atoms: C7_8  and  C8_9 
REMARK    3  A    between atoms: C7_8  and  C9_11 
REMARK    4  A    between atoms: C11_13  and  N1_14 
REMARK    5  A    between atoms: C16_19  and  C17_20 
ROOT
HETATM    1  C9  UNL     1      23.064   3.079  51.652  1.00  0.00    -0.015 A 
HETATM    2  C10 UNL     1      22.094   2.446  52.337  1.00  0.00     0.023 A 
HETATM    3  C11 UNL     1      22.490   1.187  53.023  1.00  0.00     0.275 A 
HETATM    4  C12 UNL     1      23.939   1.142  52.656  1.00  0.00    -0.004 A 
HETATM    5  C13 UNL     1      24.219   2.239  51.867  1.00  0.00    -0.018 A 
HETATM    6  C14 UNL     1      25.510   2.383  51.405  1.00  0.00     0.013 A 
HETATM    7  C15 UNL     1      26.457   1.442  51.744  1.00  0.00     0.013 A 
HETATM    8  C16 UNL     1      26.159   0.337  52.544  1.00  0.00    -0.019 A 
HETATM    9  C23 UNL     1      24.864   0.209  52.996  1.00  0.00    -0.041 A 
HETATM   10  C24 UNL     1      24.552  -0.953  53.840  1.00  0.00     0.049 C 
ENDROOT
BRANCH   1  11
HETATM   11  C7  UNL     1      22.859   4.336  50.913  1.00  0.00     0.115 C 
HETATM   12  C6  UNL     1      23.044   5.577  51.728  1.00  0.00     0.154 C 
HETATM   13  C5  UNL     1      23.465   6.689  50.793  1.00  0.00     0.038 C 
HETATM   14  C4  UNL     1      22.310   7.551  50.355  1.00  0.00     0.032 C 
HETATM   15  C3  UNL     1      21.076   6.744  50.240  1.00  0.00    -0.003 C 
HETATM   16  C2  UNL     1      20.609   5.505  50.221  1.00  0.00    -0.002 C 
HETATM   17  C1  UNL     1      19.147   5.174  50.069  1.00  0.00     0.067 C 
HETATM   18  N2  UNL     1      21.524   4.396  50.348  1.00  0.00    -0.376 N 
HETATM   19  H26 UNL     1      21.140   3.483  49.960  1.00  0.00     0.160 HD
BRANCH  12  20
HETATM   20  O1  UNL     1      23.797   5.455  52.862  1.00  0.00    -0.393 OA
HETATM   21  H10 UNL     1      24.747   5.422  52.584  1.00  0.00     0.210 HD
ENDBRANCH  12  20
BRANCH  11  22
HETATM   22  C8  UNL     1      23.778   4.315  49.726  1.00  0.00     0.430 C 
HETATM   23  O2  UNL     1      24.118   3.937  48.620  1.00  0.00    -0.427 OA
ENDBRANCH  11  22
ENDBRANCH   1  11
BRANCH   3  24
HETATM   24  N1  UNL     1      21.831   0.107  52.308  1.00  0.00     0.090 N 
HETATM   25  H14 UNL     1      22.557  -0.646  52.119  1.00  0.00     0.314 HD
HETATM   26  H15 UNL     1      21.540   0.442  51.352  1.00  0.00     0.314 HD
ENDBRANCH   3  24
BRANCH   8  27
HETATM   27  C17 UNL     1      27.264  -0.574  52.815  1.00  0.00    -0.025 A 
HETATM   28  C18 UNL     1      27.351  -1.931  52.597  1.00  0.00     0.012 A 
HETATM   29  C19 UNL     1      28.481  -2.625  52.922  1.00  0.00     0.001 A 
HETATM   30  C20 UNL     1      29.593  -2.034  53.480  1.00  0.00     0.000 A 
HETATM   31  C21 UNL     1      29.523  -0.674  53.706  1.00  0.00     0.001 A 
HETATM   32  C22 UNL     1      28.391   0.026  53.381  1.00  0.00     0.012 A 
ENDBRANCH   8  27
TORSDOF 5
ENDMDL
MODEL 5
REMARK VINA RESULT:      -8.6      3.190      5.567
REMARK  5 active torsions:
REMARK  status: ('A' for Active; 'I' for Inactive)
REMARK    1  A    between atoms: C6_6  and  O1_7 
REMARK    2  A    between atoms: C7_8  and  C8_9 
REMARK    3  A    between atoms: C7_8  and  C9_11 
REMARK    4  A    between atoms: C11_13  and  N1_14 
REMARK    5  A    between atoms: C16_19  and  C17_20 
ROOT
HETATM    1  C9  UNL     1      25.150   4.452  50.267  1.00  0.00    -0.015 A 
HETATM    2  C10 UNL     1      26.373   3.893  50.224  1.00  0.00     0.023 A 
HETATM    3  C11 UNL     1      26.517   2.575  50.896  1.00  0.00     0.275 A 
HETATM    4  C12 UNL     1      25.112   2.378  51.373  1.00  0.00    -0.004 A 
HETATM    5  C13 UNL     1      24.371   3.478  50.996  1.00  0.00    -0.018 A 
HETATM    6  C14 UNL     1      23.039   3.505  51.352  1.00  0.00     0.013 A 
HETATM    7  C15 UNL     1      22.507   2.448  52.057  1.00  0.00     0.013 A 
HETATM    8  C16 UNL     1      23.271   1.340  52.431  1.00  0.00    -0.019 A 
HETATM    9  C23 UNL     1      24.600   1.331  52.068  1.00  0.00    -0.041 A 
HETATM   10  C24 UNL     1      25.401   0.163  52.460  1.00  0.00     0.049 C 
ENDROOT
BRANCH   1  11
HETATM   11  C7  UNL     1      24.818   5.750  49.657  1.00  0.00     0.115 C 
HETATM   12  C6  UNL     1      24.283   6.770  50.611  1.00  0.00     0.154 C 
HETATM   13  C5  UNL     1      24.617   8.140  50.063  1.00  0.00     0.038 C 
HETATM   14  C4  UNL     1      23.477   8.753  49.292  1.00  0.00     0.032 C 
HETATM   15  C3  UNL     1      22.703   7.705  48.592  1.00  0.00    -0.003 C 
HETATM   16  C2  UNL     1      22.709   6.427  48.243  1.00  0.00    -0.002 C 
HETATM   17  C1  UNL     1      21.592   5.775  47.471  1.00  0.00     0.067 C 
HETATM   18  N2  UNL     1      23.830   5.594  48.607  1.00  0.00    -0.376 N 
HETATM   19  H26 UNL     1      23.931   4.730  47.995  1.00  0.00     0.160 HD
BRANCH  12  20
HETATM   20  O1  UNL     1      24.582   6.586  51.932  1.00  0.00    -0.393 OA
HETATM   21  H10 UNL     1      24.076   7.265  52.446  1.00  0.00     0.210 HD
ENDBRANCH  12  20
BRANCH  11  22
HETATM   22  C8  UNL     1      26.050   6.245  48.955  1.00  0.00     0.430 C 
HETATM   23  O2  UNL     1      26.648   6.698  47.996  1.00  0.00    -0.427 OA
ENDBRANCH  11  22
ENDBRANCH   1  11
BRANCH   3  24
HETATM   24  N1  UNL     1      27.342   2.801  52.070  1.00  0.00     0.090 N 
HETATM   25  H14 UNL     1      27.526   1.857  52.523  1.00  0.00     0.314 HD
HETATM   26  H15 UNL     1      26.792   3.339  52.791  1.00  0.00     0.314 HD
ENDBRANCH   3  24
BRANCH   8  27
HETATM   27  C17 UNL     1      22.571   0.302  53.177  1.00  0.00    -0.025 A 
HETATM   28  C18 UNL     1      23.038  -0.522  54.177  1.00  0.00     0.012 A 
HETATM   29  C19 UNL     1      22.225  -1.448  54.763  1.00  0.00     0.001 A 
HETATM   30  C20 UNL     1      20.906  -1.626  54.406  1.00  0.00     0.000 A 
HETATM   31  C21 UNL     1      20.421  -0.809  53.405  1.00  0.00     0.001 A 
HETATM   32  C22 UNL     1      21.234   0.123  52.814  1.00  0.00     0.012 A 
ENDBRANCH   8  27
TORSDOF 5
ENDMDL
MODEL 6
REMARK VINA RESULT:      -8.3      4.394      7.011
REMARK  5 active torsions:
REMARK  status: ('A' for Active; 'I' for Inactive)
REMARK    1  A    between atoms: C6_6  and  O1_7 
REMARK    2  A    between atoms: C7_8  and  C8_9 
REMARK    3  A    between atoms: C7_8  and  C9_11 
REMARK    4  A    between atoms: C11_13  and  N1_14 
REMARK    5  A    between atoms: C16_19  and  C17_20 
ROOT
HETATM    1  C9  UNL     1      25.515   7.295  49.775  1.00  0.00    -0.015 A 
HETATM    2  C10 UNL     1      24.649   8.062  50.460  1.00  0.00     0.023 A 
HETATM    3  C11 UNL     1      23.692   7.345  51.344  1.00  0.00     0.275 A 
HETATM    4  C12 UNL     1      24.134   5.935  51.106  1.00  0.00    -0.004 A 
HETATM    5  C13 UNL     1      25.173   5.957  50.198  1.00  0.00    -0.018 A 
HETATM    6  C14 UNL     1      25.723   4.748  49.827  1.00  0.00     0.013 A 
HETATM    7  C15 UNL     1      25.225   3.585  50.370  1.00  0.00     0.013 A 
HETATM    8  C16 UNL     1      24.174   3.580  51.289  1.00  0.00    -0.019 A 
HETATM    9  C23 UNL     1      23.635   4.795  51.648  1.00  0.00    -0.041 A 
HETATM   10  C24 UNL     1      22.531   4.788  52.616  1.00  0.00     0.049 C 
ENDROOT
BRANCH   1  11
HETATM   11  C7  UNL     1      26.533   7.827  48.855  1.00  0.00     0.115 C 
HETATM   12  C6  UNL     1      26.176   7.733  47.406  1.00  0.00     0.154 C 
HETATM   13  C5  UNL     1      26.902   8.840  46.674  1.00  0.00     0.038 C 
HETATM   14  C4  UNL     1      28.189   8.375  46.043  1.00  0.00     0.032 C 
HETATM   15  C3  UNL     1      28.820   7.323  46.868  1.00  0.00    -0.003 C 
HETATM   16  C2  UNL     1      28.778   6.724  48.049  1.00  0.00    -0.002 C 
HETATM   17  C1  UNL     1      29.714   5.612  48.446  1.00  0.00     0.067 C 
HETATM   18  N2  UNL     1      27.799   7.138  49.024  1.00  0.00    -0.376 N 
HETATM   19  H26 UNL     1      28.064   6.888  50.024  1.00  0.00     0.160 HD
BRANCH  12  20
HETATM   20  O1  UNL     1      24.846   7.618  47.111  1.00  0.00    -0.393 OA
HETATM   21  H10 UNL     1      24.424   8.493  47.305  1.00  0.00     0.210 HD
ENDBRANCH  12  20
BRANCH  11  22
HETATM   22  C8  UNL     1      26.811   9.245  49.262  1.00  0.00     0.430 C 
HETATM   23  O2  UNL     1      27.310  10.094  49.978  1.00  0.00    -0.427 OA
ENDBRANCH  11  22
ENDBRANCH   1  11
BRANCH   3  24
HETATM   24  N1  UNL     1      22.381   7.493  50.736  1.00  0.00     0.090 N 
HETATM   25  H14 UNL     1      22.386   6.953  49.820  1.00  0.00     0.314 HD
HETATM   26  H15 UNL     1      22.235   8.498  50.451  1.00  0.00     0.314 HD
ENDBRANCH   3  24
BRANCH   8  27
HETATM   27  C17 UNL     1      23.753   2.270  51.773  1.00  0.00    -0.025 A 
HETATM   28  C18 UNL     1      22.648   1.525  51.428  1.00  0.00     0.012 A 
HETATM   29  C19 UNL     1      22.415   0.306  51.997  1.00  0.00     0.001 A 
HETATM   30  C20 UNL     1      23.248  -0.256  52.939  1.00  0.00     0.000 A 
HETATM   31  C21 UNL     1      24.361   0.477  53.298  1.00  0.00     0.001 A 
HETATM   32  C22 UNL     1      24.598   1.701  52.728  1.00  0.00     0.012 A 
ENDBRANCH   8  27
TORSDOF 5
ENDMDL
MODEL 7
REMARK VINA RESULT:      -8.2      3.133      5.295
REMARK  5 active torsions:
REMARK  status: ('A' for Active; 'I' for Inactive)
REMARK    1  A    between atoms: C6_6  and  O1_7 
REMARK    2  A    between atoms: C7_8  and  C8_9 
REMARK    3  A    between atoms: C7_8  and  C9_11 
REMARK    4  A    between atoms: C11_13  and  N1_14 
REMARK    5  A    between atoms: C16_19  and  C17_20 
ROOT
HETATM    1  C9  UNL     1      25.087   4.443  50.128  1.00  0.00    -0.015 A 
HETATM    2  C10 UNL     1      26.311   3.889  50.052  1.00  0.00     0.023 A 
HETATM    3  C11 UNL     1      26.487   2.585  50.745  1.00  0.00     0.275 A 
HETATM    4  C12 UNL     1      25.101   2.392  51.276  1.00  0.00    -0.004 A 
HETATM    5  C13 UNL     1      24.341   3.481  50.904  1.00  0.00    -0.018 A 
HETATM    6  C14 UNL     1      23.023   3.508  51.308  1.00  0.00     0.013 A 
HETATM    7  C15 UNL     1      22.523   2.463  52.054  1.00  0.00     0.013 A 
HETATM    8  C16 UNL     1      23.306   1.367  52.422  1.00  0.00    -0.019 A 
HETATM    9  C23 UNL     1      24.621   1.357  52.011  1.00  0.00    -0.041 A 
HETATM   10  C24 UNL     1      25.442   0.201  52.396  1.00  0.00     0.049 C 
ENDROOT
BRANCH   1  11
HETATM   11  C7  UNL     1      24.727   5.727  49.504  1.00  0.00     0.115 C 
HETATM   12  C6  UNL     1      23.869   5.611  48.285  1.00  0.00     0.154 C 
HETATM   13  C5  UNL     1      23.061   6.883  48.162  1.00  0.00     0.038 C 
HETATM   14  C4  UNL     1      23.683   7.880  47.219  1.00  0.00     0.032 C 
HETATM   15  C3  UNL     1      25.158   7.793  47.273  1.00  0.00    -0.003 C 
HETATM   16  C2  UNL     1      26.173   7.279  47.953  1.00  0.00    -0.002 C 
HETATM   17  C1  UNL     1      27.615   7.497  47.576  1.00  0.00     0.067 C 
HETATM   18  N2  UNL     1      25.913   6.468  49.118  1.00  0.00    -0.376 N 
HETATM   19  H26 UNL     1      26.736   6.416  49.789  1.00  0.00     0.160 HD
BRANCH  12  20
HETATM   20  O1  UNL     1      23.154   4.454  48.151  1.00  0.00    -0.393 OA
HETATM   21  H10 UNL     1      22.286   4.690  47.735  1.00  0.00     0.210 HD
ENDBRANCH  12  20
BRANCH  11  22
HETATM   22  C8  UNL     1      24.074   6.572  50.560  1.00  0.00     0.430 C 
HETATM   23  O2  UNL     1      23.985   7.565  51.257  1.00  0.00    -0.427 OA
ENDBRANCH  11  22
ENDBRANCH   1  11
BRANCH   3  24
HETATM   24  N1  UNL     1      27.353   2.840  51.883  1.00  0.00     0.090 N 
HETATM   25  H14 UNL     1      28.252   3.273  51.515  1.00  0.00     0.314 HD
HETATM   26  H15 UNL     1      27.655   1.924  52.309  1.00  0.00     0.314 HD
ENDBRANCH   3  24
BRANCH   8  27
HETATM   27  C17 UNL     1      22.639   0.341  53.214  1.00  0.00    -0.025 A 
HETATM   28  C18 UNL     1      23.140  -0.442  54.230  1.00  0.00     0.012 A 
HETATM   29  C19 UNL     1      22.355  -1.364  54.861  1.00  0.00     0.001 A 
HETATM   30  C20 UNL     1      21.033  -1.576  54.535  1.00  0.00     0.000 A 
HETATM   31  C21 UNL     1      20.514  -0.799  53.519  1.00  0.00     0.001 A 
HETATM   32  C22 UNL     1      21.299   0.127  52.883  1.00  0.00     0.012 A 
ENDBRANCH   8  27
TORSDOF 5
ENDMDL
MODEL 8
REMARK VINA RESULT:      -8.0      3.151      6.276
REMARK  5 active torsions:
REMARK  status: ('A' for Active; 'I' for Inactive)
REMARK    1  A    between atoms: C6_6  and  O1_7 
REMARK    2  A    between atoms: C7_8  and  C8_9 
REMARK    3  A    between atoms: C7_8  and  C9_11 
REMARK    4  A    between atoms: C11_13  and  N1_14 
REMARK    5  A    between atoms: C16_19  and  C17_20 
ROOT
HETATM    1  C9  UNL     1      24.332   3.355  50.768  1.00  0.00    -0.015 A 
HETATM    2  C10 UNL     1      25.258   2.530  51.287  1.00  0.00     0.023 A 
HETATM    3  C11 UNL     1      24.746   1.295  51.938  1.00  0.00     0.275 A 
HETATM    4  C12 UNL     1      23.278   1.479  51.713  1.00  0.00    -0.004 A 
HETATM    5  C13 UNL     1      23.090   2.672  51.047  1.00  0.00    -0.018 A 
HETATM    6  C14 UNL     1      21.796   3.043  50.751  1.00  0.00     0.013 A 
HETATM    7  C15 UNL     1      20.756   2.219  51.123  1.00  0.00     0.013 A 
HETATM    8  C16 UNL     1      20.963   1.013  51.795  1.00  0.00    -0.019 A 
HETATM    9  C23 UNL     1      22.262   0.659  52.085  1.00  0.00    -0.041 A 
HETATM   10  C24 UNL     1      22.478  -0.611  52.791  1.00  0.00     0.049 C 
ENDROOT
BRANCH   1  11
HETATM   11  C7  UNL     1      24.650   4.621  50.086  1.00  0.00     0.115 C 
HETATM   12  C6  UNL     1      24.270   5.852  50.844  1.00  0.00     0.154 C 
HETATM   13  C5  UNL     1      25.194   6.969  50.412  1.00  0.00     0.038 C 
HETATM   14  C4  UNL     1      24.590   7.845  49.345  1.00  0.00     0.032 C 
HETATM   15  C3  UNL     1      23.716   7.050  48.455  1.00  0.00    -0.003 C 
HETATM   16  C2  UNL     1      23.370   5.815  48.126  1.00  0.00    -0.002 C 
HETATM   17  C1  UNL     1      22.346   5.498  47.067  1.00  0.00     0.067 C 
HETATM   18  N2  UNL     1      23.989   4.697  48.796  1.00  0.00    -0.376 N 
HETATM   19  H26 UNL     1      23.942   3.791  48.241  1.00  0.00     0.160 HD
BRANCH  12  20
HETATM   20  O1  UNL     1      24.120   5.714  52.196  1.00  0.00    -0.393 OA
HETATM   21  H10 UNL     1      23.148   5.674  52.382  1.00  0.00     0.210 HD
ENDBRANCH  12  20
BRANCH  11  22
HETATM   22  C8  UNL     1      26.116   4.602  49.765  1.00  0.00     0.430 C 
HETATM   23  O2  UNL     1      27.065   4.661  49.003  1.00  0.00    -0.427 OA
ENDBRANCH  11  22
ENDBRANCH   1  11
BRANCH   3  24
HETATM   24  N1  UNL     1      24.986   1.452  53.363  1.00  0.00     0.090 N 
HETATM   25  H14 UNL     1      25.417   0.548  53.719  1.00  0.00     0.314 HD
HETATM   26  H15 UNL     1      24.066   1.527  53.870  1.00  0.00     0.314 HD
ENDBRANCH   3  24
BRANCH   8  27
HETATM   27  C17 UNL     1      19.765   0.251  52.126  1.00  0.00    -0.025 A 
HETATM   28  C18 UNL     1      19.488  -0.499  53.247  1.00  0.00     0.012 A 
HETATM   29  C19 UNL     1      18.297  -1.153  53.380  1.00  0.00     0.001 A 
HETATM   30  C20 UNL     1      17.306  -1.114  52.424  1.00  0.00     0.000 A 
HETATM   31  C21 UNL     1      17.566  -0.367  51.293  1.00  0.00     0.001 A 
HETATM   32  C22 UNL     1      18.761   0.291  51.156  1.00  0.00     0.012 A 
ENDBRANCH   8  27
TORSDOF 5
ENDMDL
MODEL 9
REMARK VINA RESULT:      -8.0      8.261     11.721
REMARK  5 active torsions:
REMARK  status: ('A' for Active; 'I' for Inactive)
REMARK    1  A    between atoms: C6_6  and  O1_7 
REMARK    2  A    between atoms: C7_8  and  C8_9 
REMARK    3  A    between atoms: C7_8  and  C9_11 
REMARK    4  A    between atoms: C11_13  and  N1_14 
REMARK    5  A    between atoms: C16_19  and  C17_20 
ROOT
HETATM    1  C9  UNL     1      32.290   6.512  47.872  1.00  0.00    -0.015 A 
HETATM    2  C10 UNL     1      32.436   7.788  48.272  1.00  0.00     0.023 A 
HETATM    3  C11 UNL     1      31.193   8.493  48.684  1.00  0.00     0.275 A 
HETATM    4  C12 UNL     1      30.199   7.392  48.487  1.00  0.00    -0.004 A 
HETATM    5  C13 UNL     1      30.872   6.283  48.017  1.00  0.00    -0.018 A 
HETATM    6  C14 UNL     1      30.132   5.150  47.754  1.00  0.00     0.013 A 
HETATM    7  C15 UNL     1      28.772   5.166  47.970  1.00  0.00     0.013 A 
HETATM    8  C16 UNL     1      28.105   6.296  48.448  1.00  0.00    -0.019 A 
HETATM    9  C23 UNL     1      28.860   7.421  48.703  1.00  0.00    -0.041 A 
HETATM   10  C24 UNL     1      28.157   8.608  49.208  1.00  0.00     0.049 C 
ENDROOT
BRANCH   1  11
HETATM   11  C7  UNL     1      33.406   5.658  47.431  1.00  0.00     0.115 C 
HETATM   12  C6  UNL     1      33.419   5.353  45.968  1.00  0.00     0.154 C 
HETATM   13  C5  UNL     1      34.851   5.090  45.560  1.00  0.00     0.038 C 
HETATM   14  C4  UNL     1      35.188   3.622  45.527  1.00  0.00     0.032 C 
HETATM   15  C3  UNL     1      34.439   2.896  46.574  1.00  0.00    -0.003 C 
HETATM   16  C2  UNL     1      33.689   3.055  47.655  1.00  0.00    -0.002 C 
HETATM   17  C1  UNL     1      33.113   1.904  48.439  1.00  0.00     0.067 C 
HETATM   18  N2  UNL     1      33.393   4.386  48.128  1.00  0.00    -0.376 N 
HETATM   19  H26 UNL     1      33.124   4.419  49.157  1.00  0.00     0.160 HD
BRANCH  12  20
HETATM   20  O1  UNL     1      32.734   6.217  45.159  1.00  0.00    -0.393 OA
HETATM   21  H10 UNL     1      32.191   6.802  45.744  1.00  0.00     0.210 HD
ENDBRANCH  12  20
BRANCH  11  22
HETATM   22  C8  UNL     1      34.680   6.322  47.867  1.00  0.00     0.430 C 
HETATM   23  O2  UNL     1      35.589   6.523  48.651  1.00  0.00    -0.427 OA
ENDBRANCH  11  22
ENDBRANCH   1  11
BRANCH   3  24
HETATM   24  N1  UNL     1      30.933   9.495  47.663  1.00  0.00     0.090 N 
HETATM   25  H14 UNL     1      31.833  10.039  47.508  1.00  0.00     0.314 HD
HETATM   26  H15 UNL     1      30.251  10.209  48.035  1.00  0.00     0.314 HD
ENDBRANCH   3  24
BRANCH   8  27
HETATM   27  C17 UNL     1      26.664   6.164  48.623  1.00  0.00    -0.025 A 
HETATM   28  C18 UNL     1      25.649   6.970  48.157  1.00  0.00     0.012 A 
HETATM   29  C19 UNL     1      24.342   6.684  48.429  1.00  0.00     0.001 A 
HETATM   30  C20 UNL     1      23.949   5.592  49.172  1.00  0.00     0.000 A 
HETATM   31  C21 UNL     1      24.954   4.773  49.648  1.00  0.00     0.001 A 
HETATM   32  C22 UNL     1      26.267   5.057  49.377  1.00  0.00     0.012 A 
ENDBRANCH   8  27
TORSDOF 5
ENDMDL
