MODEL 1
REMARK VINA RESULT:      -8.5      0.000      0.000
REMARK  1 active torsions:
REMARK  status: ('A' for Active; 'I' for Inactive)
REMARK       I    between atoms: N1_7  and  C7_8 
REMARK       I    between atoms: C7_8  and  N2_10 
REMARK    1  A    between atoms: N3_13  and  C10_14 
ROOT
HETATM    1  C10 UNL     1      17.480  -0.638  52.308  1.00  0.00     0.114 C 
HETATM    2  C11 UNL     1      17.433  -1.768  53.046  1.00  0.00     0.417 C 
HETATM    3  F1  UNL     1      17.183  -2.915  53.707  1.00  0.00    -0.429 F 
ENDROOT
BRANCH   1   4
HETATM    4  N3  UNL     1      18.791  -0.231  52.609  1.00  0.00    -0.385 N 
HETATM    5  C9  UNL     1      19.044   1.025  51.967  1.00  0.00     0.142 C 
HETATM    6  C8  UNL     1      20.189   1.801  52.618  1.00  0.00     0.146 C 
HETATM    7  N2  UNL     1      21.289   0.942  52.833  1.00  0.00    -0.336 N 
HETATM    8  C7  UNL     1      22.688   1.280  52.756  1.00  0.00     0.350 C 
HETATM    9  C13 UNL     1      21.171  -0.452  53.167  1.00  0.00     0.146 C 
HETATM   10  N1  UNL     1      23.820   0.393  53.002  1.00  0.00     0.018 N 
HETATM   11  O1  UNL     1      22.122   2.429  52.442  1.00  0.00    -0.144 OA
HETATM   12  C6  UNL     1      25.177   0.882  52.845  1.00  0.00     0.184 A 
HETATM   13  H8  UNL     1      24.044   1.311  52.723  1.00  0.00     0.327 HD
HETATM   14  C14 UNL     1      25.102  -0.189  53.919  1.00  0.00     0.241 A 
HETATM   15  C5  UNL     1      25.996   1.848  52.431  1.00  0.00     0.030 C 
HETATM   16  C4  UNL     1      27.475   1.650  52.600  1.00  0.00    -0.014 C 
HETATM   17  C3  UNL     1      28.561   0.932  53.019  1.00  0.00     0.049 C 
HETATM   18  C2  UNL     1      28.452  -0.474  53.762  1.00  0.00     0.122 C 
HETATM   19  C1  UNL     1      29.717  -1.162  53.689  1.00  0.00     0.040 C 
HETATM   20  O2  UNL     1      28.161  -0.026  55.083  1.00  0.00    -0.385 OA
HETATM   21  C16 UNL     1      26.847   0.265  55.156  1.00  0.00     0.175 C 
HETATM   22  C15 UNL     1      25.760  -0.636  55.008  1.00  0.00     0.051 C 
HETATM   23  C12 UNL     1      19.779  -0.893  53.422  1.00  0.00     0.142 C 
ENDBRANCH   1   4
TORSDOF 1
ENDMDL
MODEL 2
REMARK VINA RESULT:      -7.8      2.143      2.319
REMARK  1 active torsions:
REMARK  status: ('A' for Active; 'I' for Inactive)
REMARK       I    between atoms: N1_7  and  C7_8 
REMARK       I    between atoms: C7_8  and  N2_10 
REMARK    1  A    between atoms: N3_13  and  C10_14 
ROOT
HETATM    1  C10 UNL     1      17.942   1.500  50.302  1.00  0.00     0.114 C 
HETATM    2  C11 UNL     1      17.373   2.622  50.789  1.00  0.00     0.417 C 
HETATM    3  F1  UNL     1      16.631   3.685  51.159  1.00  0.00    -0.429 F 
ENDROOT
BRANCH   1   4
HETATM    4  N3  UNL     1      19.193   1.591  50.938  1.00  0.00    -0.385 N 
HETATM    5  C9  UNL     1      19.697   2.922  50.777  1.00  0.00     0.142 C 
HETATM    6  C8  UNL     1      20.747   3.286  51.827  1.00  0.00     0.146 C 
HETATM    7  N2  UNL     1      21.686   2.239  51.950  1.00  0.00    -0.336 N 
HETATM    8  C7  UNL     1      23.095   2.359  52.227  1.00  0.00     0.350 C 
HETATM    9  C13 UNL     1      21.365   0.845  51.803  1.00  0.00     0.146 C 
HETATM   10  N1  UNL     1      24.058   1.272  52.374  1.00  0.00     0.018 N 
HETATM   11  O1  UNL     1      22.725   3.625  52.196  1.00  0.00    -0.144 OA
HETATM   12  C6  UNL     1      25.457   1.565  52.617  1.00  0.00     0.184 A 
HETATM   13  H8  UNL     1      24.424   2.184  52.441  1.00  0.00     0.327 HD
HETATM   14  C14 UNL     1      25.051   0.255  53.270  1.00  0.00     0.241 A 
HETATM   15  C5  UNL     1      26.436   2.467  52.676  1.00  0.00     0.030 C 
HETATM   16  C4  UNL     1      27.818   1.998  53.028  1.00  0.00    -0.014 C 
HETATM   17  C3  UNL     1      28.715   1.028  53.383  1.00  0.00     0.049 C 
HETATM   18  C2  UNL     1      28.313  -0.497  53.616  1.00  0.00     0.122 C 
HETATM   19  C1  UNL     1      29.491  -1.326  53.551  1.00  0.00     0.040 C 
HETATM   20  O2  UNL     1      27.791  -0.410  54.939  1.00  0.00    -0.385 OA
HETATM   21  C16 UNL     1      26.527   0.052  54.870  1.00  0.00     0.175 C 
HETATM   22  C15 UNL     1      25.415  -0.584  54.261  1.00  0.00     0.051 C 
HETATM   23  C12 UNL     1      19.914   0.575  51.661  1.00  0.00     0.142 C 
ENDBRANCH   1   4
TORSDOF 1
ENDMDL
MODEL 3
REMARK VINA RESULT:      -7.7      3.529      8.347
REMARK  1 active torsions:
REMARK  status: ('A' for Active; 'I' for Inactive)
REMARK       I    between atoms: N1_7  and  C7_8 
REMARK       I    between atoms: C7_8  and  N2_10 
REMARK    1  A    between atoms: N3_13  and  C10_14 
ROOT
HETATM    1  C10 UNL     1      29.399   0.996  54.188  1.00  0.00     0.114 C 
HETATM    2  C11 UNL     1      29.651  -0.157  53.533  1.00  0.00     0.417 C 
HETATM    3  F1  UNL     1      30.109  -1.274  52.933  1.00  0.00    -0.429 F 
ENDROOT
BRANCH   1   4
HETATM    4  N3  UNL     1      28.007   1.057  54.004  1.00  0.00    -0.385 N 
HETATM    5  C9  UNL     1      27.444  -0.225  54.308  1.00  0.00     0.142 C 
HETATM    6  C8  UNL     1      25.955  -0.150  54.649  1.00  0.00     0.146 C 
HETATM    7  N2  UNL     1      25.285   0.652  53.700  1.00  0.00    -0.336 N 
HETATM    8  C7  UNL     1      23.943   0.479  53.203  1.00  0.00     0.350 C 
HETATM    9  C13 UNL     1      25.867   1.800  53.059  1.00  0.00     0.146 C 
HETATM   10  N1  UNL     1      23.248   1.325  52.238  1.00  0.00     0.018 N 
HETATM   11  O1  UNL     1      24.054  -0.547  54.025  1.00  0.00    -0.144 OA
HETATM   12  C6  UNL     1      21.903   0.990  51.812  1.00  0.00     0.184 A 
HETATM   13  H8  UNL     1      22.752   0.535  52.556  1.00  0.00     0.327 HD
HETATM   14  C14 UNL     1      22.122   2.492  51.800  1.00  0.00     0.241 A 
HETATM   15  C5  UNL     1      20.902   0.110  51.794  1.00  0.00     0.030 C 
HETATM   16  C4  UNL     1      19.644   0.477  51.062  1.00  0.00    -0.014 C 
HETATM   17  C3  UNL     1      18.874   1.341  50.331  1.00  0.00     0.049 C 
HETATM   18  C2  UNL     1      19.346   2.808  49.924  1.00  0.00     0.122 C 
HETATM   19  C1  UNL     1      18.538   3.293  48.833  1.00  0.00     0.040 C 
HETATM   20  O2  UNL     1      19.073   3.496  51.141  1.00  0.00    -0.385 OA
HETATM   21  C16 UNL     1      20.086   3.264  51.999  1.00  0.00     0.175 C 
HETATM   22  C15 UNL     1      21.442   3.656  51.850  1.00  0.00     0.051 C 
HETATM   23  C12 UNL     1      27.198   2.176  53.593  1.00  0.00     0.142 C 
ENDBRANCH   1   4
TORSDOF 1
ENDMDL
MODEL 4
REMARK VINA RESULT:      -7.6      1.341      1.463
REMARK  1 active torsions:
REMARK  status: ('A' for Active; 'I' for Inactive)
REMARK       I    between atoms: N1_7  and  C7_8 
REMARK       I    between atoms: C7_8  and  N2_10 
REMARK    1  A    between atoms: N3_13  and  C10_14 
ROOT
HETATM    1  C10 UNL     1      17.145   0.924  50.605  1.00  0.00     0.114 C 
HETATM    2  C11 UNL     1      16.845  -0.268  51.163  1.00  0.00     0.417 C 
HETATM    3  F1  UNL     1      16.355  -1.439  51.618  1.00  0.00    -0.429 F 
ENDROOT
BRANCH   1   4
HETATM    4  N3  UNL     1      18.442   1.090  51.119  1.00  0.00    -0.385 N 
HETATM    5  C9  UNL     1      18.944   2.367  50.704  1.00  0.00     0.142 C 
HETATM    6  C8  UNL     1      20.077   2.873  51.596  1.00  0.00     0.146 C 
HETATM    7  N2  UNL     1      21.015   1.840  51.814  1.00  0.00    -0.336 N 
HETATM    8  C7  UNL     1      22.443   1.973  51.957  1.00  0.00     0.350 C 
HETATM    9  C13 UNL     1      20.671   0.448  51.922  1.00  0.00     0.146 C 
HETATM   10  N1  UNL     1      23.404   0.904  52.204  1.00  0.00     0.018 N 
HETATM   11  O1  UNL     1      22.081   3.225  51.749  1.00  0.00    -0.144 OA
HETATM   12  C6  UNL     1      24.821   1.202  52.287  1.00  0.00     0.184 A 
HETATM   13  H8  UNL     1      23.783   1.807  52.093  1.00  0.00     0.327 HD
HETATM   14  C14 UNL     1      24.458   0.025  53.174  1.00  0.00     0.241 A 
HETATM   15  C5  UNL     1      25.810   2.081  52.121  1.00  0.00     0.030 C 
HETATM   16  C4  UNL     1      27.211   1.646  52.437  1.00  0.00    -0.014 C 
HETATM   17  C3  UNL     1      28.125   0.727  52.874  1.00  0.00     0.049 C 
HETATM   18  C2  UNL     1      27.731  -0.731  53.383  1.00  0.00     0.122 C 
HETATM   19  C1  UNL     1      28.893  -1.585  53.363  1.00  0.00     0.040 C 
HETATM   20  O2  UNL     1      27.318  -0.419  54.711  1.00  0.00    -0.385 OA
HETATM   21  C16 UNL     1      26.056   0.052  54.666  1.00  0.00     0.175 C 
HETATM   22  C15 UNL     1      24.893  -0.651  54.257  1.00  0.00     0.051 C 
HETATM   23  C12 UNL     1      19.211   0.190  51.940  1.00  0.00     0.142 C 
ENDBRANCH   1   4
TORSDOF 1
ENDMDL
MODEL 5
REMARK VINA RESULT:      -7.5      3.431      8.146
REMARK  1 active torsions:
REMARK  status: ('A' for Active; 'I' for Inactive)
REMARK       I    between atoms: N1_7  and  C7_8 
REMARK       I    between atoms: C7_8  and  N2_10 
REMARK    1  A    between atoms: N3_13  and  C10_14 
ROOT
HETATM    1  C10 UNL     1      29.110  -0.565  53.851  1.00  0.00     0.114 C 
HETATM    2  C11 UNL     1      28.915  -1.825  53.407  1.00  0.00     0.417 C 
HETATM    3  F1  UNL     1      28.914  -3.125  53.053  1.00  0.00    -0.429 F 
ENDROOT
BRANCH   1   4
HETATM    4  N3  UNL     1      27.913   0.018  53.398  1.00  0.00    -0.385 N 
HETATM    5  C9  UNL     1      27.606   1.146  54.226  1.00  0.00     0.142 C 
HETATM    6  C8  UNL     1      26.665   2.140  53.545  1.00  0.00     0.146 C 
HETATM    7  N2  UNL     1      25.586   1.449  52.951  1.00  0.00    -0.336 N 
HETATM    8  C7  UNL     1      24.223   1.900  52.829  1.00  0.00     0.350 C 
HETATM    9  C13 UNL     1      25.691   0.140  52.364  1.00  0.00     0.146 C 
HETATM   10  N1  UNL     1      23.117   1.191  52.195  1.00  0.00     0.018 N 
HETATM   11  O1  UNL     1      24.776   2.907  53.477  1.00  0.00    -0.144 OA
HETATM   12  C6  UNL     1      21.787   1.770  52.189  1.00  0.00     0.184 A 
HETATM   13  H8  UNL     1      22.893   2.056  52.610  1.00  0.00     0.327 HD
HETATM   14  C14 UNL     1      22.020   0.922  50.951  1.00  0.00     0.241 A 
HETATM   15  C5  UNL     1      20.956   2.714  52.631  1.00  0.00     0.030 C 
HETATM   16  C4  UNL     1      19.535   2.697  52.147  1.00  0.00    -0.014 C 
HETATM   17  C3  UNL     1      18.519   2.182  51.389  1.00  0.00     0.049 C 
HETATM   18  C2  UNL     1      18.699   0.940  50.406  1.00  0.00     0.122 C 
HETATM   19  C1  UNL     1      17.409   0.377  50.093  1.00  0.00     0.040 C 
HETATM   20  O2  UNL     1      19.280   1.602  49.286  1.00  0.00    -0.385 OA
HETATM   21  C16 UNL     1      20.595   1.773  49.526  1.00  0.00     0.175 C 
HETATM   22  C15 UNL     1      21.575   0.759  49.688  1.00  0.00     0.051 C 
HETATM   23  C12 UNL     1      27.079  -0.377  52.292  1.00  0.00     0.142 C 
ENDBRANCH   1   4
TORSDOF 1
ENDMDL
MODEL 6
REMARK VINA RESULT:      -7.5      4.767      8.353
REMARK  1 active torsions:
REMARK  status: ('A' for Active; 'I' for Inactive)
REMARK       I    between atoms: N1_7  and  C7_8 
REMARK       I    between atoms: C7_8  and  N2_10 
REMARK    1  A    between atoms: N3_13  and  C10_14 
ROOT
HETATM    1  C10 UNL     1      28.616   0.325  54.855  1.00  0.00     0.114 C 
HETATM    2  C11 UNL     1      29.378  -0.108  53.828  1.00  0.00     0.417 C 
HETATM    3  F1  UNL     1      30.283  -0.595  52.956  1.00  0.00    -0.429 F 
ENDROOT
BRANCH   1   4
HETATM    4  N3  UNL     1      27.503   0.782  54.128  1.00  0.00    -0.385 N 
HETATM    5  C9  UNL     1      26.480  -0.221  54.170  1.00  0.00     0.142 C 
HETATM    6  C8  UNL     1      25.088   0.344  53.887  1.00  0.00     0.146 C 
HETATM    7  N2  UNL     1      25.133   1.187  52.756  1.00  0.00    -0.336 N 
HETATM    8  C7  UNL     1      24.107   1.369  51.761  1.00  0.00     0.350 C 
HETATM    9  C13 UNL     1      26.257   2.016  52.412  1.00  0.00     0.146 C 
HETATM   10  N1  UNL     1      24.151   2.260  50.605  1.00  0.00     0.018 N 
HETATM   11  O1  UNL     1      23.553   0.468  52.549  1.00  0.00    -0.144 OA
HETATM   12  C6  UNL     1      23.041   2.298  49.672  1.00  0.00     0.184 A 
HETATM   13  H8  UNL     1      23.342   1.703  50.690  1.00  0.00     0.327 HD
HETATM   14  C14 UNL     1      23.727   3.650  49.763  1.00  0.00     0.241 A 
HETATM   15  C5  UNL     1      21.894   1.769  49.247  1.00  0.00     0.030 C 
HETATM   16  C4  UNL     1      21.206   2.406  48.075  1.00  0.00    -0.014 C 
HETATM   17  C3  UNL     1      21.103   3.365  47.105  1.00  0.00     0.049 C 
HETATM   18  C2  UNL     1      22.147   4.557  46.933  1.00  0.00     0.122 C 
HETATM   19  C1  UNL     1      22.023   5.126  45.613  1.00  0.00     0.040 C 
HETATM   20  O2  UNL     1      21.672   5.441  47.944  1.00  0.00    -0.385 OA
HETATM   21  C16 UNL     1      22.144   5.021  49.135  1.00  0.00     0.175 C 
HETATM   22  C15 UNL     1      23.501   4.962  49.545  1.00  0.00     0.051 C 
HETATM   23  C12 UNL     1      27.327   2.034  53.438  1.00  0.00     0.142 C 
ENDBRANCH   1   4
TORSDOF 1
ENDMDL
MODEL 7
REMARK VINA RESULT:      -7.4      4.701      5.258
REMARK  1 active torsions:
REMARK  status: ('A' for Active; 'I' for Inactive)
REMARK       I    between atoms: N1_7  and  C7_8 
REMARK       I    between atoms: C7_8  and  N2_10 
REMARK    1  A    between atoms: N3_13  and  C10_14 
ROOT
HETATM    1  C10 UNL     1      21.398   4.776  47.012  1.00  0.00     0.114 C 
HETATM    2  C11 UNL     1      21.870   3.957  46.048  1.00  0.00     0.417 C 
HETATM    3  F1  UNL     1      22.200   3.241  44.955  1.00  0.00    -0.429 F 
ENDROOT
BRANCH   1   4
HETATM    4  N3  UNL     1      22.192   4.336  48.085  1.00  0.00    -0.385 N 
HETATM    5  C9  UNL     1      22.891   5.461  48.633  1.00  0.00     0.142 C 
HETATM    6  C8  UNL     1      23.352   5.225  50.072  1.00  0.00     0.146 C 
HETATM    7  N2  UNL     1      23.964   3.957  50.178  1.00  0.00    -0.336 N 
HETATM    8  C7  UNL     1      25.072   3.591  51.024  1.00  0.00     0.350 C 
HETATM    9  C13 UNL     1      23.562   2.801  49.422  1.00  0.00     0.146 C 
HETATM   10  N1  UNL     1      25.687   2.273  51.145  1.00  0.00     0.018 N 
HETATM   11  O1  UNL     1      24.940   4.874  51.304  1.00  0.00    -0.144 OA
HETATM   12  C6  UNL     1      26.826   2.078  52.021  1.00  0.00     0.184 A 
HETATM   13  H8  UNL     1      26.099   2.992  51.679  1.00  0.00     0.327 HD
HETATM   14  C14 UNL     1      25.981   0.820  51.934  1.00  0.00     0.241 A 
HETATM   15  C5  UNL     1      27.773   2.614  52.792  1.00  0.00     0.030 C 
HETATM   16  C4  UNL     1      28.739   1.693  53.478  1.00  0.00    -0.014 C 
HETATM   17  C3  UNL     1      29.215   0.448  53.789  1.00  0.00     0.049 C 
HETATM   18  C2  UNL     1      28.544  -0.903  53.274  1.00  0.00     0.122 C 
HETATM   19  C1  UNL     1      29.483  -1.990  53.398  1.00  0.00     0.040 C 
HETATM   20  O2  UNL     1      27.472  -1.011  54.207  1.00  0.00    -0.385 OA
HETATM   21  C16 UNL     1      26.472  -0.204  53.804  1.00  0.00     0.175 C 
HETATM   22  C15 UNL     1      25.709  -0.314  52.612  1.00  0.00     0.051 C 
HETATM   23  C12 UNL     1      22.333   3.006  48.619  1.00  0.00     0.142 C 
ENDBRANCH   1   4
TORSDOF 1
ENDMDL
MODEL 8
REMARK VINA RESULT:      -7.0      4.077      5.172
REMARK  1 active torsions:
REMARK  status: ('A' for Active; 'I' for Inactive)
REMARK       I    between atoms: N1_7  and  C7_8 
REMARK       I    between atoms: C7_8  and  N2_10 
REMARK    1  A    between atoms: N3_13  and  C10_14 
ROOT
HETATM    1  C10 UNL     1      19.668   6.474  48.894  1.00  0.00     0.114 C 
HETATM    2  C11 UNL     1      20.148   7.444  49.701  1.00  0.00     0.417 C 
HETATM    3  F1  UNL     1      20.488   8.543  50.404  1.00  0.00    -0.429 F 
ENDROOT
BRANCH   1   4
HETATM    4  N3  UNL     1      20.436   5.394  49.363  1.00  0.00    -0.385 N 
HETATM    5  C9  UNL     1      19.555   4.397  49.895  1.00  0.00     0.142 C 
HETATM    6  C8  UNL     1      20.195   3.010  49.945  1.00  0.00     0.146 C 
HETATM    7  N2  UNL     1      21.492   3.100  50.496  1.00  0.00    -0.336 N 
HETATM    8  C7  UNL     1      22.155   2.129  51.329  1.00  0.00     0.350 C 
HETATM    9  C13 UNL     1      22.373   4.220  50.307  1.00  0.00     0.146 C 
HETATM   10  N1  UNL     1      23.505   2.217  51.878  1.00  0.00     0.018 N 
HETATM   11  O1  UNL     1      20.984   1.553  51.136  1.00  0.00    -0.144 OA
HETATM   12  C6  UNL     1      24.014   1.164  52.735  1.00  0.00     0.184 A 
HETATM   13  H8  UNL     1      22.986   1.420  52.135  1.00  0.00     0.327 HD
HETATM   14  C14 UNL     1      25.133   1.809  51.937  1.00  0.00     0.241 A 
HETATM   15  C5  UNL     1      23.777   0.058  53.441  1.00  0.00     0.030 C 
HETATM   16  C4  UNL     1      24.921  -0.576  54.177  1.00  0.00    -0.014 C 
HETATM   17  C3  UNL     1      26.238  -0.647  54.541  1.00  0.00     0.049 C 
HETATM   18  C2  UNL     1      27.348   0.374  54.026  1.00  0.00     0.122 C 
HETATM   19  C1  UNL     1      28.502   0.313  54.888  1.00  0.00     0.040 C 
HETATM   20  O2  UNL     1      27.609  -0.182  52.740  1.00  0.00    -0.385 OA
HETATM   21  C16 UNL     1      26.646   0.230  51.893  1.00  0.00     0.175 C 
HETATM   22  C15 UNL     1      26.379   1.562  51.482  1.00  0.00     0.051 C 
HETATM   23  C12 UNL     1      21.866   5.227  49.344  1.00  0.00     0.142 C 
ENDBRANCH   1   4
TORSDOF 1
ENDMDL
MODEL 9
REMARK VINA RESULT:      -6.8      6.299      8.378
REMARK  1 active torsions:
REMARK  status: ('A' for Active; 'I' for Inactive)
REMARK       I    between atoms: N1_7  and  C7_8 
REMARK       I    between atoms: C7_8  and  N2_10 
REMARK    1  A    between atoms: N3_13  and  C10_14 
ROOT
HETATM    1  C10 UNL     1      25.133  -0.118  53.066  1.00  0.00     0.114 C 
HETATM    2  C11 UNL     1      26.253  -0.701  52.587  1.00  0.00     0.417 C 
HETATM    3  F1  UNL     1      27.306  -1.457  52.220  1.00  0.00    -0.429 F 
ENDROOT
BRANCH   1   4
HETATM    4  N3  UNL     1      25.268   1.147  52.470  1.00  0.00    -0.385 N 
HETATM    5  C9  UNL     1      24.018   1.842  52.570  1.00  0.00     0.142 C 
HETATM    6  C8  UNL     1      24.173   3.358  52.447  1.00  0.00     0.146 C 
HETATM    7  N2  UNL     1      25.009   3.667  51.351  1.00  0.00    -0.336 N 
HETATM    8  C7  UNL     1      24.907   4.802  50.469  1.00  0.00     0.350 C 
HETATM    9  C13 UNL     1      26.123   2.859  50.933  1.00  0.00     0.146 C 
HETATM   10  N1  UNL     1      25.787   5.127  49.351  1.00  0.00     0.018 N 
HETATM   11  O1  UNL     1      23.878   4.998  51.270  1.00  0.00    -0.144 OA
HETATM   12  C6  UNL     1      25.524   6.296  48.533  1.00  0.00     0.184 A 
HETATM   13  H8  UNL     1      25.025   5.736  49.492  1.00  0.00     0.327 HD
HETATM   14  C14 UNL     1      27.012   6.006  48.610  1.00  0.00     0.241 A 
HETATM   15  C5  UNL     1      24.699   7.288  48.200  1.00  0.00     0.030 C 
HETATM   16  C4  UNL     1      25.131   8.245  47.127  1.00  0.00    -0.014 C 
HETATM   17  C3  UNL     1      26.034   8.711  46.211  1.00  0.00     0.049 C 
HETATM   18  C2  UNL     1      27.473   8.063  45.986  1.00  0.00     0.122 C 
HETATM   19  C1  UNL     1      27.999   8.477  44.709  1.00  0.00     0.040 C 
HETATM   20  O2  UNL     1      28.177   8.655  47.074  1.00  0.00    -0.385 OA
HETATM   21  C16 UNL     1      27.893   7.964  48.195  1.00  0.00     0.175 C 
HETATM   22  C15 UNL     1      28.211   6.608  48.469  1.00  0.00     0.051 C 
HETATM   23  C12 UNL     1      26.428   1.735  51.850  1.00  0.00     0.142 C 
ENDBRANCH   1   4
TORSDOF 1
ENDMDL
