MODEL 1
REMARK VINA RESULT:      -7.8      0.000      0.000
REMARK  4 active torsions:
REMARK  status: ('A' for Active; 'I' for Inactive)
REMARK    1  A    between atoms: O1_2  and  C2_3 
REMARK    2  A    between atoms: C8_9  and  C9_10 
REMARK       I    between atoms: C9_10  and  N1_12 
REMARK    3  A    between atoms: N1_12  and  C10_13 
REMARK    4  A    between atoms: C16_19  and  S1_20 
ROOT
HETATM    1  C2  UNL     1      21.993  -0.357  53.257  1.00  0.00     0.081 A 
HETATM    2  C3  UNL     1      20.633  -0.561  53.313  1.00  0.00     0.038 A 
HETATM    3  C4  UNL     1      19.732   0.260  52.676  1.00  0.00     0.005 A 
HETATM    4  C5  UNL     1      20.256   1.319  51.965  1.00  0.00     0.031 A 
HETATM    5  C6  UNL     1      21.614   1.532  51.903  1.00  0.00     0.049 A 
HETATM    6  C7  UNL     1      22.486   0.697  52.548  1.00  0.00     0.043 A 
HETATM    7  C8  UNL     1      23.806   1.044  52.374  1.00  0.00     0.083 A 
HETATM    8  C16 UNL     1      23.685   2.171  51.555  1.00  0.00     0.121 A 
HETATM    9  N2  UNL     1      22.396   2.433  51.297  1.00  0.00    -0.342 N 
HETATM   10  C17 UNL     1      21.815   3.507  50.494  1.00  0.00     0.157 C 
ENDROOT
BRANCH   7  11
HETATM   11  C9  UNL     1      25.110   0.654  52.836  1.00  0.00     0.260 C 
HETATM   12  O2  UNL     1      25.359   0.880  54.077  1.00  0.00    -0.267 OA
HETATM   13  N1  UNL     1      26.236   0.053  52.247  1.00  0.00    -0.323 N 
HETATM   14  H7  UNL     1      26.056  -0.198  51.253  1.00  0.00     0.169 HD
BRANCH  13  15
HETATM   15  C10 UNL     1      27.501  -0.303  52.732  1.00  0.00     0.035 A 
HETATM   16  C11 UNL     1      27.846  -1.655  52.804  1.00  0.00     0.029 A 
HETATM   17  C12 UNL     1      29.057  -2.104  53.263  1.00  0.00     0.002 A 
HETATM   18  C13 UNL     1      29.992  -1.186  53.678  1.00  0.00     0.000 A 
HETATM   19  C14 UNL     1      29.742   0.167  53.645  1.00  0.00     0.002 A 
HETATM   20  C15 UNL     1      28.507   0.527  53.172  1.00  0.00     0.029 A 
ENDBRANCH  13  15
ENDBRANCH   7  11
BRANCH   8  21
HETATM   21  S1  UNL     1      24.966   3.210  50.875  1.00  0.00     0.101 SA
HETATM   22  F1  UNL     1      24.946   3.122  49.166  1.00  0.00    -0.157 F 
ENDBRANCH   8  21
BRANCH   1  23
HETATM   23  O1  UNL     1      22.790  -1.238  53.922  1.00  0.00    -0.355 OA
HETATM   24  C1  UNL     1      22.857  -1.309  55.323  1.00  0.00     0.210 C 
ENDBRANCH   1  23
TORSDOF 4
ENDMDL
MODEL 2
REMARK VINA RESULT:      -7.5      4.333      6.325
REMARK  4 active torsions:
REMARK  status: ('A' for Active; 'I' for Inactive)
REMARK    1  A    between atoms: O1_2  and  C2_3 
REMARK    2  A    between atoms: C8_9  and  C9_10 
REMARK       I    between atoms: C9_10  and  N1_12 
REMARK    3  A    between atoms: N1_12  and  C10_13 
REMARK    4  A    between atoms: C16_19  and  S1_20 
ROOT
HETATM    1  C2  UNL     1      27.253   5.840  48.531  1.00  0.00     0.081 A 
HETATM    2  C3  UNL     1      27.377   6.929  47.699  1.00  0.00     0.038 A 
HETATM    3  C4  UNL     1      26.313   7.733  47.363  1.00  0.00     0.005 A 
HETATM    4  C5  UNL     1      25.090   7.398  47.906  1.00  0.00     0.031 A 
HETATM    5  C6  UNL     1      24.955   6.312  48.739  1.00  0.00     0.049 A 
HETATM    6  C7  UNL     1      26.034   5.530  49.054  1.00  0.00     0.043 A 
HETATM    7  C8  UNL     1      25.729   4.494  49.907  1.00  0.00     0.083 A 
HETATM    8  C16 UNL     1      24.359   4.700  50.105  1.00  0.00     0.121 A 
HETATM    9  N2  UNL     1      23.935   5.766  49.412  1.00  0.00    -0.342 N 
HETATM   10  C17 UNL     1      22.592   6.336  49.325  1.00  0.00     0.157 C 
ENDROOT
BRANCH   7  11
HETATM   11  C9  UNL     1      26.354   3.343  50.498  1.00  0.00     0.260 C 
HETATM   12  O2  UNL     1      26.886   2.508  49.678  1.00  0.00    -0.267 OA
HETATM   13  N1  UNL     1      26.545   2.878  51.810  1.00  0.00    -0.323 N 
HETATM   14  H7  UNL     1      26.177   3.555  52.510  1.00  0.00     0.169 HD
BRANCH  13  15
HETATM   15  C10 UNL     1      27.155   1.737  52.348  1.00  0.00     0.035 A 
HETATM   16  C11 UNL     1      28.310   1.884  53.119  1.00  0.00     0.029 A 
HETATM   17  C12 UNL     1      28.979   0.831  53.688  1.00  0.00     0.002 A 
HETATM   18  C13 UNL     1      28.498  -0.443  53.498  1.00  0.00     0.000 A 
HETATM   19  C14 UNL     1      27.367  -0.685  52.753  1.00  0.00     0.002 A 
HETATM   20  C15 UNL     1      26.762   0.424  52.222  1.00  0.00     0.029 A 
ENDBRANCH  13  15
ENDBRANCH   7  11
BRANCH   8  21
HETATM   21  S1  UNL     1      23.214   3.765  51.103  1.00  0.00     0.101 SA
HETATM   22  F1  UNL     1      23.626   3.909  52.758  1.00  0.00    -0.157 F 
ENDBRANCH   8  21
BRANCH   1  23
HETATM   23  O1  UNL     1      28.377   5.120  48.798  1.00  0.00    -0.355 OA
HETATM   24  C1  UNL     1      29.614   5.369  48.183  1.00  0.00     0.210 C 
ENDBRANCH   1  23
TORSDOF 4
ENDMDL
MODEL 3
REMARK VINA RESULT:      -7.5      2.896      4.782
REMARK  4 active torsions:
REMARK  status: ('A' for Active; 'I' for Inactive)
REMARK    1  A    between atoms: O1_2  and  C2_3 
REMARK    2  A    between atoms: C8_9  and  C9_10 
REMARK       I    between atoms: C9_10  and  N1_12 
REMARK    3  A    between atoms: N1_12  and  C10_13 
REMARK    4  A    between atoms: C16_19  and  S1_20 
ROOT
HETATM    1  C2  UNL     1      23.716   0.155  53.477  1.00  0.00     0.081 A 
HETATM    2  C3  UNL     1      23.524  -0.892  54.350  1.00  0.00     0.038 A 
HETATM    3  C4  UNL     1      22.290  -1.456  54.573  1.00  0.00     0.005 A 
HETATM    4  C5  UNL     1      21.230  -0.921  53.872  1.00  0.00     0.031 A 
HETATM    5  C6  UNL     1      21.411   0.126  52.997  1.00  0.00     0.049 A 
HETATM    6  C7  UNL     1      22.652   0.667  52.798  1.00  0.00     0.043 A 
HETATM    7  C8  UNL     1      22.660   1.696  51.884  1.00  0.00     0.083 A 
HETATM    8  C16 UNL     1      21.310   1.748  51.522  1.00  0.00     0.121 A 
HETATM    9  N2  UNL     1      20.605   0.822  52.187  1.00  0.00    -0.342 N 
HETATM   10  C17 UNL     1      19.175   0.527  52.121  1.00  0.00     0.157 C 
ENDROOT
BRANCH   7  11
HETATM   11  C9  UNL     1      23.565   2.672  51.343  1.00  0.00     0.260 C 
HETATM   12  O2  UNL     1      23.945   3.597  52.151  1.00  0.00    -0.267 OA
HETATM   13  N1  UNL     1      24.176   2.879  50.094  1.00  0.00    -0.323 N 
HETATM   14  H7  UNL     1      23.938   2.118  49.425  1.00  0.00     0.169 HD
BRANCH  13  15
HETATM   15  C10 UNL     1      25.050   3.856  49.600  1.00  0.00     0.035 A 
HETATM   16  C11 UNL     1      26.406   3.548  49.464  1.00  0.00     0.029 A 
HETATM   17  C12 UNL     1      27.339   4.434  48.991  1.00  0.00     0.002 A 
HETATM   18  C13 UNL     1      26.934   5.696  48.627  1.00  0.00     0.000 A 
HETATM   19  C14 UNL     1      25.619   6.089  48.726  1.00  0.00     0.002 A 
HETATM   20  C15 UNL     1      24.755   5.142  49.208  1.00  0.00     0.029 A 
ENDBRANCH  13  15
ENDBRANCH   7  11
BRANCH   8  21
HETATM   21  S1  UNL     1      20.498   2.832  50.362  1.00  0.00     0.101 SA
HETATM   22  F1  UNL     1      20.815   4.465  50.764  1.00  0.00    -0.157 F 
ENDBRANCH   8  21
BRANCH   1  23
HETATM   23  O1  UNL     1      24.984   0.630  53.333  1.00  0.00    -0.355 OA
HETATM   24  C1  UNL     1      26.010  -0.095  52.706  1.00  0.00     0.210 C 
ENDBRANCH   1  23
TORSDOF 4
ENDMDL
MODEL 4
REMARK VINA RESULT:      -7.5      2.575      3.886
REMARK  4 active torsions:
REMARK  status: ('A' for Active; 'I' for Inactive)
REMARK    1  A    between atoms: O1_2  and  C2_3 
REMARK    2  A    between atoms: C8_9  and  C9_10 
REMARK       I    between atoms: C9_10  and  N1_12 
REMARK    3  A    between atoms: N1_12  and  C10_13 
REMARK    4  A    between atoms: C16_19  and  S1_20 
ROOT
HETATM    1  C2  UNL     1      23.367   3.794  51.702  1.00  0.00     0.081 A 
HETATM    2  C3  UNL     1      22.480   4.786  51.353  1.00  0.00     0.038 A 
HETATM    3  C4  UNL     1      21.119   4.653  51.501  1.00  0.00     0.005 A 
HETATM    4  C5  UNL     1      20.669   3.459  52.025  1.00  0.00     0.031 A 
HETATM    5  C6  UNL     1      21.547   2.460  52.378  1.00  0.00     0.049 A 
HETATM    6  C7  UNL     1      22.896   2.623  52.217  1.00  0.00     0.043 A 
HETATM    7  C8  UNL     1      23.632   1.536  52.630  1.00  0.00     0.083 A 
HETATM    8  C16 UNL     1      22.621   0.676  53.070  1.00  0.00     0.121 A 
HETATM    9  N2  UNL     1      21.415   1.240  52.911  1.00  0.00    -0.342 N 
HETATM   10  C17 UNL     1      20.095   0.703  53.231  1.00  0.00     0.157 C 
ENDROOT
BRANCH   7  11
HETATM   11  C9  UNL     1      24.992   1.074  52.637  1.00  0.00     0.260 C 
HETATM   12  O2  UNL     1      25.570   1.007  51.489  1.00  0.00    -0.267 OA
HETATM   13  N1  UNL     1      25.899   0.662  53.628  1.00  0.00    -0.323 N 
HETATM   14  H7  UNL     1      25.488   0.755  54.580  1.00  0.00     0.169 HD
BRANCH  13  15
HETATM   15  C10 UNL     1      27.223   0.205  53.593  1.00  0.00     0.035 A 
HETATM   16  C11 UNL     1      28.256   1.089  53.916  1.00  0.00     0.029 A 
HETATM   17  C12 UNL     1      29.581   0.738  53.911  1.00  0.00     0.002 A 
HETATM   18  C13 UNL     1      29.927  -0.548  53.572  1.00  0.00     0.000 A 
HETATM   19  C14 UNL     1      28.979  -1.488  53.238  1.00  0.00     0.002 A 
HETATM   20  C15 UNL     1      27.680  -1.052  53.269  1.00  0.00     0.029 A 
ENDBRANCH  13  15
ENDBRANCH   7  11
BRANCH   8  21
HETATM   21  S1  UNL     1      22.760  -0.961  53.765  1.00  0.00     0.101 SA
HETATM   22  F1  UNL     1      22.360  -0.928  55.429  1.00  0.00    -0.157 F 
ENDBRANCH   8  21
BRANCH   1  23
HETATM   23  O1  UNL     1      24.693   4.040  51.516  1.00  0.00    -0.355 OA
HETATM   24  C1  UNL     1      25.259   4.295  50.257  1.00  0.00     0.210 C 
ENDBRANCH   1  23
TORSDOF 4
ENDMDL
MODEL 5
REMARK VINA RESULT:      -7.4      2.837      6.124
REMARK  4 active torsions:
REMARK  status: ('A' for Active; 'I' for Inactive)
REMARK    1  A    between atoms: O1_2  and  C2_3 
REMARK    2  A    between atoms: C8_9  and  C9_10 
REMARK       I    between atoms: C9_10  and  N1_12 
REMARK    3  A    between atoms: N1_12  and  C10_13 
REMARK    4  A    between atoms: C16_19  and  S1_20 
ROOT
HETATM    1  C2  UNL     1      21.138   0.955  53.327  1.00  0.00     0.081 A 
HETATM    2  C3  UNL     1      20.492  -0.106  53.919  1.00  0.00     0.038 A 
HETATM    3  C4  UNL     1      21.160  -1.200  54.414  1.00  0.00     0.005 A 
HETATM    4  C5  UNL     1      22.534  -1.193  54.292  1.00  0.00     0.031 A 
HETATM    5  C6  UNL     1      23.190  -0.137  53.702  1.00  0.00     0.049 A 
HETATM    6  C7  UNL     1      22.496   0.938  53.218  1.00  0.00     0.043 A 
HETATM    7  C8  UNL     1      23.303   1.910  52.671  1.00  0.00     0.083 A 
HETATM    8  C16 UNL     1      24.570   1.349  52.862  1.00  0.00     0.121 A 
HETATM    9  N2  UNL     1      24.474   0.155  53.464  1.00  0.00    -0.342 N 
HETATM   10  C17 UNL     1      25.536  -0.773  53.849  1.00  0.00     0.157 C 
ENDROOT
BRANCH   7  11
HETATM   11  C9  UNL     1      23.190   3.152  51.959  1.00  0.00     0.260 C 
HETATM   12  O2  UNL     1      23.072   3.061  50.681  1.00  0.00    -0.267 OA
HETATM   13  N1  UNL     1      23.170   4.510  52.322  1.00  0.00    -0.323 N 
HETATM   14  H7  UNL     1      23.208   4.626  53.356  1.00  0.00     0.169 HD
BRANCH  13  15
HETATM   15  C10 UNL     1      23.069   5.701  51.591  1.00  0.00     0.035 A 
HETATM   16  C11 UNL     1      21.808   6.144  51.185  1.00  0.00     0.029 A 
HETATM   17  C12 UNL     1      21.605   7.295  50.467  1.00  0.00     0.002 A 
HETATM   18  C13 UNL     1      22.692   8.063  50.122  1.00  0.00     0.000 A 
HETATM   19  C14 UNL     1      23.972   7.706  50.478  1.00  0.00     0.002 A 
HETATM   20  C15 UNL     1      24.083   6.543  51.193  1.00  0.00     0.029 A 
ENDBRANCH  13  15
ENDBRANCH   7  11
BRANCH   8  21
HETATM   21  S1  UNL     1      26.169   2.005  52.420  1.00  0.00     0.101 SA
HETATM   22  F1  UNL     1      27.026   2.457  53.831  1.00  0.00    -0.157 F 
ENDBRANCH   8  21
BRANCH   1  23
HETATM   23  O1  UNL     1      20.373   1.988  52.878  1.00  0.00    -0.355 OA
HETATM   24  C1  UNL     1      19.501   1.880  51.782  1.00  0.00     0.210 C 
ENDBRANCH   1  23
TORSDOF 4
ENDMDL
MODEL 6
REMARK VINA RESULT:      -7.4      2.695      4.076
REMARK  4 active torsions:
REMARK  status: ('A' for Active; 'I' for Inactive)
REMARK    1  A    between atoms: O1_2  and  C2_3 
REMARK    2  A    between atoms: C8_9  and  C9_10 
REMARK       I    between atoms: C9_10  and  N1_12 
REMARK    3  A    between atoms: N1_12  and  C10_13 
REMARK    4  A    between atoms: C16_19  and  S1_20 
ROOT
HETATM    1  C2  UNL     1      23.314   2.612  49.396  1.00  0.00     0.081 A 
HETATM    2  C3  UNL     1      22.662   2.880  48.213  1.00  0.00     0.038 A 
HETATM    3  C4  UNL     1      21.382   2.449  47.957  1.00  0.00     0.005 A 
HETATM    4  C5  UNL     1      20.763   1.722  48.953  1.00  0.00     0.031 A 
HETATM    5  C6  UNL     1      21.405   1.449  50.138  1.00  0.00     0.049 A 
HETATM    6  C7  UNL     1      22.681   1.892  50.363  1.00  0.00     0.043 A 
HETATM    7  C8  UNL     1      23.170   1.544  51.602  1.00  0.00     0.083 A 
HETATM    8  C16 UNL     1      22.083   0.846  52.137  1.00  0.00     0.121 A 
HETATM    9  N2  UNL     1      21.068   0.806  51.262  1.00  0.00    -0.342 N 
HETATM   10  C17 UNL     1      19.752   0.185  51.402  1.00  0.00     0.157 C 
ENDROOT
BRANCH   7  11
HETATM   11  C9  UNL     1      24.390   1.619  52.356  1.00  0.00     0.260 C 
HETATM   12  O2  UNL     1      24.418   2.496  53.297  1.00  0.00    -0.267 OA
HETATM   13  N1  UNL     1      25.621   0.941  52.330  1.00  0.00    -0.323 N 
HETATM   14  H7  UNL     1      25.620   0.183  51.617  1.00  0.00     0.169 HD
BRANCH  13  15
HETATM   15  C10 UNL     1      26.798   1.052  53.081  1.00  0.00     0.035 A 
HETATM   16  C11 UNL     1      27.618   2.168  52.900  1.00  0.00     0.029 A 
HETATM   17  C12 UNL     1      28.788   2.368  53.585  1.00  0.00     0.002 A 
HETATM   18  C13 UNL     1      29.189   1.427  54.505  1.00  0.00     0.000 A 
HETATM   19  C14 UNL     1      28.446   0.295  54.750  1.00  0.00     0.002 A 
HETATM   20  C15 UNL     1      27.292   0.176  54.021  1.00  0.00     0.029 A 
ENDBRANCH  13  15
ENDBRANCH   7  11
BRANCH   8  21
HETATM   21  S1  UNL     1      21.921   0.068  53.734  1.00  0.00     0.101 SA
HETATM   22  F1  UNL     1      23.327  -0.842  54.088  1.00  0.00    -0.157 F 
ENDBRANCH   8  21
BRANCH   1  23
HETATM   23  O1  UNL     1      24.579   3.095  49.541  1.00  0.00    -0.355 OA
HETATM   24  C1  UNL     1      24.882   4.466  49.548  1.00  0.00     0.210 C 
ENDBRANCH   1  23
TORSDOF 4
ENDMDL
MODEL 7
REMARK VINA RESULT:      -7.3      3.122      5.506
REMARK  4 active torsions:
REMARK  status: ('A' for Active; 'I' for Inactive)
REMARK    1  A    between atoms: O1_2  and  C2_3 
REMARK    2  A    between atoms: C8_9  and  C9_10 
REMARK       I    between atoms: C9_10  and  N1_12 
REMARK    3  A    between atoms: N1_12  and  C10_13 
REMARK    4  A    between atoms: C16_19  and  S1_20 
ROOT
HETATM    1  C2  UNL     1      21.667   1.115  52.700  1.00  0.00     0.081 A 
HETATM    2  C3  UNL     1      20.778   0.309  53.373  1.00  0.00     0.038 A 
HETATM    3  C4  UNL     1      21.180  -0.692  54.226  1.00  0.00     0.005 A 
HETATM    4  C5  UNL     1      22.540  -0.859  54.384  1.00  0.00     0.031 A 
HETATM    5  C6  UNL     1      23.438  -0.058  53.716  1.00  0.00     0.049 A 
HETATM    6  C7  UNL     1      23.005   0.929  52.873  1.00  0.00     0.043 A 
HETATM    7  C8  UNL     1      24.030   1.644  52.295  1.00  0.00     0.083 A 
HETATM    8  C16 UNL     1      25.148   1.018  52.858  1.00  0.00     0.121 A 
HETATM    9  N2  UNL     1      24.772   0.029  53.682  1.00  0.00    -0.342 N 
HETATM   10  C17 UNL     1      25.602  -0.880  54.471  1.00  0.00     0.157 C 
ENDROOT
BRANCH   7  11
HETATM   11  C9  UNL     1      24.228   2.674  51.314  1.00  0.00     0.260 C 
HETATM   12  O2  UNL     1      23.787   2.420  50.133  1.00  0.00    -0.267 OA
HETATM   13  N1  UNL     1      24.806   3.955  51.318  1.00  0.00    -0.323 N 
HETATM   14  H7  UNL     1      25.126   4.223  52.272  1.00  0.00     0.169 HD
BRANCH  13  15
HETATM   15  C10 UNL     1      24.990   4.932  50.331  1.00  0.00     0.035 A 
HETATM   16  C11 UNL     1      26.177   4.939  49.595  1.00  0.00     0.029 A 
HETATM   17  C12 UNL     1      26.451   5.852  48.609  1.00  0.00     0.002 A 
HETATM   18  C13 UNL     1      25.517   6.818  48.319  1.00  0.00     0.000 A 
HETATM   19  C14 UNL     1      24.319   6.890  48.993  1.00  0.00     0.002 A 
HETATM   20  C15 UNL     1      24.128   5.939  49.960  1.00  0.00     0.029 A 
ENDBRANCH  13  15
ENDBRANCH   7  11
BRANCH   8  21
HETATM   21  S1  UNL     1      26.878   1.373  52.611  1.00  0.00     0.101 SA
HETATM   22  F1  UNL     1      27.394   2.574  53.715  1.00  0.00    -0.157 F 
ENDBRANCH   8  21
BRANCH   1  23
HETATM   23  O1  UNL     1      21.153   2.078  51.886  1.00  0.00    -0.355 OA
HETATM   24  C1  UNL     1      20.624   3.288  52.364  1.00  0.00     0.210 C 
ENDBRANCH   1  23
TORSDOF 4
ENDMDL
MODEL 8
REMARK VINA RESULT:      -7.2      1.965      6.502
REMARK  4 active torsions:
REMARK  status: ('A' for Active; 'I' for Inactive)
REMARK    1  A    between atoms: O1_2  and  C2_3 
REMARK    2  A    between atoms: C8_9  and  C9_10 
REMARK       I    between atoms: C9_10  and  N1_12 
REMARK    3  A    between atoms: N1_12  and  C10_13 
REMARK    4  A    between atoms: C16_19  and  S1_20 
ROOT
HETATM    1  C2  UNL     1      24.384  -0.280  53.574  1.00  0.00     0.081 A 
HETATM    2  C3  UNL     1      25.556  -0.777  54.096  1.00  0.00     0.038 A 
HETATM    3  C4  UNL     1      26.795  -0.338  53.692  1.00  0.00     0.005 A 
HETATM    4  C5  UNL     1      26.817   0.642  52.722  1.00  0.00     0.031 A 
HETATM    5  C6  UNL     1      25.650   1.146  52.193  1.00  0.00     0.049 A 
HETATM    6  C7  UNL     1      24.433   0.687  52.616  1.00  0.00     0.043 A 
HETATM    7  C8  UNL     1      23.370   1.304  51.996  1.00  0.00     0.083 A 
HETATM    8  C16 UNL     1      24.032   2.197  51.148  1.00  0.00     0.121 A 
HETATM    9  N2  UNL     1      25.361   2.083  51.283  1.00  0.00    -0.342 N 
HETATM   10  C17 UNL     1      26.425   2.813  50.596  1.00  0.00     0.157 C 
ENDROOT
BRANCH   7  11
HETATM   11  C9  UNL     1      21.937   1.213  51.932  1.00  0.00     0.260 C 
HETATM   12  O2  UNL     1      21.286   2.106  52.590  1.00  0.00    -0.267 OA
HETATM   13  N1  UNL     1      21.022   0.357  51.297  1.00  0.00    -0.323 N 
HETATM   14  H7  UNL     1      21.509  -0.348  50.707  1.00  0.00     0.169 HD
BRANCH  13  15
HETATM   15  C10 UNL     1      19.622   0.295  51.268  1.00  0.00     0.035 A 
HETATM   16  C11 UNL     1      18.949  -0.354  52.305  1.00  0.00     0.029 A 
HETATM   17  C12 UNL     1      17.584  -0.468  52.367  1.00  0.00     0.002 A 
HETATM   18  C13 UNL     1      16.825   0.081  51.361  1.00  0.00     0.000 A 
HETATM   19  C14 UNL     1      17.400   0.738  50.298  1.00  0.00     0.002 A 
HETATM   20  C15 UNL     1      18.768   0.805  50.317  1.00  0.00     0.029 A 
ENDBRANCH  13  15
ENDBRANCH   7  11
BRANCH   8  21
HETATM   21  S1  UNL     1      23.345   3.376  49.998  1.00  0.00     0.101 SA
HETATM   22  F1  UNL     1      23.450   2.768  48.402  1.00  0.00    -0.157 F 
ENDBRANCH   8  21
BRANCH   1  23
HETATM   23  O1  UNL     1      23.215  -0.787  54.055  1.00  0.00    -0.355 OA
HETATM   24  C1  UNL     1      23.083  -1.322  55.347  1.00  0.00     0.210 C 
ENDBRANCH   1  23
TORSDOF 4
ENDMDL
MODEL 9
REMARK VINA RESULT:      -7.1      3.234      7.458
REMARK  4 active torsions:
REMARK  status: ('A' for Active; 'I' for Inactive)
REMARK    1  A    between atoms: O1_2  and  C2_3 
REMARK    2  A    between atoms: C8_9  and  C9_10 
REMARK       I    between atoms: C9_10  and  N1_12 
REMARK    3  A    between atoms: N1_12  and  C10_13 
REMARK    4  A    between atoms: C16_19  and  S1_20 
ROOT
HETATM    1  C2  UNL     1      23.984   2.230  50.886  1.00  0.00     0.081 A 
HETATM    2  C3  UNL     1      25.198   2.741  50.489  1.00  0.00     0.038 A 
HETATM    3  C4  UNL     1      26.378   2.434  51.126  1.00  0.00     0.005 A 
HETATM    4  C5  UNL     1      26.294   1.574  52.201  1.00  0.00     0.031 A 
HETATM    5  C6  UNL     1      25.084   1.058  52.606  1.00  0.00     0.049 A 
HETATM    6  C7  UNL     1      23.927   1.384  51.952  1.00  0.00     0.043 A 
HETATM    7  C8  UNL     1      22.811   0.773  52.476  1.00  0.00     0.083 A 
HETATM    8  C16 UNL     1      23.373   0.027  53.518  1.00  0.00     0.121 A 
HETATM    9  N2  UNL     1      24.700   0.213  53.570  1.00  0.00    -0.342 N 
HETATM   10  C17 UNL     1      25.677  -0.362  54.493  1.00  0.00     0.157 C 
ENDROOT
BRANCH   7  11
HETATM   11  C9  UNL     1      21.384   0.776  52.313  1.00  0.00     0.260 C 
HETATM   12  O2  UNL     1      20.743   1.678  52.968  1.00  0.00    -0.267 OA
HETATM   13  N1  UNL     1      20.464   0.008  51.578  1.00  0.00    -0.323 N 
HETATM   14  H7  UNL     1      20.948  -0.701  50.988  1.00  0.00     0.169 HD
BRANCH  13  15
HETATM   15  C10 UNL     1      19.069   0.035  51.453  1.00  0.00     0.035 A 
HETATM   16  C11 UNL     1      18.287  -0.611  52.413  1.00  0.00     0.029 A 
HETATM   17  C12 UNL     1      16.917  -0.641  52.378  1.00  0.00     0.002 A 
HETATM   18  C13 UNL     1      16.264  -0.005  51.349  1.00  0.00     0.000 A 
HETATM   19  C14 UNL     1      16.951   0.658  50.357  1.00  0.00     0.002 A 
HETATM   20  C15 UNL     1      18.316   0.637  50.471  1.00  0.00     0.029 A 
ENDBRANCH  13  15
ENDBRANCH   7  11
BRANCH   8  21
HETATM   21  S1  UNL     1      22.572  -1.056  54.686  1.00  0.00     0.101 SA
HETATM   22  F1  UNL     1      21.502  -2.111  53.869  1.00  0.00    -0.157 F 
ENDBRANCH   8  21
BRANCH   1  23
HETATM   23  O1  UNL     1      22.882   2.600  50.176  1.00  0.00    -0.355 OA
HETATM   24  C1  UNL     1      22.281   3.864  50.293  1.00  0.00     0.210 C 
ENDBRANCH   1  23
TORSDOF 4
ENDMDL
