MODEL 1
REMARK VINA RESULT:      -9.0      0.000      0.000
REMARK  2 active torsions:
REMARK  status: ('A' for Active; 'I' for Inactive)
REMARK    1  A    between atoms: C2_2  and  O1_4 
REMARK    2  A    between atoms: O1_4  and  C4_5 
ROOT
HETATM    1  C4  UNL     1      23.860   1.882  51.921  1.00  0.00     0.075 C 
HETATM    2  C5  UNL     1      23.700   1.116  53.039  1.00  0.00     0.162 C 
HETATM    3  C6  UNL     1      22.565   0.259  53.507  1.00  0.00     0.057 A 
HETATM    4  N1  UNL     1      23.336  -0.404  54.387  1.00  0.00    -0.245 NA
HETATM    5  C7  UNL     1      22.905  -1.430  55.183  1.00  0.00     0.235 A 
HETATM    6  N2  UNL     1      21.623  -1.823  55.097  1.00  0.00    -0.224 NA
HETATM    7  C8  UNL     1      20.850  -1.165  54.220  1.00  0.00     0.140 A 
HETATM    8  C9  UNL     1      21.209  -0.135  53.401  1.00  0.00     0.046 A 
HETATM    9  C10 UNL     1      20.280   0.596  52.466  1.00  0.00     0.196 C 
HETATM   10  O2  UNL     1      20.803   1.088  51.356  1.00  0.00    -0.374 OA
HETATM   11  C11 UNL     1      21.498   0.430  50.419  1.00  0.00     0.195 C 
HETATM   12  C12 UNL     1      21.952   1.547  49.429  1.00  0.00     0.193 C 
HETATM   13  O3  UNL     1      22.654   2.503  49.980  1.00  0.00    -0.386 OA
HETATM   14  C13 UNL     1      23.762   2.637  50.616  1.00  0.00     0.200 C 
HETATM   15  C14 UNL     1      18.985  -0.080  52.375  1.00  0.00     0.005 A 
HETATM   16  C15 UNL     1      18.127   0.459  51.408  1.00  0.00     0.056 A 
HETATM   17  C16 UNL     1      16.852  -0.101  51.300  1.00  0.00     0.138 A 
HETATM   18  F1  UNL     1      15.937   0.340  50.399  1.00  0.00    -0.204 F 
HETATM   19  C17 UNL     1      16.429  -1.141  52.098  1.00  0.00     0.074 A 
HETATM   20 CL1  UNL     1      14.824  -1.832  51.952  1.00  0.00    -0.081 Cl
HETATM   21  C18 UNL     1      17.273  -1.686  53.063  1.00  0.00     0.057 A 
HETATM   22  C19 UNL     1      18.524  -1.117  53.148  1.00  0.00     0.044 A 
HETATM   23  N3  UNL     1      19.516  -1.597  54.043  1.00  0.00    -0.340 N 
HETATM   24  H19 UNL     1      19.185  -2.401  54.660  1.00  0.00     0.167 HD
ENDROOT
BRANCH   1  25
HETATM   25  O1  UNL     1      25.139   2.189  52.458  1.00  0.00    -0.378 OA
BRANCH  25  26
HETATM   26  C2  UNL     1      26.080   1.247  52.878  1.00  0.00     0.114 C 
HETATM   27  C1  UNL     1      27.197   1.986  53.595  1.00  0.00     0.039 C 
HETATM   28  C3  UNL     1      26.674   0.409  51.768  1.00  0.00     0.039 C 
ENDBRANCH  25  26
ENDBRANCH   1  25
TORSDOF 2
ENDMDL
MODEL 2
REMARK VINA RESULT:      -8.9      4.637      7.494
REMARK  2 active torsions:
REMARK  status: ('A' for Active; 'I' for Inactive)
REMARK    1  A    between atoms: C2_2  and  O1_4 
REMARK    2  A    between atoms: O1_4  and  C4_5 
ROOT
HETATM    1  C4  UNL     1      22.252   0.761  52.434  1.00  0.00     0.075 C 
HETATM    2  C5  UNL     1      23.607   0.619  52.389  1.00  0.00     0.162 C 
HETATM    3  C6  UNL     1      24.685   1.496  51.830  1.00  0.00     0.057 A 
HETATM    4  N1  UNL     1      25.651   0.874  52.527  1.00  0.00    -0.245 NA
HETATM    5  C7  UNL     1      26.974   1.225  52.510  1.00  0.00     0.235 A 
HETATM    6  N2  UNL     1      27.360   2.263  51.750  1.00  0.00    -0.224 NA
HETATM    7  C8  UNL     1      26.399   2.887  51.052  1.00  0.00     0.140 A 
HETATM    8  C9  UNL     1      25.068   2.592  51.018  1.00  0.00     0.046 A 
HETATM    9  C10 UNL     1      24.041   3.304  50.175  1.00  0.00     0.196 C 
HETATM   10  O2  UNL     1      22.809   3.370  50.651  1.00  0.00    -0.374 OA
HETATM   11  C11 UNL     1      22.416   3.854  51.837  1.00  0.00     0.195 C 
HETATM   12  C12 UNL     1      20.886   3.553  51.881  1.00  0.00     0.193 C 
HETATM   13  O3  UNL     1      20.580   2.290  51.740  1.00  0.00    -0.386 OA
HETATM   14  C13 UNL     1      20.801   1.175  52.340  1.00  0.00     0.200 C 
HETATM   15  C14 UNL     1      24.606   4.506  49.562  1.00  0.00     0.005 A 
HETATM   16  C15 UNL     1      23.667   5.299  48.890  1.00  0.00     0.056 A 
HETATM   17  C16 UNL     1      24.142   6.436  48.233  1.00  0.00     0.138 A 
HETATM   18  F1  UNL     1      23.324   7.278  47.549  1.00  0.00    -0.204 F 
HETATM   19  C17 UNL     1      25.474   6.788  48.229  1.00  0.00     0.074 A 
HETATM   20 CL1  UNL     1      26.056   8.218  47.398  1.00  0.00    -0.081 Cl
HETATM   21  C18 UNL     1      26.418   6.009  48.894  1.00  0.00     0.057 A 
HETATM   22  C19 UNL     1      25.923   4.894  49.534  1.00  0.00     0.044 A 
HETATM   23  N3  UNL     1      26.750   4.032  50.300  1.00  0.00    -0.340 N 
HETATM   24  H19 UNL     1      27.780   4.306  50.294  1.00  0.00     0.167 HD
ENDROOT
BRANCH   1  25
HETATM   25  O1  UNL     1      22.260  -0.492  53.102  1.00  0.00    -0.378 OA
BRANCH  25  26
HETATM   26  C2  UNL     1      21.631  -0.755  54.321  1.00  0.00     0.114 C 
HETATM   27  C1  UNL     1      22.676  -1.299  55.280  1.00  0.00     0.039 C 
HETATM   28  C3  UNL     1      20.479  -1.731  54.240  1.00  0.00     0.039 C 
ENDBRANCH  25  26
ENDBRANCH   1  25
TORSDOF 2
ENDMDL
MODEL 3
REMARK VINA RESULT:      -8.8      4.006      7.032
REMARK  2 active torsions:
REMARK  status: ('A' for Active; 'I' for Inactive)
REMARK    1  A    between atoms: C2_2  and  O1_4 
REMARK    2  A    between atoms: O1_4  and  C4_5 
ROOT
HETATM    1  C4  UNL     1      20.214   1.296  50.959  1.00  0.00     0.075 C 
HETATM    2  C5  UNL     1      20.328   0.246  51.823  1.00  0.00     0.162 C 
HETATM    3  C6  UNL     1      21.443  -0.190  52.722  1.00  0.00     0.057 A 
HETATM    4  N1  UNL     1      20.637  -0.973  53.459  1.00  0.00    -0.245 NA
HETATM    5  C7  UNL     1      21.035  -1.691  54.554  1.00  0.00     0.235 A 
HETATM    6  N2  UNL     1      22.320  -1.624  54.941  1.00  0.00    -0.224 NA
HETATM    7  C8  UNL     1      23.128  -0.843  54.209  1.00  0.00     0.140 A 
HETATM    8  C9  UNL     1      22.804  -0.105  53.108  1.00  0.00     0.046 A 
HETATM    9  C10 UNL     1      23.770   0.719  52.298  1.00  0.00     0.196 C 
HETATM   10  O2  UNL     1      23.294   1.801  51.706  1.00  0.00    -0.374 OA
HETATM   11  C11 UNL     1      22.639   2.822  52.275  1.00  0.00     0.195 C 
HETATM   12  C12 UNL     1      22.226   3.725  51.072  1.00  0.00     0.193 C 
HETATM   13  O3  UNL     1      21.500   3.121  50.168  1.00  0.00    -0.386 OA
HETATM   14  C13 UNL     1      20.366   2.522  50.089  1.00  0.00     0.200 C 
HETATM   15  C14 UNL     1      25.068   0.817  52.967  1.00  0.00     0.005 A 
HETATM   16  C15 UNL     1      25.965   1.694  52.345  1.00  0.00     0.056 A 
HETATM   17  C16 UNL     1      27.244   1.798  52.896  1.00  0.00     0.138 A 
HETATM   18  F1  UNL     1      28.196   2.617  52.378  1.00  0.00    -0.204 F 
HETATM   19  C17 UNL     1      27.635   1.081  54.005  1.00  0.00     0.074 A 
HETATM   20 CL1  UNL     1      29.245   1.221  54.685  1.00  0.00    -0.081 Cl
HETATM   21  C18 UNL     1      26.752   0.205  54.633  1.00  0.00     0.057 A 
HETATM   22  C19 UNL     1      25.498   0.122  54.070  1.00  0.00     0.044 A 
HETATM   23  N3  UNL     1      24.470  -0.683  54.627  1.00  0.00    -0.340 N 
HETATM   24  H19 UNL     1      24.775  -1.239  55.484  1.00  0.00     0.167 HD
ENDROOT
BRANCH   1  25
HETATM   25  O1  UNL     1      18.914   0.788  50.698  1.00  0.00    -0.378 OA
BRANCH  25  26
HETATM   26  C2  UNL     1      17.822   0.898  51.561  1.00  0.00     0.114 C 
HETATM   27  C1  UNL     1      16.907  -0.290  51.315  1.00  0.00     0.039 C 
HETATM   28  C3  UNL     1      17.025   2.175  51.412  1.00  0.00     0.039 C 
ENDBRANCH  25  26
ENDBRANCH   1  25
TORSDOF 2
ENDMDL
MODEL 4
REMARK VINA RESULT:      -8.6      5.279      8.236
REMARK  2 active torsions:
REMARK  status: ('A' for Active; 'I' for Inactive)
REMARK    1  A    between atoms: C2_2  and  O1_4 
REMARK    2  A    between atoms: O1_4  and  C4_5 
ROOT
HETATM    1  C4  UNL     1      21.785   2.170  51.750  1.00  0.00     0.075 C 
HETATM    2  C5  UNL     1      23.066   1.703  51.739  1.00  0.00     0.162 C 
HETATM    3  C6  UNL     1      24.343   2.301  51.234  1.00  0.00     0.057 A 
HETATM    4  N1  UNL     1      25.104   1.449  51.942  1.00  0.00    -0.245 NA
HETATM    5  C7  UNL     1      26.472   1.466  51.971  1.00  0.00     0.235 A 
HETATM    6  N2  UNL     1      27.125   2.393  51.251  1.00  0.00    -0.224 NA
HETATM    7  C8  UNL     1      26.369   3.247  50.544  1.00  0.00     0.140 A 
HETATM    8  C9  UNL     1      25.008   3.286  50.464  1.00  0.00     0.046 A 
HETATM    9  C10 UNL     1      24.214   4.244  49.612  1.00  0.00     0.196 C 
HETATM   10  O2  UNL     1      23.021   4.599  50.055  1.00  0.00    -0.374 OA
HETATM   11  C11 UNL     1      22.717   5.140  51.242  1.00  0.00     0.195 C 
HETATM   12  C12 UNL     1      21.159   5.221  51.235  1.00  0.00     0.193 C 
HETATM   13  O3  UNL     1      20.560   4.073  51.052  1.00  0.00    -0.386 OA
HETATM   14  C13 UNL     1      20.483   2.927  51.627  1.00  0.00     0.200 C 
HETATM   15  C14 UNL     1      25.075   5.283  49.048  1.00  0.00     0.005 A 
HETATM   16  C15 UNL     1      24.381   6.294  48.372  1.00  0.00     0.056 A 
HETATM   17  C16 UNL     1      25.140   7.294  47.759  1.00  0.00     0.138 A 
HETATM   18  F1  UNL     1      24.575   8.323  47.077  1.00  0.00    -0.204 F 
HETATM   19  C17 UNL     1      26.517   7.311  47.803  1.00  0.00     0.074 A 
HETATM   20 CL1  UNL     1      27.456   8.571  47.027  1.00  0.00    -0.081 Cl
HETATM   21  C18 UNL     1      27.220   6.311  48.472  1.00  0.00     0.057 A 
HETATM   22  C19 UNL     1      26.447   5.339  49.068  1.00  0.00     0.044 A 
HETATM   23  N3  UNL     1      27.013   4.286  49.833  1.00  0.00    -0.340 N 
HETATM   24  H19 UNL     1      28.079   4.300  49.863  1.00  0.00     0.167 HD
ENDROOT
BRANCH   1  25
HETATM   25  O1  UNL     1      21.466   0.940  52.384  1.00  0.00    -0.378 OA
BRANCH  25  26
HETATM   26  C2  UNL     1      20.346   0.719  53.189  1.00  0.00     0.114 C 
HETATM   27  C1  UNL     1      20.831   0.231  54.543  1.00  0.00     0.039 C 
HETATM   28  C3  UNL     1      19.353  -0.275  52.630  1.00  0.00     0.039 C 
ENDBRANCH  25  26
ENDBRANCH   1  25
TORSDOF 2
ENDMDL
MODEL 5
REMARK VINA RESULT:      -8.6      2.265      3.400
REMARK  2 active torsions:
REMARK  status: ('A' for Active; 'I' for Inactive)
REMARK    1  A    between atoms: C2_2  and  O1_4 
REMARK    2  A    between atoms: O1_4  and  C4_5 
ROOT
HETATM    1  C4  UNL     1      24.663   3.703  50.030  1.00  0.00     0.075 C 
HETATM    2  C5  UNL     1      25.196   3.045  51.099  1.00  0.00     0.162 C 
HETATM    3  C6  UNL     1      24.644   1.975  51.990  1.00  0.00     0.057 A 
HETATM    4  N1  UNL     1      25.859   1.634  52.452  1.00  0.00    -0.245 NA
HETATM    5  C7  UNL     1      26.099   0.621  53.340  1.00  0.00     0.235 A 
HETATM    6  N2  UNL     1      25.062  -0.100  53.797  1.00  0.00    -0.224 NA
HETATM    7  C8  UNL     1      23.847   0.236  53.339  1.00  0.00     0.140 A 
HETATM    8  C9  UNL     1      23.534   1.231  52.460  1.00  0.00     0.046 A 
HETATM    9  C10 UNL     1      22.139   1.592  52.016  1.00  0.00     0.196 C 
HETATM   10  O2  UNL     1      22.001   2.083  50.797  1.00  0.00    -0.374 OA
HETATM   11  C11 UNL     1      22.406   1.534  49.644  1.00  0.00     0.195 C 
HETATM   12  C12 UNL     1      22.081   2.620  48.572  1.00  0.00     0.193 C 
HETATM   13  O3  UNL     1      22.647   3.779  48.789  1.00  0.00    -0.386 OA
HETATM   14  C13 UNL     1      23.831   4.264  48.899  1.00  0.00     0.200 C 
HETATM   15  C14 UNL     1      21.168   0.595  52.470  1.00  0.00     0.005 A 
HETATM   16  C15 UNL     1      19.877   0.786  51.964  1.00  0.00     0.056 A 
HETATM   17  C16 UNL     1      18.883  -0.096  52.395  1.00  0.00     0.138 A 
HETATM   18  F1  UNL     1      17.596  -0.007  51.972  1.00  0.00    -0.204 F 
HETATM   19  C17 UNL     1      19.135  -1.120  53.282  1.00  0.00     0.074 A 
HETATM   20 CL1  UNL     1      17.877  -2.218  53.816  1.00  0.00    -0.081 Cl
HETATM   21  C18 UNL     1      20.415  -1.320  53.792  1.00  0.00     0.057 A 
HETATM   22  C19 UNL     1      21.376  -0.438  53.350  1.00  0.00     0.044 A 
HETATM   23  N3  UNL     1      22.738  -0.546  53.735  1.00  0.00    -0.340 N 
HETATM   24  H19 UNL     1      22.929  -1.338  54.422  1.00  0.00     0.167 HD
ENDROOT
BRANCH   1  25
HETATM   25  O1  UNL     1      25.906   4.389  49.981  1.00  0.00    -0.378 OA
BRANCH  25  26
HETATM   26  C2  UNL     1      26.232   5.393  49.067  1.00  0.00     0.114 C 
HETATM   27  C1  UNL     1      27.639   5.125  48.559  1.00  0.00     0.039 C 
HETATM   28  C3  UNL     1      26.165   6.798  49.622  1.00  0.00     0.039 C 
ENDBRANCH  25  26
ENDBRANCH   1  25
TORSDOF 2
ENDMDL
MODEL 6
REMARK VINA RESULT:      -8.5      4.916      6.830
REMARK  2 active torsions:
REMARK  status: ('A' for Active; 'I' for Inactive)
REMARK    1  A    between atoms: C2_2  and  O1_4 
REMARK    2  A    between atoms: O1_4  and  C4_5 
ROOT
HETATM    1  C4  UNL     1      25.428   1.700  52.097  1.00  0.00     0.075 C 
HETATM    2  C5  UNL     1      24.134   1.742  52.525  1.00  0.00     0.162 C 
HETATM    3  C6  UNL     1      23.029   2.720  52.270  1.00  0.00     0.057 A 
HETATM    4  N1  UNL     1      22.079   1.859  52.672  1.00  0.00    -0.245 NA
HETATM    5  C7  UNL     1      20.735   2.119  52.660  1.00  0.00     0.235 A 
HETATM    6  N2  UNL     1      20.310   3.313  52.216  1.00  0.00    -0.224 NA
HETATM    7  C8  UNL     1      21.255   4.176  51.812  1.00  0.00     0.140 A 
HETATM    8  C9  UNL     1      22.606   3.987  51.800  1.00  0.00     0.046 A 
HETATM    9  C10 UNL     1      23.623   5.015  51.376  1.00  0.00     0.196 C 
HETATM   10  O2  UNL     1      24.743   4.569  50.834  1.00  0.00    -0.374 OA
HETATM   11  C11 UNL     1      24.872   3.760  49.774  1.00  0.00     0.195 C 
HETATM   12  C12 UNL     1      26.406   3.490  49.688  1.00  0.00     0.193 C 
HETATM   13  O3  UNL     1      26.924   2.969  50.769  1.00  0.00    -0.386 OA
HETATM   14  C13 UNL     1      26.793   1.908  51.482  1.00  0.00     0.200 C 
HETATM   15  C14 UNL     1      22.975   6.174  50.760  1.00  0.00     0.005 A 
HETATM   16  C15 UNL     1      23.868   7.098  50.205  1.00  0.00     0.056 A 
HETATM   17  C16 UNL     1      23.326   8.258  49.646  1.00  0.00     0.138 A 
HETATM   18  F1  UNL     1      24.095   9.223  49.080  1.00  0.00    -0.204 F 
HETATM   19  C17 UNL     1      21.971   8.508  49.628  1.00  0.00     0.074 A 
HETATM   20 CL1  UNL     1      21.304   9.968  48.924  1.00  0.00    -0.081 Cl
HETATM   21  C18 UNL     1      21.072   7.596  50.176  1.00  0.00     0.057 A 
HETATM   22  C19 UNL     1      21.633   6.462  50.719  1.00  0.00     0.044 A 
HETATM   23  N3  UNL     1      20.846   5.414  51.266  1.00  0.00    -0.340 N 
HETATM   24  H19 UNL     1      19.798   5.611  51.252  1.00  0.00     0.167 HD
ENDROOT
BRANCH   1  25
HETATM   25  O1  UNL     1      25.516   0.500  52.851  1.00  0.00    -0.378 OA
BRANCH  25  26
HETATM   26  C2  UNL     1      26.704  -0.075  53.308  1.00  0.00     0.114 C 
HETATM   27  C1  UNL     1      26.734  -1.522  52.846  1.00  0.00     0.039 C 
HETATM   28  C3  UNL     1      26.891  -0.030  54.808  1.00  0.00     0.039 C 
ENDBRANCH  25  26
ENDBRANCH   1  25
TORSDOF 2
ENDMDL
MODEL 7
REMARK VINA RESULT:      -8.4      3.336      4.832
REMARK  2 active torsions:
REMARK  status: ('A' for Active; 'I' for Inactive)
REMARK    1  A    between atoms: C2_2  and  O1_4 
REMARK    2  A    between atoms: O1_4  and  C4_5 
ROOT
HETATM    1  C4  UNL     1      26.112   0.786  52.407  1.00  0.00     0.075 C 
HETATM    2  C5  UNL     1      26.113   1.866  51.573  1.00  0.00     0.162 C 
HETATM    3  C6  UNL     1      25.002   2.590  50.878  1.00  0.00     0.057 A 
HETATM    4  N1  UNL     1      25.761   3.674  50.642  1.00  0.00    -0.245 NA
HETATM    5  C7  UNL     1      25.321   4.815  50.027  1.00  0.00     0.235 A 
HETATM    6  N2  UNL     1      24.043   4.881  49.621  1.00  0.00    -0.224 NA
HETATM    7  C8  UNL     1      23.281   3.802  49.854  1.00  0.00     0.140 A 
HETATM    8  C9  UNL     1      23.650   2.635  50.456  1.00  0.00     0.046 A 
HETATM    9  C10 UNL     1      22.757   1.436  50.649  1.00  0.00     0.196 C 
HETATM   10  O2  UNL     1      22.982   0.680  51.709  1.00  0.00    -0.374 OA
HETATM   11  C11 UNL     1      23.026   1.063  52.992  1.00  0.00     0.195 C 
HETATM   12  C12 UNL     1      23.447  -0.228  53.760  1.00  0.00     0.193 C 
HETATM   13  O3  UNL     1      24.580  -0.746  53.364  1.00  0.00    -0.386 OA
HETATM   14  C13 UNL     1      25.817  -0.406  53.287  1.00  0.00     0.200 C 
HETATM   15  C14 UNL     1      21.369   1.755  50.314  1.00  0.00     0.005 A 
HETATM   16  C15 UNL     1      20.461   0.733  50.615  1.00  0.00     0.056 A 
HETATM   17  C16 UNL     1      19.123   0.943  50.274  1.00  0.00     0.138 A 
HETATM   18  F1  UNL     1      18.155   0.022  50.518  1.00  0.00    -0.204 F 
HETATM   19  C17 UNL     1      18.686   2.099  49.664  1.00  0.00     0.074 A 
HETATM   20 CL1  UNL     1      17.003   2.348  49.240  1.00  0.00    -0.081 Cl
HETATM   21  C18 UNL     1      19.579   3.123  49.359  1.00  0.00     0.057 A 
HETATM   22  C19 UNL     1      20.891   2.890  49.707  1.00  0.00     0.044 A 
HETATM   23  N3  UNL     1      21.910   3.860  49.513  1.00  0.00    -0.340 N 
HETATM   24  H19 UNL     1      21.569   4.753  49.039  1.00  0.00     0.167 HD
ENDROOT
BRANCH   1  25
HETATM   25  O1  UNL     1      27.521   0.966  52.448  1.00  0.00    -0.378 OA
BRANCH  25  26
HETATM   26  C2  UNL     1      28.289   1.017  53.613  1.00  0.00     0.114 C 
HETATM   27  C1  UNL     1      28.809   2.435  53.770  1.00  0.00     0.039 C 
HETATM   28  C3  UNL     1      29.456   0.056  53.642  1.00  0.00     0.039 C 
ENDBRANCH  25  26
ENDBRANCH   1  25
TORSDOF 2
ENDMDL
MODEL 8
REMARK VINA RESULT:      -8.2      2.576      3.922
REMARK  2 active torsions:
REMARK  status: ('A' for Active; 'I' for Inactive)
REMARK    1  A    between atoms: C2_2  and  O1_4 
REMARK    2  A    between atoms: O1_4  and  C4_5 
ROOT
HETATM    1  C4  UNL     1      24.175   0.163  53.356  1.00  0.00     0.075 C 
HETATM    2  C5  UNL     1      24.211   0.994  52.276  1.00  0.00     0.162 C 
HETATM    3  C6  UNL     1      23.129   1.522  51.385  1.00  0.00     0.057 A 
HETATM    4  N1  UNL     1      23.907   2.507  50.905  1.00  0.00    -0.245 NA
HETATM    5  C7  UNL     1      23.498   3.455  50.007  1.00  0.00     0.235 A 
HETATM    6  N2  UNL     1      22.232   3.421  49.559  1.00  0.00    -0.224 NA
HETATM    7  C8  UNL     1      21.451   2.440  50.036  1.00  0.00     0.140 A 
HETATM    8  C9  UNL     1      21.790   1.463  50.926  1.00  0.00     0.046 A 
HETATM    9  C10 UNL     1      20.878   0.357  51.391  1.00  0.00     0.196 C 
HETATM   10  O2  UNL     1      21.065  -0.105  52.615  1.00  0.00    -0.374 OA
HETATM   11  C11 UNL     1      21.077   0.592  53.759  1.00  0.00     0.195 C 
HETATM   12  C12 UNL     1      21.461  -0.462  54.842  1.00  0.00     0.193 C 
HETATM   13  O3  UNL     1      22.600  -1.069  54.625  1.00  0.00    -0.386 OA
HETATM   14  C13 UNL     1      23.842  -0.765  54.502  1.00  0.00     0.200 C 
HETATM   15  C14 UNL     1      19.504   0.585  50.944  1.00  0.00     0.005 A 
HETATM   16  C15 UNL     1      18.576  -0.323  51.469  1.00  0.00     0.056 A 
HETATM   17  C16 UNL     1      17.250  -0.201  51.045  1.00  0.00     0.138 A 
HETATM   18  F1  UNL     1      16.265  -1.025  51.487  1.00  0.00    -0.204 F 
HETATM   19  C17 UNL     1      16.844   0.763  50.149  1.00  0.00     0.074 A 
HETATM   20 CL1  UNL     1      15.177   0.903  49.624  1.00  0.00    -0.081 Cl
HETATM   21  C18 UNL     1      17.758   1.672  49.620  1.00  0.00     0.057 A 
HETATM   22  C19 UNL     1      19.057   1.531  50.055  1.00  0.00     0.044 A 
HETATM   23  N3  UNL     1      20.091   2.414  49.651  1.00  0.00    -0.340 N 
HETATM   24  H19 UNL     1      19.774   3.158  48.955  1.00  0.00     0.167 HD
ENDROOT
BRANCH   1  25
HETATM   25  O1  UNL     1      25.584   0.340  53.392  1.00  0.00    -0.378 OA
BRANCH  25  26
HETATM   26  C2  UNL     1      26.501  -0.611  53.846  1.00  0.00     0.114 C 
HETATM   27  C1  UNL     1      27.617   0.122  54.570  1.00  0.00     0.039 C 
HETATM   28  C3  UNL     1      27.100  -1.477  52.761  1.00  0.00     0.039 C 
ENDBRANCH  25  26
ENDBRANCH   1  25
TORSDOF 2
ENDMDL
MODEL 9
REMARK VINA RESULT:      -8.1     11.723     14.064
REMARK  2 active torsions:
REMARK  status: ('A' for Active; 'I' for Inactive)
REMARK    1  A    between atoms: C2_2  and  O1_4 
REMARK    2  A    between atoms: O1_4  and  C4_5 
ROOT
HETATM    1  C4  UNL     1      33.488   5.897  48.254  1.00  0.00     0.075 C 
HETATM    2  C5  UNL     1      32.199   5.488  48.433  1.00  0.00     0.162 C 
HETATM    3  C6  UNL     1      30.910   6.248  48.497  1.00  0.00     0.057 A 
HETATM    4  N1  UNL     1      30.169   5.148  48.279  1.00  0.00    -0.245 NA
HETATM    5  C7  UNL     1      28.805   5.136  48.172  1.00  0.00     0.235 A 
HETATM    6  N2  UNL     1      28.135   6.295  48.288  1.00  0.00    -0.224 NA
HETATM    7  C8  UNL     1      28.870   7.395  48.505  1.00  0.00     0.140 A 
HETATM    8  C9  UNL     1      30.226   7.482  48.626  1.00  0.00     0.046 A 
HETATM    9  C10 UNL     1      30.994   8.746  48.916  1.00  0.00     0.196 C 
HETATM   10  O2  UNL     1      32.215   8.839  48.419  1.00  0.00    -0.374 OA
HETATM   11  C11 UNL     1      32.588   8.707  47.139  1.00  0.00     0.195 C 
HETATM   12  C12 UNL     1      34.145   8.794  47.187  1.00  0.00     0.193 C 
HETATM   13  O3  UNL     1      34.712   7.903  47.957  1.00  0.00    -0.386 OA
HETATM   14  C13 UNL     1      34.796   6.624  48.047  1.00  0.00     0.200 C 
HETATM   15  C14 UNL     1      30.126   9.921  48.830  1.00  0.00     0.005 A 
HETATM   16  C15 UNL     1      30.805  11.140  48.938  1.00  0.00     0.056 A 
HETATM   17  C16 UNL     1      30.035  12.306  48.919  1.00  0.00     0.138 A 
HETATM   18  F1  UNL     1      30.585  13.544  49.015  1.00  0.00    -0.204 F 
HETATM   19  C17 UNL     1      28.663  12.286  48.800  1.00  0.00     0.074 A 
HETATM   20 CL1  UNL     1      27.709  13.757  48.779  1.00  0.00    -0.081 Cl
HETATM   21  C18 UNL     1      27.975  11.079  48.692  1.00  0.00     0.057 A 
HETATM   22  C19 UNL     1      28.758   9.946  48.712  1.00  0.00     0.044 A 
HETATM   23  N3  UNL     1      28.212   8.645  48.557  1.00  0.00    -0.340 N 
HETATM   24  H19 UNL     1      27.149   8.633  48.467  1.00  0.00     0.167 HD
ENDROOT
BRANCH   1  25
HETATM   25  O1  UNL     1      33.815   4.518  48.349  1.00  0.00    -0.378 OA
BRANCH  25  26
HETATM   26  C2  UNL     1      33.705   3.595  47.307  1.00  0.00     0.114 C 
HETATM   27  C1  UNL     1      33.215   2.282  47.893  1.00  0.00     0.039 C 
HETATM   28  C3  UNL     1      34.987   3.348  46.544  1.00  0.00     0.039 C 
ENDBRANCH  25  26
ENDBRANCH   1  25
TORSDOF 2
ENDMDL
