MODEL 1
REMARK VINA RESULT:      -7.1      0.000      0.000
REMARK  7 active torsions:
REMARK  status: ('A' for Active; 'I' for Inactive)
REMARK    1  A    between atoms: S1_2  and  C2_3 
REMARK    2  A    between atoms: C2_3  and  C3_4 
REMARK    3  A    between atoms: C5_6  and  C6_7 
REMARK    4  A    between atoms: C11_12  and  O1_13 
REMARK    5  A    between atoms: C14_17  and  C15_18 
REMARK    6  A    between atoms: C15_18  and  S2_19 
REMARK    7  A    between atoms: C17_21  and  O2_22 
ROOT
HETATM    1  C3  UNL     1      25.958   0.085  54.194  1.00  0.00    -0.014 A 
HETATM    2  C4  UNL     1      25.833   0.935  53.094  1.00  0.00     0.022 A 
HETATM    3  C5  UNL     1      24.588   1.044  52.462  1.00  0.00    -0.033 A 
HETATM    4  C13 UNL     1      23.488   0.341  52.895  1.00  0.00     0.022 A 
HETATM    5  C14 UNL     1      23.613  -0.490  53.974  1.00  0.00    -0.014 A 
HETATM    6  C17 UNL     1      24.837  -0.624  54.626  1.00  0.00     0.079 A 
ENDROOT
BRANCH   3   7
HETATM    7  C6  UNL     1      24.489   1.944  51.352  1.00  0.00     0.047 C 
HETATM    8  C7  UNL     1      23.354   2.248  50.653  1.00  0.00     0.164 A 
HETATM    9  C8  UNL     1      22.658   3.033  49.505  1.00  0.00     0.240 A 
HETATM   10  N1  UNL     1      21.932   2.058  50.315  1.00  0.00     0.015 N 
HETATM   11  C9  UNL     1      22.753   2.871  48.169  1.00  0.00    -0.004 A 
HETATM   12  C12 UNL     1      21.808   3.489  50.785  1.00  0.00     0.301 A 
HETATM   13  C10 UNL     1      21.958   1.600  48.058  1.00  0.00     0.045 A 
HETATM   14  C11 UNL     1      21.368   1.001  49.494  1.00  0.00     0.356 A 
BRANCH  14  15
HETATM   15  O1  UNL     1      20.021   1.017  49.366  1.00  0.00    -0.366 OA
HETATM   16  H10 UNL     1      19.571   0.189  49.672  1.00  0.00     0.212 HD
ENDBRANCH  14  15
ENDBRANCH   3   7
BRANCH   1  17
HETATM   17  C2  UNL     1      27.204  -0.108  54.959  1.00  0.00     0.114 C 
BRANCH  17  18
HETATM   18  S1  UNL     1      28.661   0.461  54.082  1.00  0.00    -0.169 SA
HETATM   19  C1  UNL     1      29.769  -0.868  53.571  1.00  0.00     0.090 C 
ENDBRANCH  17  18
ENDBRANCH   1  17
BRANCH   5  20
HETATM   20  C15 UNL     1      22.412  -1.218  54.427  1.00  0.00     0.114 C 
BRANCH  20  21
HETATM   21  S2  UNL     1      20.998  -0.075  54.557  1.00  0.00    -0.169 SA
HETATM   22  C16 UNL     1      19.722  -0.487  53.345  1.00  0.00     0.090 C 
ENDBRANCH  20  21
ENDBRANCH   5  20
BRANCH   6  23
HETATM   23  O2  UNL     1      24.959  -1.482  55.737  1.00  0.00    -0.360 OA
HETATM   24  H19 UNL     1      25.695  -1.261  56.393  1.00  0.00     0.217 HD
ENDBRANCH   6  23
TORSDOF 7
ENDMDL
MODEL 2
REMARK VINA RESULT:      -7.0      2.322      2.904
REMARK  7 active torsions:
REMARK  status: ('A' for Active; 'I' for Inactive)
REMARK    1  A    between atoms: S1_2  and  C2_3 
REMARK    2  A    between atoms: C2_3  and  C3_4 
REMARK    3  A    between atoms: C5_6  and  C6_7 
REMARK    4  A    between atoms: C11_12  and  O1_13 
REMARK    5  A    between atoms: C14_17  and  C15_18 
REMARK    6  A    between atoms: C15_18  and  S2_19 
REMARK    7  A    between atoms: C17_21  and  O2_22 
ROOT
HETATM    1  C3  UNL     1      24.270  -0.322  53.984  1.00  0.00    -0.014 A 
HETATM    2  C4  UNL     1      24.203   0.479  52.843  1.00  0.00     0.022 A 
HETATM    3  C5  UNL     1      22.967   0.640  52.202  1.00  0.00    -0.033 A 
HETATM    4  C13 UNL     1      21.822   0.034  52.664  1.00  0.00     0.022 A 
HETATM    5  C14 UNL     1      21.891  -0.749  53.783  1.00  0.00    -0.014 A 
HETATM    6  C17 UNL     1      23.103  -0.933  54.446  1.00  0.00     0.079 A 
ENDROOT
BRANCH   3   7
HETATM    7  C6  UNL     1      22.930   1.489  51.049  1.00  0.00     0.047 C 
HETATM    8  C7  UNL     1      23.430   2.758  50.958  1.00  0.00     0.164 A 
HETATM    9  C8  UNL     1      23.680   4.041  50.117  1.00  0.00     0.240 A 
HETATM   10  N1  UNL     1      24.030   3.975  51.535  1.00  0.00     0.015 N 
HETATM   11  C9  UNL     1      22.804   4.969  49.677  1.00  0.00    -0.004 A 
HETATM   12  C12 UNL     1      25.163   3.655  50.587  1.00  0.00     0.301 A 
HETATM   13  C10 UNL     1      22.531   5.637  50.994  1.00  0.00     0.045 A 
HETATM   14  C11 UNL     1      23.345   5.002  52.298  1.00  0.00     0.356 A 
BRANCH  14  15
HETATM   15  O1  UNL     1      24.128   6.006  52.760  1.00  0.00    -0.366 OA
HETATM   16  H10 UNL     1      23.681   6.889  52.793  1.00  0.00     0.212 HD
ENDBRANCH  14  15
ENDBRANCH   3   7
BRANCH   1  17
HETATM   17  C2  UNL     1      25.499  -0.561  54.762  1.00  0.00     0.114 C 
BRANCH  17  18
HETATM   18  S1  UNL     1      26.993  -0.182  53.847  1.00  0.00    -0.169 SA
HETATM   19  C1  UNL     1      28.427   0.141  54.893  1.00  0.00     0.090 C 
ENDBRANCH  17  18
ENDBRANCH   1  17
BRANCH   5  20
HETATM   20  C15 UNL     1      20.644  -1.372  54.267  1.00  0.00     0.114 C 
BRANCH  20  21
HETATM   21  S2  UNL     1      19.222  -0.756  53.307  1.00  0.00    -0.169 SA
HETATM   22  C16 UNL     1      17.825  -1.897  53.416  1.00  0.00     0.090 C 
ENDBRANCH  20  21
ENDBRANCH   5  20
BRANCH   6  23
HETATM   23  O2  UNL     1      23.167  -1.741  55.598  1.00  0.00    -0.360 OA
HETATM   24  H19 UNL     1      22.729  -2.649  55.530  1.00  0.00     0.217 HD
ENDBRANCH   6  23
TORSDOF 7
ENDMDL
MODEL 3
REMARK VINA RESULT:      -7.0      2.393      5.051
REMARK  7 active torsions:
REMARK  status: ('A' for Active; 'I' for Inactive)
REMARK    1  A    between atoms: S1_2  and  C2_3 
REMARK    2  A    between atoms: C2_3  and  C3_4 
REMARK    3  A    between atoms: C5_6  and  C6_7 
REMARK    4  A    between atoms: C11_12  and  O1_13 
REMARK    5  A    between atoms: C14_17  and  C15_18 
REMARK    6  A    between atoms: C15_18  and  S2_19 
REMARK    7  A    between atoms: C17_21  and  O2_22 
ROOT
HETATM    1  C3  UNL     1      23.604  -0.146  53.562  1.00  0.00    -0.014 A 
HETATM    2  C4  UNL     1      23.280   0.627  52.445  1.00  0.00     0.022 A 
HETATM    3  C5  UNL     1      24.292   1.369  51.821  1.00  0.00    -0.033 A 
HETATM    4  C13 UNL     1      25.590   1.356  52.275  1.00  0.00     0.022 A 
HETATM    5  C14 UNL     1      25.903   0.598  53.369  1.00  0.00    -0.014 A 
HETATM    6  C17 UNL     1      24.923  -0.153  54.015  1.00  0.00     0.079 A 
ENDROOT
BRANCH   3   7
HETATM    7  C6  UNL     1      23.931   2.131  50.664  1.00  0.00     0.047 C 
HETATM    8  C7  UNL     1      24.148   3.467  50.471  1.00  0.00     0.164 A 
HETATM    9  C8  UNL     1      24.021   4.728  49.571  1.00  0.00     0.240 A 
HETATM   10  N1  UNL     1      24.562   4.807  50.926  1.00  0.00     0.015 N 
HETATM   11  C9  UNL     1      22.926   5.441  49.235  1.00  0.00    -0.004 A 
HETATM   12  C12 UNL     1      25.600   4.665  49.837  1.00  0.00     0.301 A 
HETATM   13  C10 UNL     1      22.701   6.112  50.560  1.00  0.00     0.045 A 
HETATM   14  C11 UNL     1      23.793   5.718  51.752  1.00  0.00     0.356 A 
BRANCH  14  15
HETATM   15  O1  UNL     1      24.411   6.879  52.072  1.00  0.00    -0.366 OA
HETATM   16  H10 UNL     1      25.297   6.765  52.501  1.00  0.00     0.212 HD
ENDBRANCH  14  15
ENDBRANCH   3   7
BRANCH   1  17
HETATM   17  C2  UNL     1      22.641  -0.986  54.299  1.00  0.00     0.114 C 
BRANCH  17  18
HETATM   18  S1  UNL     1      21.093  -0.148  54.635  1.00  0.00    -0.169 SA
HETATM   19  C1  UNL     1      19.799  -0.498  53.427  1.00  0.00     0.090 C 
ENDBRANCH  17  18
ENDBRANCH   1  17
BRANCH   5  20
HETATM   20  C15 UNL     1      27.308   0.589  53.823  1.00  0.00     0.114 C 
BRANCH  20  21
HETATM   21  S2  UNL     1      28.168  -0.881  53.171  1.00  0.00    -0.169 SA
HETATM   22  C16 UNL     1      29.916  -0.863  53.631  1.00  0.00     0.090 C 
ENDBRANCH  20  21
ENDBRANCH   5  20
BRANCH   6  23
HETATM   23  O2  UNL     1      25.253  -0.932  55.141  1.00  0.00    -0.360 OA
HETATM   24  H19 UNL     1      26.139  -0.727  55.582  1.00  0.00     0.217 HD
ENDBRANCH   6  23
TORSDOF 7
ENDMDL
MODEL 4
REMARK VINA RESULT:      -6.9      0.231      4.198
REMARK  7 active torsions:
REMARK  status: ('A' for Active; 'I' for Inactive)
REMARK    1  A    between atoms: S1_2  and  C2_3 
REMARK    2  A    between atoms: C2_3  and  C3_4 
REMARK    3  A    between atoms: C5_6  and  C6_7 
REMARK    4  A    between atoms: C11_12  and  O1_13 
REMARK    5  A    between atoms: C14_17  and  C15_18 
REMARK    6  A    between atoms: C15_18  and  S2_19 
REMARK    7  A    between atoms: C17_21  and  O2_22 
ROOT
HETATM    1  C3  UNL     1      23.761  -0.444  54.017  1.00  0.00    -0.014 A 
HETATM    2  C4  UNL     1      23.660   0.401  52.910  1.00  0.00     0.022 A 
HETATM    3  C5  UNL     1      24.793   1.116  52.500  1.00  0.00    -0.033 A 
HETATM    4  C13 UNL     1      25.998   1.008  53.154  1.00  0.00     0.022 A 
HETATM    5  C14 UNL     1      26.094   0.179  54.237  1.00  0.00    -0.014 A 
HETATM    6  C17 UNL     1      24.987  -0.547  54.674  1.00  0.00     0.079 A 
ENDROOT
BRANCH   3   7
HETATM    7  C6  UNL     1      24.661   1.954  51.346  1.00  0.00     0.047 C 
HETATM    8  C7  UNL     1      23.499   2.261  50.694  1.00  0.00     0.164 A 
HETATM    9  C8  UNL     1      22.766   3.006  49.543  1.00  0.00     0.240 A 
HETATM   10  N1  UNL     1      22.054   2.106  50.448  1.00  0.00     0.015 N 
HETATM   11  C9  UNL     1      22.777   2.764  48.215  1.00  0.00    -0.004 A 
HETATM   12  C12 UNL     1      22.008   3.566  50.839  1.00  0.00     0.301 A 
HETATM   13  C10 UNL     1      21.933   1.521  48.224  1.00  0.00     0.045 A 
HETATM   14  C11 UNL     1      21.407   1.027  49.724  1.00  0.00     0.356 A 
BRANCH  14  15
HETATM   15  O1  UNL     1      20.056   1.088  49.670  1.00  0.00    -0.366 OA
HETATM   16  H10 UNL     1      19.638   0.392  49.102  1.00  0.00     0.212 HD
ENDBRANCH  14  15
ENDBRANCH   3   7
BRANCH   1  17
HETATM   17  C2  UNL     1      22.653  -1.264  54.540  1.00  0.00     0.114 C 
BRANCH  17  18
HETATM   18  S1  UNL     1      21.125  -0.345  54.724  1.00  0.00    -0.169 SA
HETATM   19  C1  UNL     1      20.079  -0.372  53.255  1.00  0.00     0.090 C 
ENDBRANCH  17  18
ENDBRANCH   1  17
BRANCH   5  20
HETATM   20  C15 UNL     1      27.404   0.069  54.909  1.00  0.00     0.114 C 
BRANCH  20  21
HETATM   21  S2  UNL     1      28.745   0.428  53.728  1.00  0.00    -0.169 SA
HETATM   22  C16 UNL     1      29.779  -1.030  53.462  1.00  0.00     0.090 C 
ENDBRANCH  20  21
ENDBRANCH   5  20
BRANCH   6  23
HETATM   23  O2  UNL     1      25.093  -1.399  55.790  1.00  0.00    -0.360 OA
HETATM   24  H19 UNL     1      24.943  -2.382  55.617  1.00  0.00     0.217 HD
ENDBRANCH   6  23
TORSDOF 7
ENDMDL
MODEL 5
REMARK VINA RESULT:      -6.8      3.018      4.859
REMARK  7 active torsions:
REMARK  status: ('A' for Active; 'I' for Inactive)
REMARK    1  A    between atoms: S1_2  and  C2_3 
REMARK    2  A    between atoms: C2_3  and  C3_4 
REMARK    3  A    between atoms: C5_6  and  C6_7 
REMARK    4  A    between atoms: C11_12  and  O1_13 
REMARK    5  A    between atoms: C14_17  and  C15_18 
REMARK    6  A    between atoms: C15_18  and  S2_19 
REMARK    7  A    between atoms: C17_21  and  O2_22 
ROOT
HETATM    1  C3  UNL     1      25.736   1.592  52.443  1.00  0.00    -0.014 A 
HETATM    2  C4  UNL     1      24.403   1.299  52.149  1.00  0.00     0.022 A 
HETATM    3  C5  UNL     1      23.806   1.909  51.038  1.00  0.00    -0.033 A 
HETATM    4  C13 UNL     1      24.495   2.784  50.231  1.00  0.00     0.022 A 
HETATM    5  C14 UNL     1      25.800   3.068  50.521  1.00  0.00    -0.014 A 
HETATM    6  C17 UNL     1      26.427   2.480  51.618  1.00  0.00     0.079 A 
ENDROOT
BRANCH   3   7
HETATM    7  C6  UNL     1      22.446   1.567  50.751  1.00  0.00     0.047 C 
HETATM    8  C7  UNL     1      21.430   1.445  51.659  1.00  0.00     0.164 A 
HETATM    9  C8  UNL     1      19.936   1.143  51.964  1.00  0.00     0.240 A 
HETATM   10  N1  UNL     1      20.901   1.391  53.034  1.00  0.00     0.015 N 
HETATM   11  C9  UNL     1      19.265  -0.027  51.913  1.00  0.00    -0.004 A 
HETATM   12  C12 UNL     1      20.117   2.606  52.593  1.00  0.00     0.301 A 
HETATM   13  C10 UNL     1      19.856  -0.658  53.142  1.00  0.00     0.045 A 
HETATM   14  C11 UNL     1      20.977   0.268  53.950  1.00  0.00     0.356 A 
BRANCH  14  15
HETATM   15  O1  UNL     1      20.451   0.481  55.179  1.00  0.00    -0.366 OA
HETATM   16  H10 UNL     1      19.463   0.412  55.218  1.00  0.00     0.212 HD
ENDBRANCH  14  15
ENDBRANCH   3   7
BRANCH   1  17
HETATM   17  C2  UNL     1      26.488   1.007  53.569  1.00  0.00     0.114 C 
BRANCH  17  18
HETATM   18  S1  UNL     1      27.314  -0.525  53.141  1.00  0.00    -0.169 SA
HETATM   19  C1  UNL     1      28.976  -0.673  53.827  1.00  0.00     0.090 C 
ENDBRANCH  17  18
ENDBRANCH   1  17
BRANCH   5  20
HETATM   20  C15 UNL     1      26.520   3.996  49.627  1.00  0.00     0.114 C 
BRANCH  20  21
HETATM   21  S2  UNL     1      25.435   5.385  49.160  1.00  0.00    -0.169 SA
HETATM   22  C16 UNL     1      24.920   6.321  50.618  1.00  0.00     0.090 C 
ENDBRANCH  20  21
ENDBRANCH   5  20
BRANCH   6  23
HETATM   23  O2  UNL     1      27.772   2.777  51.911  1.00  0.00    -0.360 OA
HETATM   24  H19 UNL     1      28.048   2.689  52.878  1.00  0.00     0.217 HD
ENDBRANCH   6  23
TORSDOF 7
ENDMDL
MODEL 6
REMARK VINA RESULT:      -6.7      2.949      7.031
REMARK  7 active torsions:
REMARK  status: ('A' for Active; 'I' for Inactive)
REMARK    1  A    between atoms: S1_2  and  C2_3 
REMARK    2  A    between atoms: C2_3  and  C3_4 
REMARK    3  A    between atoms: C5_6  and  C6_7 
REMARK    4  A    between atoms: C11_12  and  O1_13 
REMARK    5  A    between atoms: C14_17  and  C15_18 
REMARK    6  A    between atoms: C15_18  and  S2_19 
REMARK    7  A    between atoms: C17_21  and  O2_22 
ROOT
HETATM    1  C3  UNL     1      23.049   2.386  51.714  1.00  0.00    -0.014 A 
HETATM    2  C4  UNL     1      24.260   1.712  51.880  1.00  0.00     0.022 A 
HETATM    3  C5  UNL     1      25.392   2.177  51.198  1.00  0.00    -0.033 A 
HETATM    4  C13 UNL     1      25.343   3.276  50.372  1.00  0.00     0.022 A 
HETATM    5  C14 UNL     1      24.156   3.934  50.212  1.00  0.00    -0.014 A 
HETATM    6  C17 UNL     1      23.009   3.499  50.875  1.00  0.00     0.079 A 
ENDROOT
BRANCH   3   7
HETATM    7  C6  UNL     1      26.623   1.477  51.411  1.00  0.00     0.047 C 
HETATM    8  C7  UNL     1      26.858   0.517  52.355  1.00  0.00     0.164 A 
HETATM    9  C8  UNL     1      27.832  -0.494  53.023  1.00  0.00     0.240 A 
HETATM   10  N1  UNL     1      26.481  -0.280  53.538  1.00  0.00     0.015 N 
HETATM   11  C9  UNL     1      28.903  -0.267  53.813  1.00  0.00    -0.004 A 
HETATM   12  C12 UNL     1      26.618  -1.442  52.581  1.00  0.00     0.301 A 
HETATM   13  C10 UNL     1      28.162   0.152  55.051  1.00  0.00     0.045 A 
HETATM   14  C11 UNL     1      26.503   0.157  54.921  1.00  0.00     0.356 A 
BRANCH  14  15
HETATM   15  O1  UNL     1      26.068  -0.750  55.827  1.00  0.00    -0.366 OA
HETATM   16  H10 UNL     1      26.452  -1.656  55.715  1.00  0.00     0.212 HD
ENDBRANCH  14  15
ENDBRANCH   3   7
BRANCH   1  17
HETATM   17  C2  UNL     1      21.790   2.013  52.386  1.00  0.00     0.114 C 
BRANCH  17  18
HETATM   18  S1  UNL     1      21.571   0.240  52.530  1.00  0.00    -0.169 SA
HETATM   19  C1  UNL     1      21.214  -0.316  54.209  1.00  0.00     0.090 C 
ENDBRANCH  17  18
ENDBRANCH   1  17
BRANCH   5  20
HETATM   20  C15 UNL     1      24.137   5.121  49.334  1.00  0.00     0.114 C 
BRANCH  20  21
HETATM   21  S2  UNL     1      25.828   5.766  49.117  1.00  0.00    -0.169 SA
HETATM   22  C16 UNL     1      26.007   7.385  49.900  1.00  0.00     0.090 C 
ENDBRANCH  20  21
ENDBRANCH   5  20
BRANCH   6  23
HETATM   23  O2  UNL     1      21.789   4.182  50.705  1.00  0.00    -0.360 OA
HETATM   24  H19 UNL     1      20.950   3.646  50.873  1.00  0.00     0.217 HD
ENDBRANCH   6  23
TORSDOF 7
ENDMDL
MODEL 7
REMARK VINA RESULT:      -6.4      2.906      5.320
REMARK  7 active torsions:
REMARK  status: ('A' for Active; 'I' for Inactive)
REMARK    1  A    between atoms: S1_2  and  C2_3 
REMARK    2  A    between atoms: C2_3  and  C3_4 
REMARK    3  A    between atoms: C5_6  and  C6_7 
REMARK    4  A    between atoms: C11_12  and  O1_13 
REMARK    5  A    between atoms: C14_17  and  C15_18 
REMARK    6  A    between atoms: C15_18  and  S2_19 
REMARK    7  A    between atoms: C17_21  and  O2_22 
ROOT
HETATM    1  C3  UNL     1      23.568   0.451  53.229  1.00  0.00    -0.014 A 
HETATM    2  C4  UNL     1      23.057   1.735  53.032  1.00  0.00     0.022 A 
HETATM    3  C5  UNL     1      23.916   2.741  52.572  1.00  0.00    -0.033 A 
HETATM    4  C13 UNL     1      25.245   2.500  52.308  1.00  0.00     0.022 A 
HETATM    5  C14 UNL     1      25.742   1.241  52.501  1.00  0.00    -0.014 A 
HETATM    6  C17 UNL     1      24.917   0.215  52.958  1.00  0.00     0.079 A 
ENDROOT
BRANCH   3   7
HETATM    7  C6  UNL     1      23.354   4.041  52.357  1.00  0.00     0.047 C 
HETATM    8  C7  UNL     1      23.580   4.856  51.283  1.00  0.00     0.164 A 
HETATM    9  C8  UNL     1      23.320   6.197  50.542  1.00  0.00     0.240 A 
HETATM   10  N1  UNL     1      24.277   5.217  50.035  1.00  0.00     0.015 N 
HETATM   11  C9  UNL     1      23.727   7.446  50.851  1.00  0.00    -0.004 A 
HETATM   12  C12 UNL     1      22.892   5.117  49.438  1.00  0.00     0.301 A 
HETATM   13  C10 UNL     1      25.175   7.289  50.485  1.00  0.00     0.045 A 
HETATM   14  C11 UNL     1      25.607   5.785  49.917  1.00  0.00     0.356 A 
BRANCH  14  15
HETATM   15  O1  UNL     1      26.045   5.990  48.652  1.00  0.00    -0.366 OA
HETATM   16  H10 UNL     1      26.326   5.165  48.179  1.00  0.00     0.212 HD
ENDBRANCH  14  15
ENDBRANCH   3   7
BRANCH   1  17
HETATM   17  C2  UNL     1      22.771  -0.700  53.691  1.00  0.00     0.114 C 
BRANCH  17  18
HETATM   18  S1  UNL     1      21.194  -0.222  54.396  1.00  0.00    -0.169 SA
HETATM   19  C1  UNL     1      19.821  -0.293  53.227  1.00  0.00     0.090 C 
ENDBRANCH  17  18
ENDBRANCH   1  17
BRANCH   5  20
HETATM   20  C15 UNL     1      27.167   1.007  52.193  1.00  0.00     0.114 C 
BRANCH  20  21
HETATM   21  S2  UNL     1      28.213   1.638  53.545  1.00  0.00    -0.169 SA
HETATM   22  C16 UNL     1      28.703   0.304  54.660  1.00  0.00     0.090 C 
ENDBRANCH  20  21
ENDBRANCH   5  20
BRANCH   6  23
HETATM   23  O2  UNL     1      25.436  -1.079  53.155  1.00  0.00    -0.360 OA
HETATM   24  H19 UNL     1      25.585  -1.359  54.113  1.00  0.00     0.217 HD
ENDBRANCH   6  23
TORSDOF 7
ENDMDL
MODEL 8
REMARK VINA RESULT:      -6.4      6.413      8.963
REMARK  7 active torsions:
REMARK  status: ('A' for Active; 'I' for Inactive)
REMARK    1  A    between atoms: S1_2  and  C2_3 
REMARK    2  A    between atoms: C2_3  and  C3_4 
REMARK    3  A    between atoms: C5_6  and  C6_7 
REMARK    4  A    between atoms: C11_12  and  O1_13 
REMARK    5  A    between atoms: C14_17  and  C15_18 
REMARK    6  A    between atoms: C15_18  and  S2_19 
REMARK    7  A    between atoms: C17_21  and  O2_22 
ROOT
HETATM    1  C3  UNL     1      27.039   7.362  47.868  1.00  0.00    -0.014 A 
HETATM    2  C4  UNL     1      26.367   6.299  48.474  1.00  0.00     0.022 A 
HETATM    3  C5  UNL     1      27.084   5.138  48.790  1.00  0.00    -0.033 A 
HETATM    4  C13 UNL     1      28.428   5.017  48.523  1.00  0.00     0.022 A 
HETATM    5  C14 UNL     1      29.083   6.060  47.929  1.00  0.00    -0.014 A 
HETATM    6  C17 UNL     1      28.402   7.230  47.600  1.00  0.00     0.079 A 
ENDROOT
BRANCH   3   7
HETATM    7  C6  UNL     1      26.369   4.077  49.434  1.00  0.00     0.047 C 
HETATM    8  C7  UNL     1      25.104   4.146  49.948  1.00  0.00     0.164 A 
HETATM    9  C8  UNL     1      23.914   3.456  50.674  1.00  0.00     0.240 A 
HETATM   10  N1  UNL     1      23.885   4.878  50.336  1.00  0.00     0.015 N 
HETATM   11  C9  UNL     1      23.801   3.061  51.959  1.00  0.00    -0.004 A 
HETATM   12  C12 UNL     1      23.228   3.971  49.320  1.00  0.00     0.301 A 
HETATM   13  C10 UNL     1      23.659   4.421  52.582  1.00  0.00     0.045 A 
HETATM   14  C11 UNL     1      23.705   5.700  51.518  1.00  0.00     0.356 A 
BRANCH  14  15
HETATM   15  O1  UNL     1      22.500   6.306  51.630  1.00  0.00    -0.366 OA
HETATM   16  H10 UNL     1      22.489   7.083  52.245  1.00  0.00     0.212 HD
ENDBRANCH  14  15
ENDBRANCH   3   7
BRANCH   1  17
HETATM   17  C2  UNL     1      26.409   8.644  47.501  1.00  0.00     0.114 C 
BRANCH  17  18
HETATM   18  S1  UNL     1      26.361   9.816  48.856  1.00  0.00    -0.169 SA
HETATM   19  C1  UNL     1      27.355   9.326  50.279  1.00  0.00     0.090 C 
ENDBRANCH  17  18
ENDBRANCH   1  17
BRANCH   5  20
HETATM   20  C15 UNL     1      30.529   5.909  47.670  1.00  0.00     0.114 C 
BRANCH  20  21
HETATM   21  S2  UNL     1      31.474   6.201  49.202  1.00  0.00    -0.169 SA
HETATM   22  C16 UNL     1      31.669   7.970  49.514  1.00  0.00     0.090 C 
ENDBRANCH  20  21
ENDBRANCH   5  20
BRANCH   6  23
HETATM   23  O2  UNL     1      29.084   8.301  46.990  1.00  0.00    -0.360 OA
HETATM   24  H19 UNL     1      29.550   8.945  47.612  1.00  0.00     0.217 HD
ENDBRANCH   6  23
TORSDOF 7
ENDMDL
MODEL 9
REMARK VINA RESULT:      -6.3      3.204      3.810
REMARK  7 active torsions:
REMARK  status: ('A' for Active; 'I' for Inactive)
REMARK    1  A    between atoms: S1_2  and  C2_3 
REMARK    2  A    between atoms: C2_3  and  C3_4 
REMARK    3  A    between atoms: C5_6  and  C6_7 
REMARK    4  A    between atoms: C11_12  and  O1_13 
REMARK    5  A    between atoms: C14_17  and  C15_18 
REMARK    6  A    between atoms: C15_18  and  S2_19 
REMARK    7  A    between atoms: C17_21  and  O2_22 
ROOT
HETATM    1  C3  UNL     1      24.941   1.525  53.432  1.00  0.00    -0.014 A 
HETATM    2  C4  UNL     1      24.676   2.880  53.222  1.00  0.00     0.022 A 
HETATM    3  C5  UNL     1      23.466   3.246  52.617  1.00  0.00    -0.033 A 
HETATM    4  C13 UNL     1      22.536   2.311  52.226  1.00  0.00     0.022 A 
HETATM    5  C14 UNL     1      22.799   0.986  52.433  1.00  0.00    -0.014 A 
HETATM    6  C17 UNL     1      23.992   0.585  53.032  1.00  0.00     0.079 A 
ENDROOT
BRANCH   3   7
HETATM    7  C6  UNL     1      23.215   4.645  52.440  1.00  0.00     0.047 C 
HETATM    8  C7  UNL     1      23.536   5.395  51.343  1.00  0.00     0.164 A 
HETATM    9  C8  UNL     1      23.542   6.768  50.615  1.00  0.00     0.240 A 
HETATM   10  N1  UNL     1      24.189   5.593  50.036  1.00  0.00     0.015 N 
HETATM   11  C9  UNL     1      24.261   7.880  50.876  1.00  0.00    -0.004 A 
HETATM   12  C12 UNL     1      22.774   5.835  49.562  1.00  0.00     0.301 A 
HETATM   13  C10 UNL     1      25.593   7.384  50.386  1.00  0.00     0.045 A 
HETATM   14  C11 UNL     1      25.601   5.828  49.797  1.00  0.00     0.356 A 
BRANCH  14  15
HETATM   15  O1  UNL     1      25.963   5.936  48.497  1.00  0.00    -0.366 OA
HETATM   16  H10 UNL     1      25.333   6.460  47.940  1.00  0.00     0.212 HD
ENDBRANCH  14  15
ENDBRANCH   3   7
BRANCH   1  17
HETATM   17  C2  UNL     1      26.164   1.007  54.073  1.00  0.00     0.114 C 
BRANCH  17  18
HETATM   18  S1  UNL     1      27.625   1.197  53.053  1.00  0.00    -0.169 SA
HETATM   19  C1  UNL     1      28.763   2.468  53.640  1.00  0.00     0.090 C 
ENDBRANCH  17  18
ENDBRANCH   1  17
BRANCH   5  20
HETATM   20  C15 UNL     1      21.775   0.006  52.020  1.00  0.00     0.114 C 
BRANCH  20  21
HETATM   21  S2  UNL     1      20.574  -0.251  53.367  1.00  0.00    -0.169 SA
HETATM   22  C16 UNL     1      21.083  -1.618  54.434  1.00  0.00     0.090 C 
ENDBRANCH  20  21
ENDBRANCH   5  20
BRANCH   6  23
HETATM   23  O2  UNL     1      24.256  -0.783  53.243  1.00  0.00    -0.360 OA
HETATM   24  H19 UNL     1      23.883  -1.184  54.091  1.00  0.00     0.217 HD
ENDBRANCH   6  23
TORSDOF 7
ENDMDL
