MODEL 1
REMARK VINA RESULT:      -9.0      0.000      0.000
REMARK  5 active torsions:
REMARK  status: ('A' for Active; 'I' for Inactive)
REMARK    1  A    between atoms: C14_19  and  N4_20 
REMARK       I    between atoms: N4_20  and  C15_21 
REMARK    2  A    between atoms: C15_21  and  C16_23 
REMARK    3  A    between atoms: C17_24  and  C18_25 
REMARK    4  A    between atoms: N5_27  and  C20_28 
REMARK    5  A    between atoms: C20_28  and  C21_29 
ROOT
HETATM    1  N1  UNL     1      17.093  -0.941  53.441  1.00  0.00    -0.191 NA
HETATM    2  C1  UNL     1      18.244  -0.902  53.406  1.00  0.00     0.102 C 
HETATM    3  C2  UNL     1      19.662  -0.832  53.374  1.00  0.00     0.074 A 
HETATM    4  C3  UNL     1      20.410  -1.698  54.139  1.00  0.00     0.139 A 
HETATM    5  N2  UNL     1      21.749  -1.658  54.216  1.00  0.00    -0.271 NA
HETATM    6  C4  UNL     1      22.535  -0.783  53.572  1.00  0.00     0.128 A 
HETATM    7  C5  UNL     1      21.867   0.102  52.798  1.00  0.00    -0.004 A 
HETATM    8  C6  UNL     1      20.467   0.054  52.718  1.00  0.00     0.010 A 
HETATM    9  C7  UNL     1      19.587   0.886  51.910  1.00  0.00     0.007 A 
HETATM   10  C8  UNL     1      18.807  -0.052  51.280  1.00  0.00     0.041 A 
HETATM   11  C9  UNL     1      17.862   0.503  50.451  1.00  0.00     0.073 A 
HETATM   12 CL1  UNL     1      16.721  -0.471  49.517  1.00  0.00    -0.081 Cl
HETATM   13  C10 UNL     1      17.744   1.886  50.295  1.00  0.00     0.140 A 
HETATM   14  F1  UNL     1      16.794   2.419  49.464  1.00  0.00    -0.204 F 
HETATM   15  C11 UNL     1      18.551   2.776  50.946  1.00  0.00     0.076 A 
HETATM   16  C12 UNL     1      19.505   2.253  51.782  1.00  0.00     0.070 A 
HETATM   17  N3  UNL     1      20.331   3.301  52.366  1.00  0.00    -0.258 NA
HETATM   18  C13 UNL     1      21.651   3.305  52.487  1.00  0.00     0.147 C 
HETATM   19  C14 UNL     1      22.699   2.354  52.122  1.00  0.00     0.053 C 
HETATM   20  C22 UNL     1      22.871   1.018  52.214  1.00  0.00     0.044 C 
ENDROOT
BRANCH  19  21
HETATM   21  N4  UNL     1      23.873   2.870  51.521  1.00  0.00    -0.322 N 
HETATM   22  C15 UNL     1      24.106   3.046  50.133  1.00  0.00     0.245 C 
HETATM   23  O1  UNL     1      23.156   2.700  49.392  1.00  0.00    -0.268 OA
HETATM   24  H6  UNL     1      24.597   3.127  52.211  1.00  0.00     0.169 HD
BRANCH  22  25
HETATM   25  C16 UNL     1      25.344   3.585  49.589  1.00  0.00     0.077 C 
HETATM   26  C17 UNL     1      25.551   4.878  49.455  1.00  0.00     0.040 C 
BRANCH  26  27
HETATM   27  C18 UNL     1      26.827   5.356  48.898  1.00  0.00     0.091 A 
HETATM   28  C19 UNL     1      27.114   6.661  48.523  1.00  0.00     0.141 A 
HETATM   29  N5  UNL     1      28.397   6.651  48.067  1.00  0.00    -0.281 N 
HETATM   30  N6  UNL     1      28.874   5.421  48.151  1.00  0.00     0.005 NA
HETATM   31  N7  UNL     1      27.932   4.616  48.656  1.00  0.00    -0.159 NA
BRANCH  29  32
HETATM   32  C20 UNL     1      29.141   7.806  47.560  1.00  0.00     0.177 C 
BRANCH  32  33
HETATM   33  C21 UNL     1      30.548   7.790  48.172  1.00  0.00     0.243 C 
HETATM   34  F2  UNL     1      30.511   8.383  49.400  1.00  0.00    -0.254 F 
ENDBRANCH  32  33
ENDBRANCH  29  32
ENDBRANCH  26  27
ENDBRANCH  22  25
ENDBRANCH  19  21
TORSDOF 5
ENDMDL
MODEL 2
REMARK VINA RESULT:      -8.9      1.943      2.489
REMARK  5 active torsions:
REMARK  status: ('A' for Active; 'I' for Inactive)
REMARK    1  A    between atoms: C14_19  and  N4_20 
REMARK       I    between atoms: N4_20  and  C15_21 
REMARK    2  A    between atoms: C15_21  and  C16_23 
REMARK    3  A    between atoms: C17_24  and  C18_25 
REMARK    4  A    between atoms: N5_27  and  C20_28 
REMARK    5  A    between atoms: C20_28  and  C21_29 
ROOT
HETATM    1  N1  UNL     1      19.570  -0.490  53.804  1.00  0.00    -0.191 NA
HETATM    2  C1  UNL     1      20.678  -0.303  53.553  1.00  0.00     0.102 C 
HETATM    3  C2  UNL     1      22.044  -0.051  53.258  1.00  0.00     0.074 A 
HETATM    4  C3  UNL     1      23.021  -0.873  53.771  1.00  0.00     0.139 A 
HETATM    5  N2  UNL     1      24.336  -0.669  53.594  1.00  0.00    -0.271 NA
HETATM    6  C4  UNL     1      24.875   0.347  52.906  1.00  0.00     0.128 A 
HETATM    7  C5  UNL     1      23.972   1.199  52.370  1.00  0.00    -0.004 A 
HETATM    8  C6  UNL     1      22.599   0.980  52.555  1.00  0.00     0.010 A 
HETATM    9  C7  UNL     1      21.488   1.755  52.022  1.00  0.00     0.007 A 
HETATM   10  C8  UNL     1      20.704   0.779  51.459  1.00  0.00     0.041 A 
HETATM   11  C9  UNL     1      19.555   1.273  50.888  1.00  0.00     0.073 A 
HETATM   12 CL1  UNL     1      18.361   0.240  50.094  1.00  0.00    -0.081 Cl
HETATM   13  C10 UNL     1      19.259   2.639  50.901  1.00  0.00     0.140 A 
HETATM   14  F1  UNL     1      18.107   3.111  50.327  1.00  0.00    -0.204 F 
HETATM   15  C11 UNL     1      20.079   3.569  51.475  1.00  0.00     0.076 A 
HETATM   16  C12 UNL     1      21.234   3.106  52.053  1.00  0.00     0.070 A 
HETATM   17  N3  UNL     1      22.042   4.200  52.573  1.00  0.00    -0.258 NA
HETATM   18  C13 UNL     1      23.351   4.363  52.439  1.00  0.00     0.147 C 
HETATM   19  C14 UNL     1      24.400   3.585  51.784  1.00  0.00     0.053 C 
HETATM   20  C22 UNL     1      24.731   2.279  51.702  1.00  0.00     0.044 C 
ENDROOT
BRANCH  19  21
HETATM   21  N4  UNL     1      25.365   4.293  51.025  1.00  0.00    -0.322 N 
HETATM   22  C15 UNL     1      25.246   4.698  49.671  1.00  0.00     0.245 C 
HETATM   23  O1  UNL     1      24.164   4.382  49.121  1.00  0.00    -0.268 OA
HETATM   24  H6  UNL     1      26.219   4.508  51.564  1.00  0.00     0.169 HD
BRANCH  22  25
HETATM   25  C16 UNL     1      26.285   5.425  48.958  1.00  0.00     0.077 C 
HETATM   26  C17 UNL     1      27.542   5.034  48.951  1.00  0.00     0.040 C 
BRANCH  26  27
HETATM   27  C18 UNL     1      28.542   5.817  48.208  1.00  0.00     0.091 A 
HETATM   28  C19 UNL     1      29.882   5.490  48.053  1.00  0.00     0.141 A 
HETATM   29  N5  UNL     1      30.431   6.482  47.299  1.00  0.00    -0.281 N 
HETATM   30  N6  UNL     1      29.495   7.367  47.007  1.00  0.00     0.005 NA
HETATM   31  N7  UNL     1      28.336   6.980  47.551  1.00  0.00    -0.159 NA
BRANCH  29  32
HETATM   32  C20 UNL     1      31.830   6.569  46.875  1.00  0.00     0.177 C 
BRANCH  32  33
HETATM   33  C21 UNL     1      32.451   5.168  46.943  1.00  0.00     0.243 C 
HETATM   34  F2  UNL     1      32.421   4.602  45.701  1.00  0.00    -0.254 F 
ENDBRANCH  32  33
ENDBRANCH  29  32
ENDBRANCH  26  27
ENDBRANCH  22  25
ENDBRANCH  19  21
TORSDOF 5
ENDMDL
MODEL 3
REMARK VINA RESULT:      -8.7      4.054      6.054
REMARK  5 active torsions:
REMARK  status: ('A' for Active; 'I' for Inactive)
REMARK    1  A    between atoms: C14_19  and  N4_20 
REMARK       I    between atoms: N4_20  and  C15_21 
REMARK    2  A    between atoms: C15_21  and  C16_23 
REMARK    3  A    between atoms: C17_24  and  C18_25 
REMARK    4  A    between atoms: N5_27  and  C20_28 
REMARK    5  A    between atoms: C20_28  and  C21_29 
ROOT
HETATM    1  N1  UNL     1      22.856  -0.787  53.004  1.00  0.00    -0.191 NA
HETATM    2  C1  UNL     1      22.649   0.336  52.847  1.00  0.00     0.102 C 
HETATM    3  C2  UNL     1      22.400   1.717  52.630  1.00  0.00     0.074 A 
HETATM    4  C3  UNL     1      21.113   2.202  52.697  1.00  0.00     0.139 A 
HETATM    5  N2  UNL     1      20.783   3.477  52.443  1.00  0.00    -0.271 NA
HETATM    6  C4  UNL     1      21.644   4.444  52.093  1.00  0.00     0.128 A 
HETATM    7  C5  UNL     1      22.931   4.040  52.008  1.00  0.00    -0.004 A 
HETATM    8  C6  UNL     1      23.272   2.706  52.277  1.00  0.00     0.010 A 
HETATM    9  C7  UNL     1      24.597   2.103  52.281  1.00  0.00     0.007 A 
HETATM   10  C8  UNL     1      24.615   1.463  53.496  1.00  0.00     0.041 A 
HETATM   11  C9  UNL     1      25.789   0.789  53.732  1.00  0.00     0.073 A 
HETATM   12 CL1  UNL     1      26.085  -0.124  55.216  1.00  0.00    -0.081 Cl
HETATM   13  C10 UNL     1      26.832   0.784  52.802  1.00  0.00     0.140 A 
HETATM   14  F1  UNL     1      27.994   0.104  53.056  1.00  0.00    -0.204 F 
HETATM   15  C11 UNL     1      26.761   1.442  51.606  1.00  0.00     0.076 A 
HETATM   16  C12 UNL     1      25.601   2.125  51.341  1.00  0.00     0.070 A 
HETATM   17  N3  UNL     1      25.677   2.826  50.067  1.00  0.00    -0.258 NA
HETATM   18  C13 UNL     1      25.296   4.070  49.814  1.00  0.00     0.147 C 
HETATM   19  C14 UNL     1      24.705   5.127  50.631  1.00  0.00     0.053 C 
HETATM   20  C22 UNL     1      23.727   5.204  51.559  1.00  0.00     0.044 C 
ENDROOT
BRANCH  19  21
HETATM   21  N4  UNL     1      25.213   6.441  50.474  1.00  0.00    -0.322 N 
HETATM   22  C15 UNL     1      24.758   7.420  49.554  1.00  0.00     0.245 C 
HETATM   23  O1  UNL     1      23.809   7.052  48.822  1.00  0.00    -0.268 OA
HETATM   24  H6  UNL     1      25.991   6.649  51.121  1.00  0.00     0.169 HD
BRANCH  22  25
HETATM   25  C16 UNL     1      25.333   8.752  49.452  1.00  0.00     0.077 C 
HETATM   26  C17 UNL     1      26.504   8.975  48.893  1.00  0.00     0.040 C 
BRANCH  26  27
HETATM   27  C18 UNL     1      27.026  10.349  48.823  1.00  0.00     0.091 A 
HETATM   28  C19 UNL     1      28.357  10.722  48.949  1.00  0.00     0.141 A 
HETATM   29  N5  UNL     1      28.386  12.077  48.819  1.00  0.00    -0.281 N 
HETATM   30  N6  UNL     1      27.154  12.516  48.626  1.00  0.00     0.005 NA
HETATM   31  N7  UNL     1      26.310  11.478  48.625  1.00  0.00    -0.159 NA
BRANCH  29  32
HETATM   32  C20 UNL     1      29.578  12.924  48.881  1.00  0.00     0.177 C 
BRANCH  32  33
HETATM   33  C21 UNL     1      30.802  12.032  49.124  1.00  0.00     0.243 C 
HETATM   34  F2  UNL     1      31.517  11.925  47.966  1.00  0.00    -0.254 F 
ENDBRANCH  32  33
ENDBRANCH  29  32
ENDBRANCH  26  27
ENDBRANCH  22  25
ENDBRANCH  19  21
TORSDOF 5
ENDMDL
MODEL 4
REMARK VINA RESULT:      -8.2      5.104      6.605
REMARK  5 active torsions:
REMARK  status: ('A' for Active; 'I' for Inactive)
REMARK    1  A    between atoms: C14_19  and  N4_20 
REMARK       I    between atoms: N4_20  and  C15_21 
REMARK    2  A    between atoms: C15_21  and  C16_23 
REMARK    3  A    between atoms: C17_24  and  C18_25 
REMARK    4  A    between atoms: N5_27  and  C20_28 
REMARK    5  A    between atoms: C20_28  and  C21_29 
ROOT
HETATM    1  N1  UNL     1      13.349   2.883  49.788  1.00  0.00    -0.191 NA
HETATM    2  C1  UNL     1      14.467   3.114  49.944  1.00  0.00     0.102 C 
HETATM    3  C2  UNL     1      15.851   3.375  50.127  1.00  0.00     0.074 A 
HETATM    4  C3  UNL     1      16.478   4.326  49.355  1.00  0.00     0.139 A 
HETATM    5  N2  UNL     1      17.792   4.590  49.419  1.00  0.00    -0.271 NA
HETATM    6  C4  UNL     1      18.666   3.975  50.229  1.00  0.00     0.128 A 
HETATM    7  C5  UNL     1      18.119   3.025  51.021  1.00  0.00    -0.004 A 
HETATM    8  C6  UNL     1      16.744   2.755  50.952  1.00  0.00     0.010 A 
HETATM    9  C7  UNL     1      15.976   1.810  51.750  1.00  0.00     0.007 A 
HETATM   10  C8  UNL     1      14.937   2.590  52.194  1.00  0.00     0.041 A 
HETATM   11  C9  UNL     1      14.043   1.901  52.977  1.00  0.00     0.073 A 
HETATM   12 CL1  UNL     1      12.609   2.657  53.681  1.00  0.00    -0.081 Cl
HETATM   13  C10 UNL     1      14.214   0.545  53.266  1.00  0.00     0.140 A 
HETATM   14  F1  UNL     1      13.309  -0.125  54.049  1.00  0.00    -0.204 F 
HETATM   15  C11 UNL     1      15.270  -0.184  52.799  1.00  0.00     0.076 A 
HETATM   16  C12 UNL     1      16.182   0.476  52.014  1.00  0.00     0.070 A 
HETATM   17  N3  UNL     1      17.283  -0.397  51.631  1.00  0.00    -0.258 NA
HETATM   18  C13 UNL     1      18.577  -0.106  51.646  1.00  0.00     0.147 C 
HETATM   19  C14 UNL     1      19.336   1.087  52.013  1.00  0.00     0.053 C 
HETATM   20  C22 UNL     1      19.220   2.414  51.798  1.00  0.00     0.044 C 
ENDROOT
BRANCH  19  21
HETATM   21  N4  UNL     1      20.512   0.906  52.782  1.00  0.00    -0.322 N 
HETATM   22  C15 UNL     1      21.800   0.568  52.292  1.00  0.00     0.245 C 
HETATM   23  O1  UNL     1      21.868   0.424  51.049  1.00  0.00    -0.268 OA
HETATM   24  H6  UNL     1      20.356   1.046  53.793  1.00  0.00     0.169 HD
BRANCH  22  25
HETATM   25  C16 UNL     1      22.964   0.399  53.148  1.00  0.00     0.077 C 
HETATM   26  C17 UNL     1      24.178   0.235  52.664  1.00  0.00     0.040 C 
BRANCH  26  27
HETATM   27  C18 UNL     1      25.312   0.071  53.587  1.00  0.00     0.091 A 
HETATM   28  C19 UNL     1      26.584   0.597  53.416  1.00  0.00     0.141 A 
HETATM   29  N5  UNL     1      27.308   0.202  54.500  1.00  0.00    -0.281 N 
HETATM   30  N6  UNL     1      26.537  -0.524  55.290  1.00  0.00     0.005 NA
HETATM   31  N7  UNL     1      25.316  -0.616  54.752  1.00  0.00    -0.159 NA
BRANCH  29  32
HETATM   32  C20 UNL     1      28.714   0.520  54.760  1.00  0.00     0.177 C 
BRANCH  32  33
HETATM   33  C21 UNL     1      29.578  -0.172  53.698  1.00  0.00     0.243 C 
HETATM   34  F2  UNL     1      29.494  -1.524  53.861  1.00  0.00    -0.254 F 
ENDBRANCH  32  33
ENDBRANCH  29  32
ENDBRANCH  26  27
ENDBRANCH  22  25
ENDBRANCH  19  21
TORSDOF 5
ENDMDL
MODEL 5
REMARK VINA RESULT:      -8.2      4.410     10.097
REMARK  5 active torsions:
REMARK  status: ('A' for Active; 'I' for Inactive)
REMARK    1  A    between atoms: C14_19  and  N4_20 
REMARK       I    between atoms: N4_20  and  C15_21 
REMARK    2  A    between atoms: C15_21  and  C16_23 
REMARK    3  A    between atoms: C17_24  and  C18_25 
REMARK    4  A    between atoms: N5_27  and  C20_28 
REMARK    5  A    between atoms: C20_28  and  C21_29 
ROOT
HETATM    1  N1  UNL     1      26.959   2.858  50.204  1.00  0.00    -0.191 NA
HETATM    2  C1  UNL     1      26.072   2.475  50.831  1.00  0.00     0.102 C 
HETATM    3  C2  UNL     1      24.970   1.989  51.584  1.00  0.00     0.074 A 
HETATM    4  C3  UNL     1      25.179   1.089  52.605  1.00  0.00     0.139 A 
HETATM    5  N2  UNL     1      24.190   0.533  53.322  1.00  0.00    -0.271 NA
HETATM    6  C4  UNL     1      22.882   0.769  53.149  1.00  0.00     0.128 A 
HETATM    7  C5  UNL     1      22.600   1.647  52.160  1.00  0.00    -0.004 A 
HETATM    8  C6  UNL     1      23.637   2.228  51.415  1.00  0.00     0.010 A 
HETATM    9  C7  UNL     1      23.531   3.218  50.352  1.00  0.00     0.007 A 
HETATM   10  C8  UNL     1      24.435   4.169  50.759  1.00  0.00     0.041 A 
HETATM   11  C9  UNL     1      24.530   5.228  49.887  1.00  0.00     0.073 A 
HETATM   12 CL1  UNL     1      25.617   6.594  50.159  1.00  0.00    -0.081 Cl
HETATM   13  C10 UNL     1      23.765   5.289  48.720  1.00  0.00     0.140 A 
HETATM   14  F1  UNL     1      23.875   6.353  47.864  1.00  0.00    -0.204 F 
HETATM   15  C11 UNL     1      22.876   4.312  48.366  1.00  0.00     0.076 A 
HETATM   16  C12 UNL     1      22.758   3.242  49.215  1.00  0.00     0.070 A 
HETATM   17  N3  UNL     1      21.742   2.307  48.753  1.00  0.00    -0.258 NA
HETATM   18  C13 UNL     1      20.803   1.720  49.482  1.00  0.00     0.147 C 
HETATM   19  C14 UNL     1      20.451   1.771  50.899  1.00  0.00     0.053 C 
HETATM   20  C22 UNL     1      21.126   1.746  52.068  1.00  0.00     0.044 C 
ENDROOT
BRANCH  19  21
HETATM   21  N4  UNL     1      19.077   1.861  51.232  1.00  0.00    -0.322 N 
HETATM   22  C15 UNL     1      18.302   3.046  51.315  1.00  0.00     0.245 C 
HETATM   23  O1  UNL     1      18.929   4.102  51.063  1.00  0.00    -0.268 OA
HETATM   24  H6  UNL     1      18.649   0.940  51.422  1.00  0.00     0.169 HD
BRANCH  22  25
HETATM   25  C16 UNL     1      16.889   3.057  51.664  1.00  0.00     0.077 C 
HETATM   26  C17 UNL     1      16.265   4.153  52.043  1.00  0.00     0.040 C 
BRANCH  26  27
HETATM   27  C18 UNL     1      14.834   4.094  52.380  1.00  0.00     0.091 A 
HETATM   28  C19 UNL     1      14.292   4.198  53.654  1.00  0.00     0.141 A 
HETATM   29  N5  UNL     1      12.943   4.091  53.503  1.00  0.00    -0.281 N 
HETATM   30  N6  UNL     1      12.666   3.931  52.221  1.00  0.00     0.005 NA
HETATM   31  N7  UNL     1      13.805   3.930  51.519  1.00  0.00    -0.159 NA
BRANCH  29  32
HETATM   32  C20 UNL     1      11.949   4.143  54.576  1.00  0.00     0.177 C 
BRANCH  32  33
HETATM   33  C21 UNL     1      11.383   2.734  54.790  1.00  0.00     0.243 C 
HETATM   34  F2  UNL     1      12.111   2.098  55.754  1.00  0.00    -0.254 F 
ENDBRANCH  32  33
ENDBRANCH  29  32
ENDBRANCH  26  27
ENDBRANCH  22  25
ENDBRANCH  19  21
TORSDOF 5
ENDMDL
MODEL 6
REMARK VINA RESULT:      -8.1      5.120     13.292
REMARK  5 active torsions:
REMARK  status: ('A' for Active; 'I' for Inactive)
REMARK    1  A    between atoms: C14_19  and  N4_20 
REMARK       I    between atoms: N4_20  and  C15_21 
REMARK    2  A    between atoms: C15_21  and  C16_23 
REMARK    3  A    between atoms: C17_24  and  C18_25 
REMARK    4  A    between atoms: N5_27  and  C20_28 
REMARK    5  A    between atoms: C20_28  and  C21_29 
ROOT
HETATM    1  N1  UNL     1      34.733   8.476  44.451  1.00  0.00    -0.191 NA
HETATM    2  C1  UNL     1      33.590   8.512  44.584  1.00  0.00     0.102 C 
HETATM    3  C2  UNL     1      32.183   8.566  44.772  1.00  0.00     0.074 A 
HETATM    4  C3  UNL     1      31.426   9.453  44.041  1.00  0.00     0.139 A 
HETATM    5  N2  UNL     1      30.104   9.613  44.201  1.00  0.00    -0.271 NA
HETATM    6  C4  UNL     1      29.344   8.944  45.080  1.00  0.00     0.128 A 
HETATM    7  C5  UNL     1      30.022   8.051  45.836  1.00  0.00    -0.004 A 
HETATM    8  C6  UNL     1      31.404   7.885  45.663  1.00  0.00     0.010 A 
HETATM    9  C7  UNL     1      32.287   6.949  46.345  1.00  0.00     0.007 A 
HETATM   10  C8  UNL     1      32.943   6.358  45.293  1.00  0.00     0.041 A 
HETATM   11  C9  UNL     1      33.866   5.422  45.692  1.00  0.00     0.073 A 
HETATM   12 CL1  UNL     1      34.857   4.509  44.549  1.00  0.00    -0.081 Cl
HETATM   13  C10 UNL     1      34.081   5.132  47.042  1.00  0.00     0.140 A 
HETATM   14  F1  UNL     1      35.008   4.196  47.419  1.00  0.00    -0.204 F 
HETATM   15  C11 UNL     1      33.396   5.751  48.050  1.00  0.00     0.076 A 
HETATM   16  C12 UNL     1      32.466   6.691  47.684  1.00  0.00     0.070 A 
HETATM   17  N3  UNL     1      31.770   7.228  48.844  1.00  0.00    -0.258 NA
HETATM   18  C13 UNL     1      30.466   7.434  48.971  1.00  0.00     0.147 C 
HETATM   19  C14 UNL     1      29.324   7.226  48.084  1.00  0.00     0.053 C 
HETATM   20  C22 UNL     1      29.054   7.451  46.781  1.00  0.00     0.044 C 
ENDROOT
BRANCH  19  21
HETATM   21  N4  UNL     1      28.153   6.658  48.644  1.00  0.00    -0.322 N 
HETATM   22  C15 UNL     1      27.827   5.278  48.705  1.00  0.00     0.245 C 
HETATM   23  O1  UNL     1      28.685   4.514  48.203  1.00  0.00    -0.268 OA
HETATM   24  H6  UNL     1      27.509   7.366  49.032  1.00  0.00     0.169 HD
BRANCH  22  25
HETATM   25  C16 UNL     1      26.601   4.769  49.299  1.00  0.00     0.077 C 
HETATM   26  C17 UNL     1      26.502   3.545  49.773  1.00  0.00     0.040 C 
BRANCH  26  27
HETATM   27  C18 UNL     1      25.231   3.094  50.361  1.00  0.00     0.091 A 
HETATM   28  C19 UNL     1      25.093   2.266  51.466  1.00  0.00     0.141 A 
HETATM   29  N5  UNL     1      23.754   2.111  51.661  1.00  0.00    -0.281 N 
HETATM   30  N6  UNL     1      23.104   2.797  50.738  1.00  0.00     0.005 NA
HETATM   31  N7  UNL     1      23.986   3.404  49.935  1.00  0.00    -0.159 NA
BRANCH  29  32
HETATM   32  C20 UNL     1      23.122   1.317  52.716  1.00  0.00     0.177 C 
BRANCH  32  33
HETATM   33  C21 UNL     1      24.083   0.193  53.126  1.00  0.00     0.243 C 
HETATM   34  F2  UNL     1      23.401  -0.988  53.169  1.00  0.00    -0.254 F 
ENDBRANCH  32  33
ENDBRANCH  29  32
ENDBRANCH  26  27
ENDBRANCH  22  25
ENDBRANCH  19  21
TORSDOF 5
ENDMDL
MODEL 7
REMARK VINA RESULT:      -7.9      3.986     10.105
REMARK  5 active torsions:
REMARK  status: ('A' for Active; 'I' for Inactive)
REMARK    1  A    between atoms: C14_19  and  N4_20 
REMARK       I    between atoms: N4_20  and  C15_21 
REMARK    2  A    between atoms: C15_21  and  C16_23 
REMARK    3  A    between atoms: C17_24  and  C18_25 
REMARK    4  A    between atoms: N5_27  and  C20_28 
REMARK    5  A    between atoms: C20_28  and  C21_29 
ROOT
HETATM    1  N1  UNL     1      27.516   4.462  48.928  1.00  0.00    -0.191 NA
HETATM    2  C1  UNL     1      26.825   3.831  49.599  1.00  0.00     0.102 C 
HETATM    3  C2  UNL     1      25.963   3.042  50.407  1.00  0.00     0.074 A 
HETATM    4  C3  UNL     1      26.493   2.095  51.254  1.00  0.00     0.139 A 
HETATM    5  N2  UNL     1      25.750   1.265  52.002  1.00  0.00    -0.271 NA
HETATM    6  C4  UNL     1      24.409   1.239  52.029  1.00  0.00     0.128 A 
HETATM    7  C5  UNL     1      23.818   2.146  51.219  1.00  0.00    -0.004 A 
HETATM    8  C6  UNL     1      24.599   3.013  50.441  1.00  0.00     0.010 A 
HETATM    9  C7  UNL     1      24.146   4.074  49.552  1.00  0.00     0.007 A 
HETATM   10  C8  UNL     1      24.900   5.141  49.975  1.00  0.00     0.041 A 
HETATM   11  C9  UNL     1      24.658   6.288  49.259  1.00  0.00     0.073 A 
HETATM   12 CL1  UNL     1      25.491   7.812  49.586  1.00  0.00    -0.081 Cl
HETATM   13  C10 UNL     1      23.727   6.321  48.217  1.00  0.00     0.140 A 
HETATM   14  F1  UNL     1      23.500   7.475  47.515  1.00  0.00    -0.204 F 
HETATM   15  C11 UNL     1      23.000   5.227  47.840  1.00  0.00     0.076 A 
HETATM   16  C12 UNL     1      23.219   4.065  48.536  1.00  0.00     0.070 A 
HETATM   17  N3  UNL     1      22.343   2.997  48.075  1.00  0.00    -0.258 NA
HETATM   18  C13 UNL     1      21.656   2.146  48.825  1.00  0.00     0.147 C 
HETATM   19  C14 UNL     1      21.520   1.958  50.267  1.00  0.00     0.053 C 
HETATM   20  C22 UNL     1      22.356   1.942  51.326  1.00  0.00     0.044 C 
ENDROOT
BRANCH  19  21
HETATM   21  N4  UNL     1      20.220   1.718  50.778  1.00  0.00    -0.322 N 
HETATM   22  C15 UNL     1      19.280   2.696  51.192  1.00  0.00     0.245 C 
HETATM   23  O1  UNL     1      19.671   3.882  51.081  1.00  0.00    -0.268 OA
HETATM   24  H6  UNL     1      19.989   0.713  50.831  1.00  0.00     0.169 HD
BRANCH  22  25
HETATM   25  C16 UNL     1      17.959   2.371  51.708  1.00  0.00     0.077 C 
HETATM   26  C17 UNL     1      16.885   3.061  51.384  1.00  0.00     0.040 C 
BRANCH  26  27
HETATM   27  C18 UNL     1      15.579   2.677  51.941  1.00  0.00     0.091 A 
HETATM   28  C19 UNL     1      14.489   3.517  52.117  1.00  0.00     0.141 A 
HETATM   29  N5  UNL     1      13.500   2.751  52.656  1.00  0.00    -0.281 N 
HETATM   30  N6  UNL     1      13.948   1.517  52.806  1.00  0.00     0.005 NA
HETATM   31  N7  UNL     1      15.213   1.450  52.376  1.00  0.00    -0.159 NA
BRANCH  29  32
HETATM   32  C20 UNL     1      12.156   3.206  53.017  1.00  0.00     0.177 C 
BRANCH  32  33
HETATM   33  C21 UNL     1      12.282   4.413  53.956  1.00  0.00     0.243 C 
HETATM   34  F2  UNL     1      12.413   3.971  55.240  1.00  0.00    -0.254 F 
ENDBRANCH  32  33
ENDBRANCH  29  32
ENDBRANCH  26  27
ENDBRANCH  22  25
ENDBRANCH  19  21
TORSDOF 5
ENDMDL
MODEL 8
REMARK VINA RESULT:      -7.8      2.521      3.429
REMARK  5 active torsions:
REMARK  status: ('A' for Active; 'I' for Inactive)
REMARK    1  A    between atoms: C14_19  and  N4_20 
REMARK       I    between atoms: N4_20  and  C15_21 
REMARK    2  A    between atoms: C15_21  and  C16_23 
REMARK    3  A    between atoms: C17_24  and  C18_25 
REMARK    4  A    between atoms: N5_27  and  C20_28 
REMARK    5  A    between atoms: C20_28  and  C21_29 
ROOT
HETATM    1  N1  UNL     1      21.019  -0.517  54.623  1.00  0.00    -0.191 NA
HETATM    2  C1  UNL     1      21.980  -0.244  54.050  1.00  0.00     0.102 C 
HETATM    3  C2  UNL     1      23.167   0.114  53.356  1.00  0.00     0.074 A 
HETATM    4  C3  UNL     1      24.332  -0.583  53.583  1.00  0.00     0.139 A 
HETATM    5  N2  UNL     1      25.509  -0.271  53.020  1.00  0.00    -0.271 NA
HETATM    6  C4  UNL     1      25.715   0.747  52.171  1.00  0.00     0.128 A 
HETATM    7  C5  UNL     1      24.610   1.478  51.900  1.00  0.00    -0.004 A 
HETATM    8  C6  UNL     1      23.381   1.146  52.490  1.00  0.00     0.010 A 
HETATM    9  C7  UNL     1      22.088   1.783  52.285  1.00  0.00     0.007 A 
HETATM   10  C8  UNL     1      21.281   0.707  52.009  1.00  0.00     0.041 A 
HETATM   11  C9  UNL     1      19.971   1.059  51.789  1.00  0.00     0.073 A 
HETATM   12 CL1  UNL     1      18.714  -0.125  51.415  1.00  0.00    -0.081 Cl
HETATM   13  C10 UNL     1      19.549   2.389  51.847  1.00  0.00     0.140 A 
HETATM   14  F1  UNL     1      18.238   2.719  51.625  1.00  0.00    -0.204 F 
HETATM   15  C11 UNL     1      20.398   3.424  52.124  1.00  0.00     0.076 A 
HETATM   16  C12 UNL     1      21.713   3.105  52.349  1.00  0.00     0.070 A 
HETATM   17  N3  UNL     1      22.518   4.298  52.573  1.00  0.00    -0.258 NA
HETATM   18  C13 UNL     1      23.707   4.571  52.053  1.00  0.00     0.147 C 
HETATM   19  C14 UNL     1      24.595   3.854  51.141  1.00  0.00     0.053 C 
HETATM   20  C22 UNL     1      25.024   2.582  51.006  1.00  0.00     0.044 C 
ENDROOT
BRANCH  19  21
HETATM   21  N4  UNL     1      25.218   4.600  50.110  1.00  0.00    -0.322 N 
HETATM   22  C15 UNL     1      26.547   4.447  49.639  1.00  0.00     0.245 C 
HETATM   23  O1  UNL     1      27.208   3.552  50.216  1.00  0.00    -0.268 OA
HETATM   24  H6  UNL     1      24.593   5.312  49.697  1.00  0.00     0.169 HD
BRANCH  22  25
HETATM   25  C16 UNL     1      27.117   5.254  48.571  1.00  0.00     0.077 C 
HETATM   26  C17 UNL     1      27.036   6.568  48.560  1.00  0.00     0.040 C 
BRANCH  26  27
HETATM   27  C18 UNL     1      27.636   7.323  47.448  1.00  0.00     0.091 A 
HETATM   28  C19 UNL     1      26.987   8.258  46.654  1.00  0.00     0.141 A 
HETATM   29  N5  UNL     1      27.912   8.705  45.760  1.00  0.00    -0.281 N 
HETATM   30  N6  UNL     1      29.059   8.088  45.983  1.00  0.00     0.005 NA
HETATM   31  N7  UNL     1      28.912   7.241  47.009  1.00  0.00    -0.159 NA
BRANCH  29  32
HETATM   32  C20 UNL     1      27.687   9.705  44.715  1.00  0.00     0.177 C 
BRANCH  32  33
HETATM   33  C21 UNL     1      26.341  10.394  44.976  1.00  0.00     0.243 C 
HETATM   34  F2  UNL     1      25.384   9.821  44.190  1.00  0.00    -0.254 F 
ENDBRANCH  32  33
ENDBRANCH  29  32
ENDBRANCH  26  27
ENDBRANCH  22  25
ENDBRANCH  19  21
TORSDOF 5
ENDMDL
MODEL 9
REMARK VINA RESULT:      -7.8      3.019      4.451
REMARK  5 active torsions:
REMARK  status: ('A' for Active; 'I' for Inactive)
REMARK    1  A    between atoms: C14_19  and  N4_20 
REMARK       I    between atoms: N4_20  and  C15_21 
REMARK    2  A    between atoms: C15_21  and  C16_23 
REMARK    3  A    between atoms: C17_24  and  C18_25 
REMARK    4  A    between atoms: N5_27  and  C20_28 
REMARK    5  A    between atoms: C20_28  and  C21_29 
ROOT
HETATM    1  N1  UNL     1      18.438  -0.378  52.067  1.00  0.00    -0.191 NA
HETATM    2  C1  UNL     1      18.555   0.722  51.746  1.00  0.00     0.102 C 
HETATM    3  C2  UNL     1      18.710   2.071  51.329  1.00  0.00     0.074 A 
HETATM    4  C3  UNL     1      17.606   2.811  50.973  1.00  0.00     0.139 A 
HETATM    5  N2  UNL     1      17.669   4.068  50.508  1.00  0.00    -0.271 NA
HETATM    6  C4  UNL     1      18.797   4.769  50.326  1.00  0.00     0.128 A 
HETATM    7  C5  UNL     1      19.927   4.104  50.656  1.00  0.00    -0.004 A 
HETATM    8  C6  UNL     1      19.855   2.790  51.145  1.00  0.00     0.010 A 
HETATM    9  C7  UNL     1      20.949   1.939  51.591  1.00  0.00     0.007 A 
HETATM   10  C8  UNL     1      20.499   1.517  52.818  1.00  0.00     0.041 A 
HETATM   11  C9  UNL     1      21.374   0.665  53.448  1.00  0.00     0.073 A 
HETATM   12 CL1  UNL     1      21.049  -0.034  55.038  1.00  0.00    -0.081 Cl
HETATM   13  C10 UNL     1      22.589   0.297  52.864  1.00  0.00     0.140 A 
HETATM   14  F1  UNL     1      23.448  -0.554  53.509  1.00  0.00    -0.204 F 
HETATM   15  C11 UNL     1      22.989   0.751  51.638  1.00  0.00     0.076 A 
HETATM   16  C12 UNL     1      22.136   1.603  50.983  1.00  0.00     0.070 A 
HETATM   17  N3  UNL     1      22.705   2.056  49.722  1.00  0.00    -0.258 NA
HETATM   18  C13 UNL     1      22.713   3.294  49.246  1.00  0.00     0.147 C 
HETATM   19  C14 UNL     1      22.203   4.568  49.748  1.00  0.00     0.053 C 
HETATM   20  C22 UNL     1      21.068   4.992  50.342  1.00  0.00     0.044 C 
ENDROOT
BRANCH  19  21
HETATM   21  N4  UNL     1      23.035   5.707  49.613  1.00  0.00    -0.322 N 
HETATM   22  C15 UNL     1      23.988   6.175  50.554  1.00  0.00     0.245 C 
HETATM   23  O1  UNL     1      24.076   5.488  51.599  1.00  0.00    -0.268 OA
HETATM   24  H6  UNL     1      22.890   6.207  48.721  1.00  0.00     0.169 HD
BRANCH  22  25
HETATM   25  C16 UNL     1      24.809   7.357  50.344  1.00  0.00     0.077 C 
HETATM   26  C17 UNL     1      26.006   7.297  49.798  1.00  0.00     0.040 C 
BRANCH  26  27
HETATM   27  C18 UNL     1      26.783   8.533  49.614  1.00  0.00     0.091 A 
HETATM   28  C19 UNL     1      28.019   8.632  48.990  1.00  0.00     0.141 A 
HETATM   29  N5  UNL     1      28.366   9.948  49.041  1.00  0.00    -0.281 N 
HETATM   30  N6  UNL     1      27.410  10.620  49.658  1.00  0.00     0.005 NA
HETATM   31  N7  UNL     1      26.436   9.776  50.015  1.00  0.00    -0.159 NA
BRANCH  29  32
HETATM   32  C20 UNL     1      29.595  10.537  48.507  1.00  0.00     0.177 C 
BRANCH  32  33
HETATM   33  C21 UNL     1      30.796   9.779  49.087  1.00  0.00     0.243 C 
HETATM   34  F2  UNL     1      30.975  10.148  50.388  1.00  0.00    -0.254 F 
ENDBRANCH  32  33
ENDBRANCH  29  32
ENDBRANCH  26  27
ENDBRANCH  22  25
ENDBRANCH  19  21
TORSDOF 5
ENDMDL
