MODEL 1
REMARK VINA RESULT:      -9.6      0.000      0.000
REMARK  1 active torsions:
REMARK  status: ('A' for Active; 'I' for Inactive)
REMARK    1  A    between atoms: C17_20  and  C18_21 
ROOT
HETATM    1  C1  UNL     1      26.552  -1.320  52.568  1.00  0.00     0.022 C 
HETATM    2  C2  UNL     1      26.182  -0.052  52.529  1.00  0.00    -0.025 C 
HETATM    3  C3  UNL     1      24.788   0.301  52.693  1.00  0.00     0.089 C 
HETATM    4  C4  UNL     1      24.341   1.456  52.251  1.00  0.00     0.044 C 
HETATM    5  C5  UNL     1      23.059   2.149  52.226  1.00  0.00     0.032 C 
HETATM    6  C6  UNL     1      21.866   1.702  52.584  1.00  0.00    -0.001 C 
HETATM    7  C7  UNL     1      20.862   2.735  52.394  1.00  0.00     0.390 C 
HETATM    8  O1  UNL     1      20.129   3.724  52.173  1.00  0.00    -0.405 OA
HETATM    9  C8  UNL     1      21.292   0.492  53.103  1.00  0.00    -0.020 A 
HETATM   10  C9  UNL     1      19.998   0.498  52.900  1.00  0.00    -0.014 A 
HETATM   11  C10 UNL     1      18.900  -0.448  53.204  1.00  0.00     0.032 A 
HETATM   12  C11 UNL     1      19.466  -1.654  53.893  1.00  0.00     0.031 A 
HETATM   13  C12 UNL     1      20.916  -1.590  54.087  1.00  0.00    -0.016 A 
HETATM   14  C13 UNL     1      21.833  -0.681  53.774  1.00  0.00    -0.027 A 
HETATM   15  C14 UNL     1      23.166  -1.096  54.192  1.00  0.00     0.215 C 
HETATM   16  O2  UNL     1      24.218  -0.786  53.345  1.00  0.00    -0.345 OA
HETATM   17  C15 UNL     1      25.314   2.327  51.605  1.00  0.00     0.163 C 
HETATM   18  O3  UNL     1      24.906   3.421  51.140  1.00  0.00    -0.292 OA
HETATM   19  C16 UNL     1      26.766   2.073  51.426  1.00  0.00     0.097 C 
HETATM   20  C17 UNL     1      27.261   0.976  52.310  1.00  0.00     0.050 C 
ENDROOT
BRANCH  20  21
HETATM   21  C18 UNL     1      27.578   1.560  53.656  1.00  0.00    -0.021 C 
HETATM   22  C19 UNL     1      28.712   1.303  54.317  1.00  0.00    -0.034 C 
HETATM   23  C20 UNL     1      29.673   0.389  53.644  1.00  0.00     0.036 C 
ENDBRANCH  20  21
TORSDOF 1
ENDMDL
MODEL 2
REMARK VINA RESULT:      -9.3      2.567      4.887
REMARK  1 active torsions:
REMARK  status: ('A' for Active; 'I' for Inactive)
REMARK    1  A    between atoms: C17_20  and  C18_21 
ROOT
HETATM    1  C1  UNL     1      28.478   2.251  53.389  1.00  0.00     0.022 C 
HETATM    2  C2  UNL     1      27.454   1.431  53.233  1.00  0.00    -0.025 C 
HETATM    3  C3  UNL     1      26.360   1.797  52.360  1.00  0.00     0.089 C 
HETATM    4  C4  UNL     1      25.180   1.234  52.505  1.00  0.00     0.044 C 
HETATM    5  C5  UNL     1      23.880   1.331  51.853  1.00  0.00     0.032 C 
HETATM    6  C6  UNL     1      23.481   2.177  50.917  1.00  0.00    -0.001 C 
HETATM    7  C7  UNL     1      22.099   1.913  50.552  1.00  0.00     0.390 C 
HETATM    8  O1  UNL     1      20.916   1.557  50.358  1.00  0.00    -0.405 OA
HETATM    9  C8  UNL     1      24.027   3.273  50.167  1.00  0.00    -0.020 A 
HETATM   10  C9  UNL     1      23.053   3.985  49.656  1.00  0.00    -0.014 A 
HETATM   11  C10 UNL     1      22.993   5.201  48.814  1.00  0.00     0.032 A 
HETATM   12  C11 UNL     1      24.389   5.666  48.522  1.00  0.00     0.031 A 
HETATM   13  C12 UNL     1      25.424   4.824  49.122  1.00  0.00    -0.016 A 
HETATM   14  C13 UNL     1      25.379   3.731  49.876  1.00  0.00    -0.027 A 
HETATM   15  C14 UNL     1      26.713   3.260  50.223  1.00  0.00     0.215 C 
HETATM   16  O2  UNL     1      26.891   2.750  51.499  1.00  0.00    -0.345 OA
HETATM   17  C15 UNL     1      25.055   0.250  53.571  1.00  0.00     0.163 C 
HETATM   18  O3  UNL     1      23.929  -0.277  53.756  1.00  0.00    -0.292 OA
HETATM   19  C16 UNL     1      26.124  -0.221  54.488  1.00  0.00     0.097 C 
HETATM   20  C17 UNL     1      27.488   0.131  53.993  1.00  0.00     0.050 C 
ENDROOT
BRANCH  20  21
HETATM   21  C18 UNL     1      27.925  -0.925  53.020  1.00  0.00    -0.021 C 
HETATM   22  C19 UNL     1      29.154  -1.454  53.016  1.00  0.00    -0.034 C 
HETATM   23  C20 UNL     1      30.095  -0.936  54.044  1.00  0.00     0.036 C 
ENDBRANCH  20  21
TORSDOF 1
ENDMDL
MODEL 3
REMARK VINA RESULT:      -9.1      2.246      4.110
REMARK  1 active torsions:
REMARK  status: ('A' for Active; 'I' for Inactive)
REMARK    1  A    between atoms: C17_20  and  C18_21 
ROOT
HETATM    1  C1  UNL     1      24.722   1.811  52.675  1.00  0.00     0.022 C 
HETATM    2  C2  UNL     1      24.266   0.676  53.176  1.00  0.00    -0.025 C 
HETATM    3  C3  UNL     1      22.894   0.281  52.941  1.00  0.00     0.089 C 
HETATM    4  C4  UNL     1      22.308  -0.583  53.742  1.00  0.00     0.044 C 
HETATM    5  C5  UNL     1      20.994  -1.207  53.837  1.00  0.00     0.032 C 
HETATM    6  C6  UNL     1      19.903  -0.958  53.130  1.00  0.00    -0.001 C 
HETATM    7  C7  UNL     1      18.815  -1.819  53.560  1.00  0.00     0.390 C 
HETATM    8  O1  UNL     1      17.992  -2.626  54.046  1.00  0.00    -0.405 OA
HETATM    9  C8  UNL     1      19.498  -0.083  52.066  1.00  0.00    -0.020 A 
HETATM   10  C9  UNL     1      18.191  -0.008  52.032  1.00  0.00    -0.014 A 
HETATM   11  C10 UNL     1      17.219   0.716  51.181  1.00  0.00     0.032 A 
HETATM   12  C11 UNL     1      17.964   1.521  50.158  1.00  0.00     0.031 A 
HETATM   13  C12 UNL     1      19.419   1.388  50.256  1.00  0.00    -0.016 A 
HETATM   14  C13 UNL     1      20.214   0.700  51.068  1.00  0.00    -0.027 A 
HETATM   15  C14 UNL     1      21.620   0.907  50.747  1.00  0.00     0.215 C 
HETATM   16  O2  UNL     1      22.505   0.988  51.810  1.00  0.00    -0.345 OA
HETATM   17  C15 UNL     1      23.109  -1.095  54.845  1.00  0.00     0.163 C 
HETATM   18  O3  UNL     1      22.562  -1.894  55.648  1.00  0.00    -0.292 OA
HETATM   19  C16 UNL     1      24.529  -0.783  55.144  1.00  0.00     0.097 C 
HETATM   20  C17 UNL     1      25.227  -0.159  53.981  1.00  0.00     0.050 C 
ENDROOT
BRANCH  20  21
HETATM   21  C18 UNL     1      25.709  -1.255  53.074  1.00  0.00    -0.021 C 
HETATM   22  C19 UNL     1      26.988  -1.392  52.707  1.00  0.00    -0.034 C 
HETATM   23  C20 UNL     1      27.939  -0.385  53.248  1.00  0.00     0.036 C 
ENDBRANCH  20  21
TORSDOF 1
ENDMDL
MODEL 4
REMARK VINA RESULT:      -8.7      2.471      6.812
REMARK  1 active torsions:
REMARK  status: ('A' for Active; 'I' for Inactive)
REMARK    1  A    between atoms: C17_20  and  C18_21 
ROOT
HETATM    1  C1  UNL     1      21.366   2.053  48.488  1.00  0.00     0.022 C 
HETATM    2  C2  UNL     1      20.809   1.706  49.635  1.00  0.00    -0.025 C 
HETATM    3  C3  UNL     1      21.633   1.226  50.724  1.00  0.00     0.089 C 
HETATM    4  C4  UNL     1      21.104   0.498  51.684  1.00  0.00     0.044 C 
HETATM    5  C5  UNL     1      21.581  -0.147  52.900  1.00  0.00     0.032 C 
HETATM    6  C6  UNL     1      22.821  -0.270  53.344  1.00  0.00    -0.001 C 
HETATM    7  C7  UNL     1      22.838  -0.989  54.607  1.00  0.00     0.390 C 
HETATM    8  O1  UNL     1      22.678  -1.617  55.676  1.00  0.00    -0.405 OA
HETATM    9  C8  UNL     1      24.145   0.106  52.930  1.00  0.00    -0.020 A 
HETATM   10  C9  UNL     1      25.027  -0.619  53.570  1.00  0.00    -0.014 A 
HETATM   11  C10 UNL     1      26.507  -0.689  53.566  1.00  0.00     0.032 A 
HETATM   12  C11 UNL     1      27.044   0.317  52.591  1.00  0.00     0.031 A 
HETATM   13  C12 UNL     1      26.001   1.091  51.916  1.00  0.00    -0.016 A 
HETATM   14  C13 UNL     1      24.674   1.082  51.988  1.00  0.00    -0.027 A 
HETATM   15  C14 UNL     1      24.079   2.067  51.095  1.00  0.00     0.215 C 
HETATM   16  O2  UNL     1      22.907   1.708  50.449  1.00  0.00    -0.345 OA
HETATM   17  C15 UNL     1      19.679   0.217  51.577  1.00  0.00     0.163 C 
HETATM   18  O3  UNL     1      19.154  -0.507  52.461  1.00  0.00    -0.292 OA
HETATM   19  C16 UNL     1      18.745   0.696  50.526  1.00  0.00     0.097 C 
HETATM   20  C17 UNL     1      19.313   1.834  49.744  1.00  0.00     0.050 C 
ENDROOT
BRANCH  20  21
HETATM   21  C18 UNL     1      19.043   3.106  50.494  1.00  0.00    -0.021 C 
HETATM   22  C19 UNL     1      18.435   4.165  49.947  1.00  0.00    -0.034 C 
HETATM   23  C20 UNL     1      18.028   4.026  48.524  1.00  0.00     0.036 C 
ENDBRANCH  20  21
TORSDOF 1
ENDMDL
MODEL 5
REMARK VINA RESULT:      -8.6      2.705      5.406
REMARK  1 active torsions:
REMARK  status: ('A' for Active; 'I' for Inactive)
REMARK    1  A    between atoms: C17_20  and  C18_21 
ROOT
HETATM    1  C1  UNL     1      22.111   5.392  51.310  1.00  0.00     0.022 C 
HETATM    2  C2  UNL     1      23.147   4.722  50.838  1.00  0.00    -0.025 C 
HETATM    3  C3  UNL     1      23.477   3.422  51.382  1.00  0.00     0.089 C 
HETATM    4  C4  UNL     1      24.692   2.937  51.249  1.00  0.00     0.044 C 
HETATM    5  C5  UNL     1      25.389   1.718  51.641  1.00  0.00     0.032 C 
HETATM    6  C6  UNL     1      24.961   0.727  52.406  1.00  0.00    -0.001 C 
HETATM    7  C7  UNL     1      25.988  -0.293  52.533  1.00  0.00     0.390 C 
HETATM    8  O1  UNL     1      26.970  -1.068  52.540  1.00  0.00    -0.405 OA
HETATM    9  C8  UNL     1      23.776   0.380  53.139  1.00  0.00    -0.020 A 
HETATM   10  C9  UNL     1      24.062  -0.539  54.028  1.00  0.00    -0.014 A 
HETATM   11  C10 UNL     1      23.276  -1.270  55.048  1.00  0.00     0.032 A 
HETATM   12  C11 UNL     1      21.851  -0.805  54.999  1.00  0.00     0.031 A 
HETATM   13  C12 UNL     1      21.606   0.220  53.983  1.00  0.00    -0.016 A 
HETATM   14  C13 UNL     1      22.390   0.825  53.097  1.00  0.00    -0.027 A 
HETATM   15  C14 UNL     1      21.651   1.790  52.294  1.00  0.00     0.215 C 
HETATM   16  O2  UNL     1      22.301   2.970  51.968  1.00  0.00    -0.345 OA
HETATM   17  C15 UNL     1      25.652   3.772  50.540  1.00  0.00     0.163 C 
HETATM   18  O3  UNL     1      26.831   3.350  50.430  1.00  0.00    -0.292 OA
HETATM   19  C16 UNL     1      25.401   5.095  49.913  1.00  0.00     0.097 C 
HETATM   20  C17 UNL     1      23.943   5.367  49.734  1.00  0.00     0.050 C 
ENDROOT
BRANCH  20  21
HETATM   21  C18 UNL     1      23.496   4.728  48.451  1.00  0.00    -0.021 C 
HETATM   22  C19 UNL     1      22.834   5.390  47.496  1.00  0.00    -0.034 C 
HETATM   23  C20 UNL     1      22.549   6.824  47.766  1.00  0.00     0.036 C 
ENDBRANCH  20  21
TORSDOF 1
ENDMDL
MODEL 6
REMARK VINA RESULT:      -8.5      3.337      5.127
REMARK  1 active torsions:
REMARK  status: ('A' for Active; 'I' for Inactive)
REMARK    1  A    between atoms: C17_20  and  C18_21 
ROOT
HETATM    1  C1  UNL     1      27.168   4.349  48.958  1.00  0.00     0.022 C 
HETATM    2  C2  UNL     1      26.023   4.892  49.333  1.00  0.00    -0.025 C 
HETATM    3  C3  UNL     1      25.140   4.175  50.227  1.00  0.00     0.089 C 
HETATM    4  C4  UNL     1      23.861   4.477  50.278  1.00  0.00     0.044 C 
HETATM    5  C5  UNL     1      22.696   4.005  51.016  1.00  0.00     0.032 C 
HETATM    6  C6  UNL     1      22.594   2.970  51.834  1.00  0.00    -0.001 C 
HETATM    7  C7  UNL     1      21.241   2.868  52.354  1.00  0.00     0.390 C 
HETATM    8  O1  UNL     1      20.042   2.923  52.706  1.00  0.00    -0.405 OA
HETATM    9  C8  UNL     1      23.440   1.928  52.346  1.00  0.00    -0.020 A 
HETATM   10  C9  UNL     1      22.701   0.955  52.817  1.00  0.00    -0.014 A 
HETATM   11  C10 UNL     1      22.993  -0.349  53.454  1.00  0.00     0.032 A 
HETATM   12  C11 UNL     1      24.480  -0.531  53.545  1.00  0.00     0.031 A 
HETATM   13  C12 UNL     1      25.240   0.596  53.001  1.00  0.00    -0.016 A 
HETATM   14  C13 UNL     1      24.881   1.746  52.440  1.00  0.00    -0.027 A 
HETATM   15  C14 UNL     1      26.039   2.544  52.060  1.00  0.00     0.215 C 
HETATM   16  O2  UNL     1      25.955   3.253  50.872  1.00  0.00    -0.345 OA
HETATM   17  C15 UNL     1      23.410   5.549  49.400  1.00  0.00     0.163 C 
HETATM   18  O3  UNL     1      22.185   5.833  49.401  1.00  0.00    -0.292 OA
HETATM   19  C16 UNL     1      24.241   6.367  48.482  1.00  0.00     0.097 C 
HETATM   20  C17 UNL     1      25.698   6.260  48.793  1.00  0.00     0.050 C 
ENDROOT
BRANCH  20  21
HETATM   21  C18 UNL     1      26.022   7.241  49.882  1.00  0.00    -0.021 C 
HETATM   22  C19 UNL     1      26.868   8.264  49.719  1.00  0.00    -0.034 C 
HETATM   23  C20 UNL     1      27.492   8.393  48.375  1.00  0.00     0.036 C 
ENDBRANCH  20  21
TORSDOF 1
ENDMDL
MODEL 7
REMARK VINA RESULT:      -8.3      2.751      8.090
REMARK  1 active torsions:
REMARK  status: ('A' for Active; 'I' for Inactive)
REMARK    1  A    between atoms: C17_20  and  C18_21 
ROOT
HETATM    1  C1  UNL     1      17.566   0.803  49.841  1.00  0.00     0.022 C 
HETATM    2  C2  UNL     1      17.616   0.266  51.047  1.00  0.00    -0.025 C 
HETATM    3  C3  UNL     1      18.874   0.201  51.759  1.00  0.00     0.089 C 
HETATM    4  C4  UNL     1      19.042  -0.670  52.730  1.00  0.00     0.044 C 
HETATM    5  C5  UNL     1      20.115  -1.032  53.647  1.00  0.00     0.032 C 
HETATM    6  C6  UNL     1      21.367  -0.604  53.670  1.00  0.00    -0.001 C 
HETATM    7  C7  UNL     1      22.095  -1.229  54.761  1.00  0.00     0.390 C 
HETATM    8  O1  UNL     1      22.572  -1.850  55.737  1.00  0.00    -0.405 OA
HETATM    9  C8  UNL     1      22.200   0.298  52.925  1.00  0.00    -0.020 A 
HETATM   10  C9  UNL     1      23.460   0.031  53.163  1.00  0.00    -0.014 A 
HETATM   11  C10 UNL     1      24.744   0.603  52.697  1.00  0.00     0.032 A 
HETATM   12  C11 UNL     1      24.465   1.728  51.746  1.00  0.00     0.031 A 
HETATM   13  C12 UNL     1      23.037   1.970  51.529  1.00  0.00    -0.016 A 
HETATM   14  C13 UNL     1      21.938   1.394  52.002  1.00  0.00    -0.027 A 
HETATM   15  C14 UNL     1      20.732   2.016  51.471  1.00  0.00     0.215 C 
HETATM   16  O2  UNL     1      19.669   1.179  51.174  1.00  0.00    -0.345 OA
HETATM   17  C15 UNL     1      17.910  -1.537  53.029  1.00  0.00     0.163 C 
HETATM   18  O3  UNL     1      18.054  -2.404  53.928  1.00  0.00    -0.292 OA
HETATM   19  C16 UNL     1      16.571  -1.520  52.386  1.00  0.00     0.097 C 
HETATM   20  C17 UNL     1      16.327  -0.259  51.624  1.00  0.00     0.050 C 
ENDROOT
BRANCH  20  21
HETATM   21  C18 UNL     1      15.828   0.784  52.581  1.00  0.00    -0.021 C 
HETATM   22  C19 UNL     1      14.686   1.457  52.400  1.00  0.00    -0.034 C 
HETATM   23  C20 UNL     1      13.911   1.120  51.177  1.00  0.00     0.036 C 
ENDBRANCH  20  21
TORSDOF 1
ENDMDL
MODEL 8
REMARK VINA RESULT:      -7.8      3.013      4.850
REMARK  1 active torsions:
REMARK  status: ('A' for Active; 'I' for Inactive)
REMARK    1  A    between atoms: C17_20  and  C18_21 
ROOT
HETATM    1  C1  UNL     1      25.259   3.181  49.722  1.00  0.00     0.022 C 
HETATM    2  C2  UNL     1      23.948   3.223  49.559  1.00  0.00    -0.025 C 
HETATM    3  C3  UNL     1      23.090   2.398  50.382  1.00  0.00     0.089 C 
HETATM    4  C4  UNL     1      21.873   2.101  49.979  1.00  0.00     0.044 C 
HETATM    5  C5  UNL     1      20.751   1.330  50.500  1.00  0.00     0.032 C 
HETATM    6  C6  UNL     1      20.699   0.562  51.576  1.00  0.00    -0.001 C 
HETATM    7  C7  UNL     1      19.374  -0.018  51.719  1.00  0.00     0.390 C 
HETATM    8  O1  UNL     1      18.194  -0.431  51.695  1.00  0.00    -0.405 OA
HETATM    9  C8  UNL     1      21.577   0.145  52.633  1.00  0.00    -0.020 A 
HETATM   10  C9  UNL     1      21.095  -0.928  53.207  1.00  0.00    -0.014 A 
HETATM   11  C10 UNL     1      21.543  -1.793  54.323  1.00  0.00     0.032 A 
HETATM   12  C11 UNL     1      22.839  -1.268  54.863  1.00  0.00     0.031 A 
HETATM   13  C12 UNL     1      23.316  -0.067  54.174  1.00  0.00    -0.016 A 
HETATM   14  C13 UNL     1      22.835   0.651  53.165  1.00  0.00    -0.027 A 
HETATM   15  C14 UNL     1      23.700   1.778  52.846  1.00  0.00     0.215 C 
HETATM   16  O2  UNL     1      23.849   2.100  51.506  1.00  0.00    -0.345 OA
HETATM   17  C15 UNL     1      21.464   2.640  48.689  1.00  0.00     0.163 C 
HETATM   18  O3  UNL     1      20.320   2.341  48.263  1.00  0.00    -0.292 OA
HETATM   19  C16 UNL     1      22.253   3.524  47.795  1.00  0.00     0.097 C 
HETATM   20  C17 UNL     1      23.413   4.149  48.499  1.00  0.00     0.050 C 
ENDROOT
BRANCH  20  21
HETATM   21  C18 UNL     1      22.928   5.380  49.208  1.00  0.00    -0.021 C 
HETATM   22  C19 UNL     1      23.541   6.566  49.118  1.00  0.00    -0.034 C 
HETATM   23  C20 UNL     1      24.757   6.615  48.263  1.00  0.00     0.036 C 
ENDBRANCH  20  21
TORSDOF 1
ENDMDL
MODEL 9
REMARK VINA RESULT:      -7.7      6.825     11.172
REMARK  1 active torsions:
REMARK  status: ('A' for Active; 'I' for Inactive)
REMARK    1  A    between atoms: C17_20  and  C18_21 
ROOT
HETATM    1  C1  UNL     1      24.694   7.903  47.310  1.00  0.00     0.022 C 
HETATM    2  C2  UNL     1      25.400   7.099  48.086  1.00  0.00    -0.025 C 
HETATM    3  C3  UNL     1      26.835   7.014  47.925  1.00  0.00     0.089 C 
HETATM    4  C4  UNL     1      27.490   5.959  48.360  1.00  0.00     0.044 C 
HETATM    5  C5  UNL     1      28.878   5.516  48.384  1.00  0.00     0.032 C 
HETATM    6  C6  UNL     1      29.937   6.073  47.818  1.00  0.00    -0.001 C 
HETATM    7  C7  UNL     1      31.130   5.293  48.101  1.00  0.00     0.390 C 
HETATM    8  O1  UNL     1      32.050   4.515  48.434  1.00  0.00    -0.405 OA
HETATM    9  C8  UNL     1      30.234   7.222  47.010  1.00  0.00    -0.020 A 
HETATM   10  C9  UNL     1      31.392   7.058  46.422  1.00  0.00    -0.014 A 
HETATM   11  C10 UNL     1      32.205   7.876  45.493  1.00  0.00     0.032 A 
HETATM   12  C11 UNL     1      31.482   9.158  45.204  1.00  0.00     0.031 A 
HETATM   13  C12 UNL     1      30.196   9.272  45.895  1.00  0.00    -0.016 A 
HETATM   14  C13 UNL     1      29.539   8.470  46.726  1.00  0.00    -0.027 A 
HETATM   15  C14 UNL     1      28.273   9.054  47.148  1.00  0.00     0.215 C 
HETATM   16  O2  UNL     1      27.195   8.193  47.284  1.00  0.00    -0.345 OA
HETATM   17  C15 UNL     1      26.694   4.916  48.994  1.00  0.00     0.163 C 
HETATM   18  O3  UNL     1      27.288   3.880  49.387  1.00  0.00    -0.292 OA
HETATM   19  C16 UNL     1      25.230   4.929  49.241  1.00  0.00     0.097 C 
HETATM   20  C17 UNL     1      24.649   6.299  49.117  1.00  0.00     0.050 C 
ENDROOT
BRANCH  20  21
HETATM   21  C18 UNL     1      24.827   7.009  50.427  1.00  0.00    -0.021 C 
HETATM   22  C19 UNL     1      23.842   7.677  51.038  1.00  0.00    -0.034 C 
HETATM   23  C20 UNL     1      22.526   7.687  50.345  1.00  0.00     0.036 C 
ENDBRANCH  20  21
TORSDOF 1
ENDMDL
