MODEL 1
REMARK VINA RESULT:      -7.5      0.000      0.000
REMARK  5 active torsions:
REMARK  status: ('A' for Active; 'I' for Inactive)
REMARK    1  A    between atoms: C2_2  and  N2_9 
REMARK    2  A    between atoms: C3_3  and  C4_4 
REMARK    3  A    between atoms: C4_4  and  C5_6 
REMARK    4  A    between atoms: C5_6  and  N1_7 
REMARK    5  A    between atoms: C15_20  and  O3_22 
ROOT
HETATM    1  N2  UNL     1      23.996   0.281  52.749  1.00  0.00    -0.400 N 
HETATM    2  C7  UNL     1      23.617   1.343  51.952  1.00  0.00     0.122 C 
HETATM    3  C8  UNL     1      24.246   1.991  50.828  1.00  0.00     0.054 C 
HETATM    4  C9  UNL     1      23.162   3.079  50.525  1.00  0.00    -0.068 A 
HETATM    5  O1  UNL     1      22.740   4.131  49.775  1.00  0.00     0.000 OA
HETATM    6  C10 UNL     1      23.419   4.798  48.740  1.00  0.00     0.000 C 
HETATM    7  C11 UNL     1      21.989   3.455  50.973  1.00  0.00     0.132 A 
HETATM    8  C12 UNL     1      21.151   2.867  52.098  1.00  0.00     0.246 C 
HETATM    9  N3  UNL     1      20.306   2.385  53.166  1.00  0.00     0.317 NA
HETATM   10  C13 UNL     1      20.775   1.034  53.494  1.00  0.00     0.381 A 
HETATM   11  C14 UNL     1      21.730   0.184  53.741  1.00  0.00     0.066 A 
HETATM   12  C15 UNL     1      20.371  -0.556  53.819  1.00  0.00     0.238 A 
HETATM   13  O2  UNL     1      21.121  -1.624  53.865  1.00  0.00    -0.195 OA
HETATM   14  C16 UNL     1      23.130  -0.414  53.754  1.00  0.00     0.131 C 
ENDROOT
BRANCH   1  15
HETATM   15  C2  UNL     1      25.159  -0.473  52.900  1.00  0.00     0.062 A 
HETATM   16  C1  UNL     1      25.550   0.765  53.580  1.00  0.00     0.046 A 
HETATM   17  C3  UNL     1      26.492  -0.254  53.382  1.00  0.00     0.061 A 
BRANCH  17  18
HETATM   18  C4  UNL     1      27.758  -0.350  53.665  1.00  0.00     0.024 C 
HETATM   19 CL1  UNL     1      29.278  -1.104  53.483  1.00  0.00    -0.091 Cl
BRANCH  18  20
HETATM   20  C5  UNL     1      28.079   0.437  54.931  1.00  0.00     0.316 C 
BRANCH  20  21
HETATM   21  N1  UNL     1      29.125   1.379  54.614  1.00  0.00     0.083 N 
HETATM   22  C6  UNL     1      28.801   2.468  53.726  1.00  0.00     0.307 C 
HETATM   23  H6  UNL     1      29.930   0.825  54.163  1.00  0.00     0.315 HD
ENDBRANCH  20  21
ENDBRANCH  18  20
ENDBRANCH  17  18
ENDBRANCH   1  15
BRANCH  12  24
HETATM   24  O3  UNL     1      19.189  -1.107  53.883  1.00  0.00    -0.361 OA
HETATM   25  H20 UNL     1      18.866  -2.022  53.551  1.00  0.00     0.213 HD
ENDBRANCH  12  24
TORSDOF 5
ENDMDL
MODEL 2
REMARK VINA RESULT:      -7.4      3.616      5.935
REMARK  5 active torsions:
REMARK  status: ('A' for Active; 'I' for Inactive)
REMARK    1  A    between atoms: C2_2  and  N2_9 
REMARK    2  A    between atoms: C3_3  and  C4_4 
REMARK    3  A    between atoms: C4_4  and  C5_6 
REMARK    4  A    between atoms: C5_6  and  N1_7 
REMARK    5  A    between atoms: C15_20  and  O3_22 
ROOT
HETATM    1  N2  UNL     1      24.269   2.104  52.983  1.00  0.00    -0.400 N 
HETATM    2  C7  UNL     1      23.279   1.187  53.273  1.00  0.00     0.122 C 
HETATM    3  C8  UNL     1      21.913   1.055  52.830  1.00  0.00     0.054 C 
HETATM    4  C9  UNL     1      21.513  -0.232  53.625  1.00  0.00    -0.068 A 
HETATM    5  O1  UNL     1      20.576  -1.163  53.948  1.00  0.00     0.000 OA
HETATM    6  C10 UNL     1      19.224  -1.212  53.568  1.00  0.00     0.000 C 
HETATM    7  C11 UNL     1      22.060  -1.094  54.449  1.00  0.00     0.132 A 
HETATM    8  C12 UNL     1      23.483  -1.151  54.980  1.00  0.00     0.246 C 
HETATM    9  N3  UNL     1      24.806  -1.264  55.549  1.00  0.00     0.317 NA
HETATM   10  C13 UNL     1      25.691  -0.437  54.719  1.00  0.00     0.381 A 
HETATM   11  C14 UNL     1      25.958   0.665  54.081  1.00  0.00     0.066 A 
HETATM   12  C15 UNL     1      27.149  -0.311  53.911  1.00  0.00     0.238 A 
HETATM   13  O2  UNL     1      27.550   0.564  53.028  1.00  0.00    -0.195 OA
HETATM   14  C16 UNL     1      25.713   1.986  53.365  1.00  0.00     0.131 C 
ENDROOT
BRANCH   1  15
HETATM   15  C2  UNL     1      24.319   3.320  52.302  1.00  0.00     0.062 A 
HETATM   16  C1  UNL     1      24.588   2.386  51.206  1.00  0.00     0.046 A 
HETATM   17  C3  UNL     1      24.671   3.768  50.986  1.00  0.00     0.061 A 
BRANCH  17  18
HETATM   18  C4  UNL     1      24.989   4.475  49.942  1.00  0.00     0.024 C 
HETATM   19 CL1  UNL     1      24.585   5.579  48.704  1.00  0.00    -0.091 Cl
BRANCH  18  20
HETATM   20  C5  UNL     1      26.296   3.973  49.339  1.00  0.00     0.316 C 
BRANCH  20  21
HETATM   21  N1  UNL     1      27.285   5.011  49.498  1.00  0.00     0.083 N 
HETATM   22  C6  UNL     1      28.143   5.298  48.376  1.00  0.00     0.307 C 
HETATM   23  H6  UNL     1      27.917   4.729  50.322  1.00  0.00     0.315 HD
ENDBRANCH  20  21
ENDBRANCH  18  20
ENDBRANCH  17  18
ENDBRANCH   1  15
BRANCH  12  24
HETATM   24  O3  UNL     1      28.120  -1.180  53.824  1.00  0.00    -0.361 OA
HETATM   25  H20 UNL     1      29.105  -1.050  53.576  1.00  0.00     0.213 HD
ENDBRANCH  12  24
TORSDOF 5
ENDMDL
MODEL 3
REMARK VINA RESULT:      -7.4      3.856      6.379
REMARK  5 active torsions:
REMARK  status: ('A' for Active; 'I' for Inactive)
REMARK    1  A    between atoms: C2_2  and  N2_9 
REMARK    2  A    between atoms: C3_3  and  C4_4 
REMARK    3  A    between atoms: C4_4  and  C5_6 
REMARK    4  A    between atoms: C5_6  and  N1_7 
REMARK    5  A    between atoms: C15_20  and  O3_22 
ROOT
HETATM    1  N2  UNL     1      24.650   1.774  52.606  1.00  0.00    -0.400 N 
HETATM    2  C7  UNL     1      23.710   0.886  53.090  1.00  0.00     0.122 C 
HETATM    3  C8  UNL     1      22.357   0.587  52.690  1.00  0.00     0.054 C 
HETATM    4  C9  UNL     1      22.022  -0.519  53.745  1.00  0.00    -0.068 A 
HETATM    5  O1  UNL     1      21.135  -1.409  54.264  1.00  0.00     0.000 OA
HETATM    6  C10 UNL     1      19.790  -1.615  53.908  1.00  0.00     0.000 C 
HETATM    7  C11 UNL     1      22.608  -1.152  54.733  1.00  0.00     0.132 A 
HETATM    8  C12 UNL     1      24.027  -1.014  55.260  1.00  0.00     0.246 C 
HETATM    9  N3  UNL     1      25.350  -0.928  55.835  1.00  0.00     0.317 NA
HETATM   10  C13 UNL     1      26.195  -0.251  54.844  1.00  0.00     0.381 A 
HETATM   11  C14 UNL     1      26.406   0.701  53.983  1.00  0.00     0.066 A 
HETATM   12  C15 UNL     1      27.651  -0.220  54.023  1.00  0.00     0.238 A 
HETATM   13  O2  UNL     1      28.011   0.465  52.970  1.00  0.00    -0.195 OA
HETATM   14  C16 UNL     1      26.095   1.822  52.999  1.00  0.00     0.131 C 
ENDROOT
BRANCH   1  15
HETATM   15  C2  UNL     1      24.640   2.816  51.679  1.00  0.00     0.062 A 
HETATM   16  C1  UNL     1      24.092   3.496  52.856  1.00  0.00     0.046 A 
HETATM   17  C3  UNL     1      24.142   4.160  51.622  1.00  0.00     0.061 A 
BRANCH  17  18
HETATM   18  C4  UNL     1      23.751   5.340  51.241  1.00  0.00     0.024 C 
HETATM   19 CL1  UNL     1      22.541   6.531  51.069  1.00  0.00    -0.091 Cl
BRANCH  18  20
HETATM   20  C5  UNL     1      24.765   5.950  50.280  1.00  0.00     0.316 C 
BRANCH  20  21
HETATM   21  N1  UNL     1      25.446   7.017  50.972  1.00  0.00     0.083 N 
HETATM   22  C6  UNL     1      26.171   7.978  50.177  1.00  0.00     0.307 C 
HETATM   23  H6  UNL     1      26.148   6.563  51.649  1.00  0.00     0.315 HD
ENDBRANCH  20  21
ENDBRANCH  18  20
ENDBRANCH  17  18
ENDBRANCH   1  15
BRANCH  12  24
HETATM   24  O3  UNL     1      28.669  -1.033  54.122  1.00  0.00    -0.361 OA
HETATM   25  H20 UNL     1      29.573  -1.024  53.639  1.00  0.00     0.213 HD
ENDBRANCH  12  24
TORSDOF 5
ENDMDL
MODEL 4
REMARK VINA RESULT:      -7.3      3.518      5.727
REMARK  5 active torsions:
REMARK  status: ('A' for Active; 'I' for Inactive)
REMARK    1  A    between atoms: C2_2  and  N2_9 
REMARK    2  A    between atoms: C3_3  and  C4_4 
REMARK    3  A    between atoms: C4_4  and  C5_6 
REMARK    4  A    between atoms: C5_6  and  N1_7 
REMARK    5  A    between atoms: C15_20  and  O3_22 
ROOT
HETATM    1  N2  UNL     1      24.983   2.904  51.296  1.00  0.00    -0.400 N 
HETATM    2  C7  UNL     1      25.616   2.044  52.170  1.00  0.00     0.122 C 
HETATM    3  C8  UNL     1      26.924   2.063  52.779  1.00  0.00     0.054 C 
HETATM    4  C9  UNL     1      26.831   0.743  53.615  1.00  0.00    -0.068 A 
HETATM    5  O1  UNL     1      27.408  -0.139  54.473  1.00  0.00     0.000 OA
HETATM    6  C10 UNL     1      28.719  -0.139  54.980  1.00  0.00     0.000 C 
HETATM    7  C11 UNL     1      25.964  -0.207  53.867  1.00  0.00     0.132 A 
HETATM    8  C12 UNL     1      24.537  -0.368  53.369  1.00  0.00     0.246 C 
HETATM    9  N3  UNL     1      23.184  -0.608  52.922  1.00  0.00     0.317 NA
HETATM   10  C13 UNL     1      22.684   0.667  52.396  1.00  0.00     0.381 A 
HETATM   11  C14 UNL     1      22.830   1.742  51.676  1.00  0.00     0.066 A 
HETATM   12  C15 UNL     1      21.431   1.773  52.341  1.00  0.00     0.238 A 
HETATM   13  O2  UNL     1      21.410   3.003  51.901  1.00  0.00    -0.195 OA
HETATM   14  C16 UNL     1      23.535   2.856  50.914  1.00  0.00     0.131 C 
ENDROOT
BRANCH   1  15
HETATM   15  C2  UNL     1      25.372   4.013  50.544  1.00  0.00     0.062 A 
HETATM   16  C1  UNL     1      26.274   2.991  50.006  1.00  0.00     0.046 A 
HETATM   17  C3  UNL     1      26.411   4.328  49.608  1.00  0.00     0.061 A 
BRANCH  17  18
HETATM   18  C4  UNL     1      27.252   4.930  48.818  1.00  0.00     0.024 C 
HETATM   19 CL1  UNL     1      28.797   5.068  48.106  1.00  0.00    -0.091 Cl
BRANCH  18  20
HETATM   20  C5  UNL     1      26.752   6.329  48.479  1.00  0.00     0.316 C 
BRANCH  20  21
HETATM   21  N1  UNL     1      27.010   7.179  49.615  1.00  0.00     0.083 N 
HETATM   22  C6  UNL     1      25.961   8.076  50.034  1.00  0.00     0.307 C 
HETATM   23  H6  UNL     1      27.871   7.780  49.378  1.00  0.00     0.315 HD
ENDBRANCH  20  21
ENDBRANCH  18  20
ENDBRANCH  17  18
ENDBRANCH   1  15
BRANCH  12  24
HETATM   24  O3  UNL     1      20.263   1.722  52.923  1.00  0.00    -0.361 OA
HETATM   25  H20 UNL     1      19.816   2.379  53.570  1.00  0.00     0.213 HD
ENDBRANCH  12  24
TORSDOF 5
ENDMDL
MODEL 5
REMARK VINA RESULT:      -7.2      3.464      6.405
REMARK  5 active torsions:
REMARK  status: ('A' for Active; 'I' for Inactive)
REMARK    1  A    between atoms: C2_2  and  N2_9 
REMARK    2  A    between atoms: C3_3  and  C4_4 
REMARK    3  A    between atoms: C4_4  and  C5_6 
REMARK    4  A    between atoms: C5_6  and  N1_7 
REMARK    5  A    between atoms: C15_20  and  O3_22 
ROOT
HETATM    1  N2  UNL     1      23.884   1.755  52.266  1.00  0.00    -0.400 N 
HETATM    2  C7  UNL     1      22.831   0.969  52.688  1.00  0.00     0.122 C 
HETATM    3  C8  UNL     1      21.448   0.894  52.284  1.00  0.00     0.054 C 
HETATM    4  C9  UNL     1      20.964  -0.238  53.251  1.00  0.00    -0.068 A 
HETATM    5  O1  UNL     1      19.963  -1.036  53.707  1.00  0.00     0.000 OA
HETATM    6  C10 UNL     1      18.602  -1.023  53.354  1.00  0.00     0.000 C 
HETATM    7  C11 UNL     1      21.459  -1.025  54.176  1.00  0.00     0.132 A 
HETATM    8  C12 UNL     1      22.885  -1.130  54.692  1.00  0.00     0.246 C 
HETATM    9  N3  UNL     1      24.208  -1.275  55.254  1.00  0.00     0.317 NA
HETATM   10  C13 UNL     1      25.137  -0.643  54.310  1.00  0.00     0.381 A 
HETATM   11  C14 UNL     1      25.477   0.339  53.526  1.00  0.00     0.066 A 
HETATM   12  C15 UNL     1      26.581  -0.747  53.474  1.00  0.00     0.238 A 
HETATM   13  O2  UNL     1      27.030  -0.034  52.476  1.00  0.00    -0.195 OA
HETATM   14  C16 UNL     1      25.322   1.569  52.642  1.00  0.00     0.131 C 
ENDROOT
BRANCH   1  15
HETATM   15  C2  UNL     1      24.017   2.861  51.427  1.00  0.00     0.062 A 
HETATM   16  C1  UNL     1      23.707   3.521  52.698  1.00  0.00     0.046 A 
HETATM   17  C3  UNL     1      23.799   4.275  51.520  1.00  0.00     0.061 A 
BRANCH  17  18
HETATM   18  C4  UNL     1      23.629   5.540  51.268  1.00  0.00     0.024 C 
HETATM   19 CL1  UNL     1      24.200   7.148  51.235  1.00  0.00    -0.091 Cl
BRANCH  18  20
HETATM   20  C5  UNL     1      22.145   5.855  51.115  1.00  0.00     0.316 C 
BRANCH  20  21
HETATM   21  N1  UNL     1      21.999   7.289  51.071  1.00  0.00     0.083 N 
HETATM   22  C6  UNL     1      20.935   7.831  50.261  1.00  0.00     0.307 C 
HETATM   23  H6  UNL     1      22.924   7.695  50.701  1.00  0.00     0.315 HD
ENDBRANCH  20  21
ENDBRANCH  18  20
ENDBRANCH  17  18
ENDBRANCH   1  15
BRANCH  12  24
HETATM   24  O3  UNL     1      27.475  -1.698  53.493  1.00  0.00    -0.361 OA
HETATM   25  H20 UNL     1      27.374  -2.706  53.335  1.00  0.00     0.213 HD
ENDBRANCH  12  24
TORSDOF 5
ENDMDL
MODEL 6
REMARK VINA RESULT:      -7.2      3.506      6.456
REMARK  5 active torsions:
REMARK  status: ('A' for Active; 'I' for Inactive)
REMARK    1  A    between atoms: C2_2  and  N2_9 
REMARK    2  A    between atoms: C3_3  and  C4_4 
REMARK    3  A    between atoms: C4_4  and  C5_6 
REMARK    4  A    between atoms: C5_6  and  N1_7 
REMARK    5  A    between atoms: C15_20  and  O3_22 
ROOT
HETATM    1  N2  UNL     1      22.910   0.728  53.295  1.00  0.00    -0.400 N 
HETATM    2  C7  UNL     1      23.296   1.842  52.577  1.00  0.00     0.122 C 
HETATM    3  C8  UNL     1      22.614   3.068  52.240  1.00  0.00     0.054 C 
HETATM    4  C9  UNL     1      23.749   3.771  51.423  1.00  0.00    -0.068 A 
HETATM    5  O1  UNL     1      24.181   4.841  50.706  1.00  0.00     0.000 OA
HETATM    6  C10 UNL     1      23.461   5.985  50.318  1.00  0.00     0.000 C 
HETATM    7  C11 UNL     1      24.989   3.545  51.059  1.00  0.00     0.132 A 
HETATM    8  C12 UNL     1      25.881   2.352  51.360  1.00  0.00     0.246 C 
HETATM    9  N3  UNL     1      26.784   1.246  51.580  1.00  0.00     0.317 NA
HETATM   10  C13 UNL     1      26.240   0.477  52.706  1.00  0.00     0.381 A 
HETATM   11  C14 UNL     1      25.247  -0.089  53.329  1.00  0.00     0.066 A 
HETATM   12  C15 UNL     1      26.541  -0.304  54.153  1.00  0.00     0.238 A 
HETATM   13  O2  UNL     1      25.714  -0.735  55.067  1.00  0.00    -0.195 OA
HETATM   14  C16 UNL     1      23.811  -0.385  53.737  1.00  0.00     0.131 C 
ENDROOT
BRANCH   1  15
HETATM   15  C2  UNL     1      21.709   0.267  53.834  1.00  0.00     0.062 A 
HETATM   16  C1  UNL     1      21.549  -0.137  52.435  1.00  0.00     0.046 A 
HETATM   17  C3  UNL     1      20.489  -0.298  53.338  1.00  0.00     0.061 A 
BRANCH  17  18
HETATM   18  C4  UNL     1      19.273  -0.739  53.198  1.00  0.00     0.024 C 
HETATM   19 CL1  UNL     1      18.040  -1.862  53.558  1.00  0.00    -0.091 Cl
BRANCH  18  20
HETATM   20  C5  UNL     1      18.624  -0.122  51.964  1.00  0.00     0.316 C 
BRANCH  20  21
HETATM   21  N1  UNL     1      17.281  -0.638  51.865  1.00  0.00     0.083 N 
HETATM   22  C6  UNL     1      16.570  -0.428  50.628  1.00  0.00     0.307 C 
HETATM   23  H6  UNL     1      16.703  -0.182  52.650  1.00  0.00     0.315 HD
ENDBRANCH  20  21
ENDBRANCH  18  20
ENDBRANCH  17  18
ENDBRANCH   1  15
BRANCH  12  24
HETATM   24  O3  UNL     1      27.675  -0.458  54.784  1.00  0.00    -0.361 OA
HETATM   25  H20 UNL     1      27.864  -0.578  55.784  1.00  0.00     0.213 HD
ENDBRANCH  12  24
TORSDOF 5
ENDMDL
MODEL 7
REMARK VINA RESULT:      -7.1      3.758      6.811
REMARK  5 active torsions:
REMARK  status: ('A' for Active; 'I' for Inactive)
REMARK    1  A    between atoms: C2_2  and  N2_9 
REMARK    2  A    between atoms: C3_3  and  C4_4 
REMARK    3  A    between atoms: C4_4  and  C5_6 
REMARK    4  A    between atoms: C5_6  and  N1_7 
REMARK    5  A    between atoms: C15_20  and  O3_22 
ROOT
HETATM    1  N2  UNL     1      21.172   0.447  53.034  1.00  0.00    -0.400 N 
HETATM    2  C7  UNL     1      21.946   1.544  52.717  1.00  0.00     0.122 C 
HETATM    3  C8  UNL     1      21.613   2.888  52.312  1.00  0.00     0.054 C 
HETATM    4  C9  UNL     1      23.057   3.470  52.157  1.00  0.00    -0.068 A 
HETATM    5  O1  UNL     1      23.869   4.517  51.852  1.00  0.00     0.000 OA
HETATM    6  C10 UNL     1      23.513   5.790  51.373  1.00  0.00     0.000 C 
HETATM    7  C11 UNL     1      24.300   3.083  52.314  1.00  0.00     0.132 A 
HETATM    8  C12 UNL     1      24.841   1.741  52.780  1.00  0.00     0.246 C 
HETATM    9  N3  UNL     1      25.437   0.490  53.191  1.00  0.00     0.317 NA
HETATM   10  C13 UNL     1      24.380  -0.278  53.859  1.00  0.00     0.381 A 
HETATM   11  C14 UNL     1      23.161  -0.731  53.920  1.00  0.00     0.066 A 
HETATM   12  C15 UNL     1      23.939  -1.222  55.166  1.00  0.00     0.238 A 
HETATM   13  O2  UNL     1      22.756  -1.594  55.577  1.00  0.00    -0.195 OA
HETATM   14  C16 UNL     1      21.667  -0.830  53.642  1.00  0.00     0.131 C 
ENDROOT
BRANCH   1  15
HETATM   15  C2  UNL     1      19.814   0.138  52.949  1.00  0.00     0.062 A 
HETATM   16  C1  UNL     1      20.193   0.086  51.534  1.00  0.00     0.046 A 
HETATM   17  C3  UNL     1      18.847  -0.044  51.906  1.00  0.00     0.061 A 
BRANCH  17  18
HETATM   18  C4  UNL     1      17.753  -0.185  51.217  1.00  0.00     0.024 C 
HETATM   19 CL1  UNL     1      16.929  -0.298  49.726  1.00  0.00    -0.091 Cl
BRANCH  18  20
HETATM   20  C5  UNL     1      16.535   0.075  52.096  1.00  0.00     0.316 C 
BRANCH  20  21
HETATM   21  N1  UNL     1      16.400  -1.037  53.005  1.00  0.00     0.083 N 
HETATM   22  C6  UNL     1      15.834  -2.259  52.492  1.00  0.00     0.307 C 
HETATM   23  H6  UNL     1      15.777  -0.711  53.820  1.00  0.00     0.315 HD
ENDBRANCH  20  21
ENDBRANCH  18  20
ENDBRANCH  17  18
ENDBRANCH   1  15
BRANCH  12  24
HETATM   24  O3  UNL     1      24.663  -1.609  56.183  1.00  0.00    -0.361 OA
HETATM   25  H20 UNL     1      24.401  -2.149  57.014  1.00  0.00     0.213 HD
ENDBRANCH  12  24
TORSDOF 5
ENDMDL
MODEL 8
REMARK VINA RESULT:      -7.1      3.861      6.740
REMARK  5 active torsions:
REMARK  status: ('A' for Active; 'I' for Inactive)
REMARK    1  A    between atoms: C2_2  and  N2_9 
REMARK    2  A    between atoms: C3_3  and  C4_4 
REMARK    3  A    between atoms: C4_4  and  C5_6 
REMARK    4  A    between atoms: C5_6  and  N1_7 
REMARK    5  A    between atoms: C15_20  and  O3_22 
ROOT
HETATM    1  N2  UNL     1      20.558   0.731  52.631  1.00  0.00    -0.400 N 
HETATM    2  C7  UNL     1      21.483   1.745  52.483  1.00  0.00     0.122 C 
HETATM    3  C8  UNL     1      21.354   3.134  52.117  1.00  0.00     0.054 C 
HETATM    4  C9  UNL     1      22.861   3.554  52.188  1.00  0.00    -0.068 A 
HETATM    5  O1  UNL     1      23.815   4.513  52.055  1.00  0.00     0.000 OA
HETATM    6  C10 UNL     1      23.668   5.838  51.609  1.00  0.00     0.000 C 
HETATM    7  C11 UNL     1      24.022   3.020  52.484  1.00  0.00     0.132 A 
HETATM    8  C12 UNL     1      24.346   1.606  52.938  1.00  0.00     0.246 C 
HETATM    9  N3  UNL     1      24.741   0.278  53.349  1.00  0.00     0.317 NA
HETATM   10  C13 UNL     1      23.526  -0.392  53.827  1.00  0.00     0.381 A 
HETATM   11  C14 UNL     1      22.269  -0.705  53.700  1.00  0.00     0.066 A 
HETATM   12  C15 UNL     1      22.810  -1.335  55.007  1.00  0.00     0.238 A 
HETATM   13  O2  UNL     1      21.549  -1.587  55.236  1.00  0.00    -0.195 OA
HETATM   14  C16 UNL     1      20.825  -0.619  53.223  1.00  0.00     0.131 C 
ENDROOT
BRANCH   1  15
HETATM   15  C2  UNL     1      19.200   0.584  52.350  1.00  0.00     0.062 A 
HETATM   16  C1  UNL     1      19.780   0.303  51.034  1.00  0.00     0.046 A 
HETATM   17  C3  UNL     1      18.389   0.389  51.184  1.00  0.00     0.061 A 
BRANCH  17  18
HETATM   18  C4  UNL     1      17.405   0.296  50.337  1.00  0.00     0.024 C 
HETATM   19 CL1  UNL     1      16.459  -0.603  49.238  1.00  0.00    -0.091 Cl
BRANCH  18  20
HETATM   20  C5  UNL     1      16.945   1.683  49.904  1.00  0.00     0.316 C 
BRANCH  20  21
HETATM   21  N1  UNL     1      17.478   1.936  48.588  1.00  0.00     0.083 N 
HETATM   22  C6  UNL     1      18.544   2.900  48.469  1.00  0.00     0.307 C 
HETATM   23  H6  UNL     1      16.665   2.278  47.973  1.00  0.00     0.315 HD
ENDBRANCH  20  21
ENDBRANCH  18  20
ENDBRANCH  17  18
ENDBRANCH   1  15
BRANCH  12  24
HETATM   24  O3  UNL     1      23.342  -1.847  56.085  1.00  0.00    -0.361 OA
HETATM   25  H20 UNL     1      22.924  -2.433  56.815  1.00  0.00     0.213 HD
ENDBRANCH  12  24
TORSDOF 5
ENDMDL
MODEL 9
REMARK VINA RESULT:      -7.0      3.694      5.472
REMARK  5 active torsions:
REMARK  status: ('A' for Active; 'I' for Inactive)
REMARK    1  A    between atoms: C2_2  and  N2_9 
REMARK    2  A    between atoms: C3_3  and  C4_4 
REMARK    3  A    between atoms: C4_4  and  C5_6 
REMARK    4  A    between atoms: C5_6  and  N1_7 
REMARK    5  A    between atoms: C15_20  and  O3_22 
ROOT
HETATM    1  N2  UNL     1      24.725   2.657  51.706  1.00  0.00    -0.400 N 
HETATM    2  C7  UNL     1      23.501   2.033  51.574  1.00  0.00     0.122 C 
HETATM    3  C8  UNL     1      22.374   2.275  50.707  1.00  0.00     0.054 C 
HETATM    4  C9  UNL     1      21.425   1.134  51.204  1.00  0.00    -0.068 A 
HETATM    5  O1  UNL     1      20.234   0.484  51.119  1.00  0.00     0.000 OA
HETATM    6  C10 UNL     1      19.118   0.800  50.324  1.00  0.00     0.000 C 
HETATM    7  C11 UNL     1      21.433   0.150  52.071  1.00  0.00     0.132 A 
HETATM    8  C12 UNL     1      22.536  -0.290  53.020  1.00  0.00     0.246 C 
HETATM    9  N3  UNL     1      23.522  -0.757  53.968  1.00  0.00     0.317 NA
HETATM   10  C13 UNL     1      24.808  -0.188  53.549  1.00  0.00     0.381 A 
HETATM   11  C14 UNL     1      25.537   0.809  53.140  1.00  0.00     0.066 A 
HETATM   12  C15 UNL     1      26.435  -0.447  53.265  1.00  0.00     0.238 A 
HETATM   13  O2  UNL     1      27.312   0.297  52.645  1.00  0.00    -0.195 OA
HETATM   14  C16 UNL     1      25.882   2.155  52.515  1.00  0.00     0.131 C 
ENDROOT
BRANCH   1  15
HETATM   15  C2  UNL     1      25.301   3.822  51.199  1.00  0.00     0.062 A 
HETATM   16  C1  UNL     1      25.519   2.903  50.078  1.00  0.00     0.046 A 
HETATM   17  C3  UNL     1      26.068   4.192  50.045  1.00  0.00     0.061 A 
BRANCH  17  18
HETATM   18  C4  UNL     1      26.820   4.807  49.180  1.00  0.00     0.024 C 
HETATM   19 CL1  UNL     1      28.301   4.995  48.353  1.00  0.00    -0.091 Cl
BRANCH  18  20
HETATM   20  C5  UNL     1      26.229   6.170  48.838  1.00  0.00     0.316 C 
BRANCH  20  21
HETATM   21  N1  UNL     1      26.931   7.164  49.611  1.00  0.00     0.083 N 
HETATM   22  C6  UNL     1      26.194   8.329  50.035  1.00  0.00     0.307 C 
HETATM   23  H6  UNL     1      27.760   7.507  49.017  1.00  0.00     0.315 HD
ENDBRANCH  20  21
ENDBRANCH  18  20
ENDBRANCH  17  18
ENDBRANCH   1  15
BRANCH  12  24
HETATM   24  O3  UNL     1      27.131  -1.543  53.408  1.00  0.00    -0.361 OA
HETATM   25  H20 UNL     1      27.098  -2.422  52.881  1.00  0.00     0.213 HD
ENDBRANCH  12  24
TORSDOF 5
ENDMDL
