MODEL 1
REMARK VINA RESULT:      -8.0      0.000      0.000
REMARK  3 active torsions:
REMARK  status: ('A' for Active; 'I' for Inactive)
REMARK    1  A    between atoms: C5_5  and  N1_6 
REMARK    2  A    between atoms: N1_6  and  O1_7 
REMARK    3  A    between atoms: N1_6  and  C6_8 
ROOT
HETATM    1  C6  UNL     1      24.095   0.099  52.679  1.00  0.00     0.163 A 
HETATM    2  C7  UNL     1      25.239  -0.866  52.646  1.00  0.00     0.016 A 
HETATM    3  C8  UNL     1      26.365  -0.280  53.088  1.00  0.00    -0.010 A 
HETATM    4  C9  UNL     1      27.695  -0.956  53.188  1.00  0.00     0.189 C 
HETATM    5  N2  UNL     1      28.409  -0.524  54.352  1.00  0.00    -0.299 NA
HETATM    6  C10 UNL     1      29.010   0.532  54.754  1.00  0.00     0.107 C 
HETATM    7  C11 UNL     1      29.157   1.807  54.003  1.00  0.00     0.219 C 
HETATM    8  N3  UNL     1      27.934   2.565  54.187  1.00  0.00    -0.187 NA
HETATM    9  N4  UNL     1      26.724   2.258  53.955  1.00  0.00    -0.155 NA
HETATM   10  C12 UNL     1      26.039   1.098  53.437  1.00  0.00     0.085 A 
HETATM   11  C13 UNL     1      24.755   1.318  53.208  1.00  0.00     0.038 A 
ENDROOT
BRANCH   1  12
HETATM   12  N1  UNL     1      22.997  -0.330  53.479  1.00  0.00    -0.249 N 
BRANCH  12  13
HETATM   13  C5  UNL     1      21.636  -0.305  53.083  1.00  0.00     0.058 A 
HETATM   14  C4  UNL     1      21.224   0.267  51.876  1.00  0.00     0.032 A 
HETATM   15  C3  UNL     1      19.925   0.309  51.457  1.00  0.00     0.009 A 
HETATM   16  C2  UNL     1      18.953  -0.233  52.243  1.00  0.00    -0.062 A 
HETATM   17  C1  UNL     1      17.539  -0.201  51.809  1.00  0.00     0.048 C 
HETATM   18  C15 UNL     1      19.275  -0.816  53.445  1.00  0.00     0.009 A 
HETATM   19  C14 UNL     1      20.591  -0.829  53.814  1.00  0.00     0.032 A 
ENDBRANCH  12  13
BRANCH  12  20
HETATM   20  O1  UNL     1      23.277  -0.798  54.713  1.00  0.00    -0.286 OA
HETATM   21  H6  UNL     1      23.433  -0.091  55.376  1.00  0.00     0.244 HD
ENDBRANCH  12  20
ENDBRANCH   1  12
TORSDOF 3
ENDMDL
MODEL 2
REMARK VINA RESULT:      -7.8      1.693      2.734
REMARK  3 active torsions:
REMARK  status: ('A' for Active; 'I' for Inactive)
REMARK    1  A    between atoms: C5_5  and  N1_6 
REMARK    2  A    between atoms: N1_6  and  O1_7 
REMARK    3  A    between atoms: N1_6  and  C6_8 
ROOT
HETATM    1  C6  UNL     1      24.793   0.321  53.680  1.00  0.00     0.163 A 
HETATM    2  C7  UNL     1      25.944   1.136  54.182  1.00  0.00     0.016 A 
HETATM    3  C8  UNL     1      27.097   0.456  54.055  1.00  0.00    -0.010 A 
HETATM    4  C9  UNL     1      28.440   0.974  54.458  1.00  0.00     0.189 C 
HETATM    5  N2  UNL     1      29.454   0.553  53.539  1.00  0.00    -0.299 NA
HETATM    6  C10 UNL     1      30.058  -0.532  53.230  1.00  0.00     0.107 C 
HETATM    7  C11 UNL     1      29.839  -1.871  53.839  1.00  0.00     0.219 C 
HETATM    8  N3  UNL     1      28.682  -2.460  53.193  1.00  0.00    -0.187 NA
HETATM    9  N4  UNL     1      27.494  -2.030  53.065  1.00  0.00    -0.155 NA
HETATM   10  C12 UNL     1      26.782  -0.840  53.467  1.00  0.00     0.085 A 
HETATM   11  C13 UNL     1      25.479  -0.923  53.252  1.00  0.00     0.038 A 
ENDROOT
BRANCH   1  12
HETATM   12  N1  UNL     1      24.058   0.940  52.629  1.00  0.00    -0.249 N 
BRANCH  12  13
HETATM   13  C5  UNL     1      22.693   0.701  52.331  1.00  0.00     0.058 A 
HETATM   14  C4  UNL     1      21.794   0.238  53.295  1.00  0.00     0.032 A 
HETATM   15  C3  UNL     1      20.472  -0.002  53.051  1.00  0.00     0.009 A 
HETATM   16  C2  UNL     1      19.974   0.216  51.801  1.00  0.00    -0.062 A 
HETATM   17  C1  UNL     1      18.545  -0.036  51.513  1.00  0.00     0.048 C 
HETATM   18  C15 UNL     1      20.793   0.672  50.796  1.00  0.00     0.009 A 
HETATM   19  C14 UNL     1      22.107   0.894  51.099  1.00  0.00     0.032 A 
ENDBRANCH  12  13
BRANCH  12  20
HETATM   20  O1  UNL     1      24.717   1.827  51.853  1.00  0.00    -0.286 OA
HETATM   21  H6  UNL     1      25.106   1.430  51.044  1.00  0.00     0.244 HD
ENDBRANCH  12  20
ENDBRANCH   1  12
TORSDOF 3
ENDMDL
MODEL 3
REMARK VINA RESULT:      -7.7      2.534      6.728
REMARK  3 active torsions:
REMARK  status: ('A' for Active; 'I' for Inactive)
REMARK    1  A    between atoms: C5_5  and  N1_6 
REMARK    2  A    between atoms: N1_6  and  O1_7 
REMARK    3  A    between atoms: N1_6  and  C6_8 
ROOT
HETATM    1  C6  UNL     1      23.412  -0.212  52.717  1.00  0.00     0.163 A 
HETATM    2  C7  UNL     1      23.950   0.879  51.845  1.00  0.00     0.016 A 
HETATM    3  C8  UNL     1      23.074   1.896  51.766  1.00  0.00    -0.010 A 
HETATM    4  C9  UNL     1      23.292   3.148  50.978  1.00  0.00     0.189 C 
HETATM    5  N2  UNL     1      22.759   4.289  51.662  1.00  0.00    -0.299 NA
HETATM    6  C10 UNL     1      21.606   4.767  51.945  1.00  0.00     0.107 C 
HETATM    7  C11 UNL     1      20.290   4.176  51.585  1.00  0.00     0.219 C 
HETATM    8  N3  UNL     1      19.986   3.154  52.568  1.00  0.00    -0.187 NA
HETATM    9  N4  UNL     1      20.644   2.132  52.932  1.00  0.00    -0.155 NA
HETATM   10  C12 UNL     1      21.912   1.543  52.573  1.00  0.00     0.085 A 
HETATM   11  C13 UNL     1      22.098   0.350  53.114  1.00  0.00     0.038 A 
ENDROOT
BRANCH   1  12
HETATM   12  N1  UNL     1      24.242  -0.527  53.831  1.00  0.00    -0.249 N 
BRANCH  12  13
HETATM   13  C5  UNL     1      25.659  -0.507  53.829  1.00  0.00     0.058 A 
HETATM   14  C4  UNL     1      26.411  -1.269  52.930  1.00  0.00     0.032 A 
HETATM   15  C3  UNL     1      27.776  -1.276  52.893  1.00  0.00     0.009 A 
HETATM   16  C2  UNL     1      28.471  -0.502  53.773  1.00  0.00    -0.062 A 
HETATM   17  C1  UNL     1      29.951  -0.493  53.751  1.00  0.00     0.048 C 
HETATM   18  C15 UNL     1      27.806   0.277  54.690  1.00  0.00     0.009 A 
HETATM   19  C14 UNL     1      26.440   0.244  54.681  1.00  0.00     0.032 A 
ENDBRANCH  12  13
BRANCH  12  20
HETATM   20  O1  UNL     1      23.627  -0.871  54.982  1.00  0.00    -0.286 OA
HETATM   21  H6  UNL     1      22.874  -1.488  54.857  1.00  0.00     0.244 HD
ENDBRANCH  12  20
ENDBRANCH   1  12
TORSDOF 3
ENDMDL
MODEL 4
REMARK VINA RESULT:      -7.7      2.729      6.655
REMARK  3 active torsions:
REMARK  status: ('A' for Active; 'I' for Inactive)
REMARK    1  A    between atoms: C5_5  and  N1_6 
REMARK    2  A    between atoms: N1_6  and  O1_7 
REMARK    3  A    between atoms: N1_6  and  C6_8 
ROOT
HETATM    1  C6  UNL     1      23.304   1.044  53.223  1.00  0.00     0.163 A 
HETATM    2  C7  UNL     1      22.046   0.718  52.481  1.00  0.00     0.016 A 
HETATM    3  C8  UNL     1      22.074   1.250  51.246  1.00  0.00    -0.010 A 
HETATM    4  C9  UNL     1      20.979   1.118  50.237  1.00  0.00     0.189 C 
HETATM    5  N2  UNL     1      21.509   0.975  48.914  1.00  0.00    -0.299 NA
HETATM    6  C10 UNL     1      22.102   1.709  48.050  1.00  0.00     0.107 C 
HETATM    7  C11 UNL     1      22.464   3.143  48.206  1.00  0.00     0.219 C 
HETATM    8  N3  UNL     1      23.708   3.201  48.948  1.00  0.00    -0.187 NA
HETATM    9  N4  UNL     1      24.021   2.725  50.083  1.00  0.00    -0.155 NA
HETATM   10  C12 UNL     1      23.341   1.955  51.097  1.00  0.00     0.085 A 
HETATM   11  C13 UNL     1      24.042   1.842  52.214  1.00  0.00     0.038 A 
ENDROOT
BRANCH   1  12
HETATM   12  N1  UNL     1      24.029  -0.099  53.666  1.00  0.00    -0.249 N 
BRANCH  12  13
HETATM   13  C5  UNL     1      25.442  -0.216  53.690  1.00  0.00     0.058 A 
HETATM   14  C4  UNL     1      26.135  -1.023  52.782  1.00  0.00     0.032 A 
HETATM   15  C3  UNL     1      27.493  -1.160  52.769  1.00  0.00     0.009 A 
HETATM   16  C2  UNL     1      28.242  -0.481  53.683  1.00  0.00    -0.062 A 
HETATM   17  C1  UNL     1      29.715  -0.613  53.687  1.00  0.00     0.048 C 
HETATM   18  C15 UNL     1      27.636   0.334  54.609  1.00  0.00     0.009 A 
HETATM   19  C14 UNL     1      26.274   0.433  54.576  1.00  0.00     0.032 A 
ENDBRANCH  12  13
BRANCH  12  20
HETATM   20  O1  UNL     1      23.311  -1.157  54.099  1.00  0.00    -0.286 OA
HETATM   21  H6  UNL     1      22.880  -1.662  53.376  1.00  0.00     0.244 HD
ENDBRANCH  12  20
ENDBRANCH   1  12
TORSDOF 3
ENDMDL
MODEL 5
REMARK VINA RESULT:      -7.6      4.625      7.385
REMARK  3 active torsions:
REMARK  status: ('A' for Active; 'I' for Inactive)
REMARK    1  A    between atoms: C5_5  and  N1_6 
REMARK    2  A    between atoms: N1_6  and  O1_7 
REMARK    3  A    between atoms: N1_6  and  C6_8 
ROOT
HETATM    1  C6  UNL     1      25.378   2.855  50.918  1.00  0.00     0.163 A 
HETATM    2  C7  UNL     1      26.549   3.127  50.026  1.00  0.00     0.016 A 
HETATM    3  C8  UNL     1      26.456   4.353  49.483  1.00  0.00    -0.010 A 
HETATM    4  C9  UNL     1      27.455   4.947  48.543  1.00  0.00     0.189 C 
HETATM    5  N2  UNL     1      27.625   6.348  48.785  1.00  0.00    -0.299 NA
HETATM    6  C10 UNL     1      26.953   7.424  48.617  1.00  0.00     0.107 C 
HETATM    7  C11 UNL     1      25.592   7.535  48.029  1.00  0.00     0.219 C 
HETATM    8  N3  UNL     1      24.637   7.232  49.078  1.00  0.00    -0.187 NA
HETATM    9  N4  UNL     1      24.521   6.213  49.825  1.00  0.00    -0.155 NA
HETATM   10  C12 UNL     1      25.229   4.964  49.979  1.00  0.00     0.085 A 
HETATM   11  C13 UNL     1      24.614   4.121  50.793  1.00  0.00     0.038 A 
ENDROOT
BRANCH   1  12
HETATM   12  N1  UNL     1      25.734   2.552  52.264  1.00  0.00    -0.249 N 
BRANCH  12  13
HETATM   13  C5  UNL     1      26.766   1.665  52.660  1.00  0.00     0.058 A 
HETATM   14  C4  UNL     1      26.661   0.282  52.490  1.00  0.00     0.032 A 
HETATM   15  C3  UNL     1      27.633  -0.606  52.854  1.00  0.00     0.009 A 
HETATM   16  C2  UNL     1      28.784  -0.142  53.418  1.00  0.00    -0.062 A 
HETATM   17  C1  UNL     1      29.851  -1.085  53.819  1.00  0.00     0.048 C 
HETATM   18  C15 UNL     1      28.965   1.206  53.619  1.00  0.00     0.009 A 
HETATM   19  C14 UNL     1      27.959   2.047  53.235  1.00  0.00     0.032 A 
ENDBRANCH  12  13
BRANCH  12  20
HETATM   20  O1  UNL     1      25.029   3.160  53.242  1.00  0.00    -0.286 OA
HETATM   21  H6  UNL     1      25.025   2.666  54.090  1.00  0.00     0.244 HD
ENDBRANCH  12  20
ENDBRANCH   1  12
TORSDOF 3
ENDMDL
MODEL 6
REMARK VINA RESULT:      -7.5      4.295      7.385
REMARK  3 active torsions:
REMARK  status: ('A' for Active; 'I' for Inactive)
REMARK    1  A    between atoms: C5_5  and  N1_6 
REMARK    2  A    between atoms: N1_6  and  O1_7 
REMARK    3  A    between atoms: N1_6  and  C6_8 
ROOT
HETATM    1  C6  UNL     1      24.453   2.453  50.739  1.00  0.00     0.163 A 
HETATM    2  C7  UNL     1      22.976   2.217  50.689  1.00  0.00     0.016 A 
HETATM    3  C8  UNL     1      22.604   1.349  51.647  1.00  0.00    -0.010 A 
HETATM    4  C9  UNL     1      21.201   0.891  51.882  1.00  0.00     0.189 C 
HETATM    5  N2  UNL     1      20.933   0.738  53.281  1.00  0.00    -0.299 NA
HETATM    6  C10 UNL     1      21.263  -0.062  54.223  1.00  0.00     0.107 C 
HETATM    7  C11 UNL     1      22.159  -1.243  54.109  1.00  0.00     0.219 C 
HETATM    8  N3  UNL     1      23.525  -0.764  54.186  1.00  0.00    -0.187 NA
HETATM    9  N4  UNL     1      24.141   0.104  53.492  1.00  0.00    -0.155 NA
HETATM   10  C12 UNL     1      23.801   0.962  52.383  1.00  0.00     0.085 A 
HETATM   11  C13 UNL     1      24.852   1.585  51.873  1.00  0.00     0.038 A 
ENDROOT
BRANCH   1  12
HETATM   12  N1  UNL     1      24.816   3.818  50.930  1.00  0.00    -0.249 N 
BRANCH  12  13
HETATM   13  C5  UNL     1      25.699   4.555  50.101  1.00  0.00     0.058 A 
HETATM   14  C4  UNL     1      25.539   5.927  49.883  1.00  0.00     0.032 A 
HETATM   15  C3  UNL     1      26.368   6.674  49.096  1.00  0.00     0.009 A 
HETATM   16  C2  UNL     1      27.422   6.072  48.476  1.00  0.00    -0.062 A 
HETATM   17  C1  UNL     1      28.334   6.861  47.619  1.00  0.00     0.048 C 
HETATM   18  C15 UNL     1      27.649   4.726  48.640  1.00  0.00     0.009 A 
HETATM   19  C14 UNL     1      26.786   4.029  49.439  1.00  0.00     0.032 A 
ENDBRANCH  12  13
BRANCH  12  20
HETATM   20  O1  UNL     1      24.273   4.460  51.986  1.00  0.00    -0.286 OA
HETATM   21  H6  UNL     1      24.146   3.886  52.772  1.00  0.00     0.244 HD
ENDBRANCH  12  20
ENDBRANCH   1  12
TORSDOF 3
ENDMDL
MODEL 7
REMARK VINA RESULT:      -7.4      3.207      7.510
REMARK  3 active torsions:
REMARK  status: ('A' for Active; 'I' for Inactive)
REMARK    1  A    between atoms: C5_5  and  N1_6 
REMARK    2  A    between atoms: N1_6  and  O1_7 
REMARK    3  A    between atoms: N1_6  and  C6_8 
ROOT
HETATM    1  C6  UNL     1      23.799   1.537  52.061  1.00  0.00     0.163 A 
HETATM    2  C7  UNL     1      23.577   2.178  50.727  1.00  0.00     0.016 A 
HETATM    3  C8  UNL     1      22.371   2.773  50.683  1.00  0.00    -0.010 A 
HETATM    4  C9  UNL     1      21.827   3.507  49.501  1.00  0.00     0.189 C 
HETATM    5  N2  UNL     1      21.074   4.657  49.906  1.00  0.00    -0.299 NA
HETATM    6  C10 UNL     1      19.951   4.900  50.469  1.00  0.00     0.107 C 
HETATM    7  C11 UNL     1      18.956   3.895  50.930  1.00  0.00     0.219 C 
HETATM    8  N3  UNL     1      19.383   3.425  52.234  1.00  0.00    -0.187 NA
HETATM    9  N4  UNL     1      20.479   2.906  52.612  1.00  0.00    -0.155 NA
HETATM   10  C12 UNL     1      21.728   2.563  51.974  1.00  0.00     0.085 A 
HETATM   11  C13 UNL     1      22.531   1.864  52.759  1.00  0.00     0.038 A 
ENDROOT
BRANCH   1  12
HETATM   12  N1  UNL     1      24.951   2.015  52.749  1.00  0.00    -0.249 N 
BRANCH  12  13
HETATM   13  C5  UNL     1      26.154   1.288  52.937  1.00  0.00     0.058 A 
HETATM   14  C4  UNL     1      27.305   1.882  53.464  1.00  0.00     0.032 A 
HETATM   15  C3  UNL     1      28.481   1.218  53.664  1.00  0.00     0.009 A 
HETATM   16  C2  UNL     1      28.565  -0.103  53.340  1.00  0.00    -0.062 A 
HETATM   17  C1  UNL     1      29.829  -0.844  53.548  1.00  0.00     0.048 C 
HETATM   18  C15 UNL     1      27.477  -0.761  52.816  1.00  0.00     0.009 A 
HETATM   19  C14 UNL     1      26.327  -0.046  52.638  1.00  0.00     0.032 A 
ENDBRANCH  12  13
BRANCH  12  20
HETATM   20  O1  UNL     1      24.892   3.262  53.263  1.00  0.00    -0.286 OA
HETATM   21  H6  UNL     1      25.565   3.433  53.957  1.00  0.00     0.244 HD
ENDBRANCH  12  20
ENDBRANCH   1  12
TORSDOF 3
ENDMDL
MODEL 8
REMARK VINA RESULT:      -7.4      1.621      2.033
REMARK  3 active torsions:
REMARK  status: ('A' for Active; 'I' for Inactive)
REMARK    1  A    between atoms: C5_5  and  N1_6 
REMARK    2  A    between atoms: N1_6  and  O1_7 
REMARK    3  A    between atoms: N1_6  and  C6_8 
ROOT
HETATM    1  C6  UNL     1      24.180   1.852  51.768  1.00  0.00     0.163 A 
HETATM    2  C7  UNL     1      24.576   0.445  52.091  1.00  0.00     0.016 A 
HETATM    3  C8  UNL     1      25.725   0.425  52.788  1.00  0.00    -0.010 A 
HETATM    4  C9  UNL     1      26.405  -0.815  53.273  1.00  0.00     0.189 C 
HETATM    5  N2  UNL     1      26.994  -0.613  54.563  1.00  0.00    -0.299 NA
HETATM    6  C10 UNL     1      27.986   0.025  55.058  1.00  0.00     0.107 C 
HETATM    7  C11 UNL     1      28.960   0.866  54.312  1.00  0.00     0.219 C 
HETATM    8  N3  UNL     1      28.356   2.171  54.125  1.00  0.00    -0.187 NA
HETATM    9  N4  UNL     1      27.253   2.507  53.593  1.00  0.00    -0.155 NA
HETATM   10  C12 UNL     1      26.157   1.805  52.969  1.00  0.00     0.085 A 
HETATM   11  C13 UNL     1      25.286   2.618  52.394  1.00  0.00     0.038 A 
ENDROOT
BRANCH   1  12
HETATM   12  N1  UNL     1      22.897   2.222  52.266  1.00  0.00    -0.249 N 
BRANCH  12  13
HETATM   13  C5  UNL     1      21.833   1.326  52.536  1.00  0.00     0.058 A 
HETATM   14  C4  UNL     1      21.750   0.613  53.735  1.00  0.00     0.032 A 
HETATM   15  C3  UNL     1      20.741  -0.257  54.036  1.00  0.00     0.009 A 
HETATM   16  C2  UNL     1      19.743  -0.460  53.130  1.00  0.00    -0.062 A 
HETATM   17  C1  UNL     1      18.639  -1.397  53.434  1.00  0.00     0.048 C 
HETATM   18  C15 UNL     1      19.751   0.204  51.926  1.00  0.00     0.009 A 
HETATM   19  C14 UNL     1      20.786   1.061  51.680  1.00  0.00     0.032 A 
ENDBRANCH  12  13
BRANCH  12  20
HETATM   20  O1  UNL     1      22.679   3.534  52.499  1.00  0.00    -0.286 OA
HETATM   21  H6  UNL     1      21.793   3.724  52.876  1.00  0.00     0.244 HD
ENDBRANCH  12  20
ENDBRANCH   1  12
TORSDOF 3
ENDMDL
MODEL 9
REMARK VINA RESULT:      -7.3      5.481      6.741
REMARK  3 active torsions:
REMARK  status: ('A' for Active; 'I' for Inactive)
REMARK    1  A    between atoms: C5_5  and  N1_6 
REMARK    2  A    between atoms: N1_6  and  O1_7 
REMARK    3  A    between atoms: N1_6  and  C6_8 
ROOT
HETATM    1  C6  UNL     1      25.640   3.932  49.806  1.00  0.00     0.163 A 
HETATM    2  C7  UNL     1      26.768   4.419  48.951  1.00  0.00     0.016 A 
HETATM    3  C8  UNL     1      26.801   5.763  48.933  1.00  0.00    -0.010 A 
HETATM    4  C9  UNL     1      27.800   6.580  48.179  1.00  0.00     0.189 C 
HETATM    5  N2  UNL     1      28.175   7.750  48.915  1.00  0.00    -0.299 NA
HETATM    6  C10 UNL     1      27.643   8.864  49.253  1.00  0.00     0.107 C 
HETATM    7  C11 UNL     1      26.269   9.327  48.920  1.00  0.00     0.219 C 
HETATM    8  N3  UNL     1      25.363   8.729  49.880  1.00  0.00    -0.187 NA
HETATM    9  N4  UNL     1      25.165   7.513  50.190  1.00  0.00    -0.155 NA
HETATM   10  C12 UNL     1      25.708   6.244  49.769  1.00  0.00     0.085 A 
HETATM   11  C13 UNL     1      25.047   5.211  50.266  1.00  0.00     0.038 A 
ENDROOT
BRANCH   1  12
HETATM   12  N1  UNL     1      26.050   3.091  50.881  1.00  0.00    -0.249 N 
BRANCH  12  13
HETATM   13  C5  UNL     1      25.222   2.155  51.551  1.00  0.00     0.058 A 
HETATM   14  C4  UNL     1      25.716   1.305  52.545  1.00  0.00     0.032 A 
HETATM   15  C3  UNL     1      24.953   0.393  53.216  1.00  0.00     0.009 A 
HETATM   16  C2  UNL     1      23.627   0.285  52.919  1.00  0.00    -0.062 A 
HETATM   17  C1  UNL     1      22.781  -0.696  53.633  1.00  0.00     0.048 C 
HETATM   18  C15 UNL     1      23.064   1.085  51.954  1.00  0.00     0.009 A 
HETATM   19  C14 UNL     1      23.876   1.979  51.315  1.00  0.00     0.032 A 
ENDBRANCH  12  13
BRANCH  12  20
HETATM   20  O1  UNL     1      27.330   3.195  51.294  1.00  0.00    -0.286 OA
HETATM   21  H6  UNL     1      27.806   2.337  51.322  1.00  0.00     0.244 HD
ENDBRANCH  12  20
ENDBRANCH   1  12
TORSDOF 3
ENDMDL
