MODEL 1
REMARK VINA RESULT:      -8.0      0.000      0.000
REMARK  9 active torsions:
REMARK  status: ('A' for Active; 'I' for Inactive)
REMARK    1  A    between atoms: C5_6  and  O2_7 
REMARK    2  A    between atoms: O2_7  and  C6_8 
REMARK    3  A    between atoms: C6_8  and  O3_9 
REMARK    4  A    between atoms: C6_8  and  O4_10 
REMARK    5  A    between atoms: O4_10  and  C7_11 
REMARK    6  A    between atoms: C7_11  and  O5_12 
REMARK    7  A    between atoms: O5_12  and  C8_13 
REMARK    8  A    between atoms: C8_13  and  C9_14 
REMARK    9  A    between atoms: C9_14  and  N1_15 
ROOT
HETATM    1  O1  UNL     1      22.644  -1.992  55.703  1.00  0.00    -0.294 OA
HETATM    2  C1  UNL     1      22.546  -1.264  54.662  1.00  0.00     0.170 A 
HETATM    3  C2  UNL     1      23.701  -0.544  54.068  1.00  0.00     0.110 A 
HETATM    4  C3  UNL     1      23.425   0.244  52.883  1.00  0.00    -0.005 A 
HETATM    5  C4  UNL     1      22.375   0.467  52.218  1.00  0.00     0.001 A 
HETATM    6  C5  UNL     1      21.756   1.133  51.086  1.00  0.00     0.084 A 
HETATM    7  C15 UNL     1      20.607   1.301  50.473  1.00  0.00     0.037 A 
HETATM    8  C16 UNL     1      19.155   0.890  50.557  1.00  0.00    -0.001 A 
HETATM    9  C17 UNL     1      18.343   0.120  51.332  1.00  0.00    -0.024 A 
HETATM   10  C18 UNL     1      17.958  -0.811  52.460  1.00  0.00     0.069 A 
HETATM   11  C19 UNL     1      19.073  -1.199  53.375  1.00  0.00     0.109 A 
HETATM   12  C20 UNL     1      20.021  -0.536  52.789  1.00  0.00     0.104 A 
HETATM   13  C21 UNL     1      21.337  -0.290  52.900  1.00  0.00    -0.014 A 
HETATM   14  C22 UNL     1      21.192  -1.115  53.987  1.00  0.00     0.158 A 
HETATM   15  O6  UNL     1      20.000  -1.583  54.222  1.00  0.00    -0.352 OA
ENDROOT
BRANCH   6  16
HETATM   16  O2  UNL     1      22.876   1.748  50.584  1.00  0.00    -0.296 OA
BRANCH  16  17
HETATM   17  C6  UNL     1      22.811   2.987  49.931  1.00  0.00     0.418 C 
BRANCH  17  18
HETATM   18  O3  UNL     1      23.724   2.918  48.818  1.00  0.00    -0.349 OA
HETATM   19  H5  UNL     1      23.278   2.480  48.042  1.00  0.00     0.215 HD
ENDBRANCH  17  18
BRANCH  17  20
HETATM   20  O4  UNL     1      23.373   4.013  50.714  1.00  0.00    -0.314 OA
BRANCH  20  21
HETATM   21  C7  UNL     1      24.420   3.596  51.489  1.00  0.00     0.343 C 
BRANCH  21  22
HETATM   22  O5  UNL     1      25.618   3.460  50.841  1.00  0.00    -0.365 OA
BRANCH  22  23
HETATM   23  C8  UNL     1      26.440   2.469  51.369  1.00  0.00     0.200 C 
BRANCH  23  24
HETATM   24  C9  UNL     1      26.242   2.203  52.820  1.00  0.00     0.298 C 
BRANCH  24  25
HETATM   25  N1  UNL     1      27.158   1.173  53.283  1.00  0.00     0.090 N 
HETATM   26  C10 UNL     1      28.519   1.699  53.341  1.00  0.00     0.272 C 
HETATM   27  C11 UNL     1      29.323   0.731  54.197  1.00  0.00     0.030 C 
HETATM   28  C12 UNL     1      29.342  -0.603  53.504  1.00  0.00     0.003 C 
HETATM   29  C13 UNL     1      27.974  -1.099  53.116  1.00  0.00     0.030 C 
HETATM   30  C14 UNL     1      27.095  -0.036  52.522  1.00  0.00     0.272 C 
ENDBRANCH  24  25
ENDBRANCH  23  24
ENDBRANCH  22  23
ENDBRANCH  21  22
ENDBRANCH  20  21
ENDBRANCH  17  20
ENDBRANCH  16  17
ENDBRANCH   6  16
TORSDOF 9
ENDMDL
MODEL 2
REMARK VINA RESULT:      -7.9      2.798      5.464
REMARK  9 active torsions:
REMARK  status: ('A' for Active; 'I' for Inactive)
REMARK    1  A    between atoms: C5_6  and  O2_7 
REMARK    2  A    between atoms: O2_7  and  C6_8 
REMARK    3  A    between atoms: C6_8  and  O3_9 
REMARK    4  A    between atoms: C6_8  and  O4_10 
REMARK    5  A    between atoms: O4_10  and  C7_11 
REMARK    6  A    between atoms: C7_11  and  O5_12 
REMARK    7  A    between atoms: O5_12  and  C8_13 
REMARK    8  A    between atoms: C8_13  and  C9_14 
REMARK    9  A    between atoms: C9_14  and  N1_15 
ROOT
HETATM    1  O1  UNL     1      22.664  -2.007  55.710  1.00  0.00    -0.294 OA
HETATM    2  C1  UNL     1      22.765  -1.123  54.799  1.00  0.00     0.170 A 
HETATM    3  C2  UNL     1      21.589  -0.452  54.189  1.00  0.00     0.110 A 
HETATM    4  C3  UNL     1      21.872   0.533  53.163  1.00  0.00    -0.005 A 
HETATM    5  C4  UNL     1      22.942   0.961  52.647  1.00  0.00     0.001 A 
HETATM    6  C5  UNL     1      23.574   1.851  51.690  1.00  0.00     0.084 A 
HETATM    7  C15 UNL     1      24.744   2.220  51.221  1.00  0.00     0.037 A 
HETATM    8  C16 UNL     1      26.221   1.947  51.388  1.00  0.00    -0.001 A 
HETATM    9  C17 UNL     1      27.048   1.168  52.138  1.00  0.00    -0.024 A 
HETATM   10  C18 UNL     1      27.443   0.144  53.180  1.00  0.00     0.069 A 
HETATM   11  C19 UNL     1      26.306  -0.491  53.911  1.00  0.00     0.109 A 
HETATM   12  C20 UNL     1      25.341   0.145  53.323  1.00  0.00     0.104 A 
HETATM   13  C21 UNL     1      24.000   0.231  53.328  1.00  0.00    -0.014 A 
HETATM   14  C22 UNL     1      24.146  -0.727  54.302  1.00  0.00     0.158 A 
HETATM   15  O6  UNL     1      25.361  -1.092  54.595  1.00  0.00    -0.352 OA
ENDROOT
BRANCH   6  16
HETATM   16  O2  UNL     1      22.440   2.443  51.193  1.00  0.00    -0.296 OA
BRANCH  16  17
HETATM   17  C6  UNL     1      22.197   3.816  51.334  1.00  0.00     0.418 C 
BRANCH  17  18
HETATM   18  O3  UNL     1      21.023   3.948  52.158  1.00  0.00    -0.349 OA
HETATM   19  H5  UNL     1      20.469   3.122  52.092  1.00  0.00     0.215 HD
ENDBRANCH  17  18
BRANCH  17  20
HETATM   20  O4  UNL     1      21.776   4.392  50.121  1.00  0.00    -0.314 OA
BRANCH  20  21
HETATM   21  C7  UNL     1      21.286   5.662  50.261  1.00  0.00     0.343 C 
BRANCH  21  22
HETATM   22  O5  UNL     1      22.009   6.487  51.079  1.00  0.00    -0.365 OA
BRANCH  22  23
HETATM   23  C8  UNL     1      23.004   7.207  50.424  1.00  0.00     0.200 C 
BRANCH  23  24
HETATM   24  C9  UNL     1      24.265   7.371  51.197  1.00  0.00     0.298 C 
BRANCH  24  25
HETATM   25  N1  UNL     1      25.399   6.867  50.440  1.00  0.00     0.090 N 
HETATM   26  C10 UNL     1      25.756   7.807  49.381  1.00  0.00     0.272 C 
HETATM   27  C11 UNL     1      27.154   7.429  48.916  1.00  0.00     0.030 C 
HETATM   28  C12 UNL     1      27.099   6.040  48.341  1.00  0.00     0.003 C 
HETATM   29  C13 UNL     1      26.451   5.036  49.257  1.00  0.00     0.030 C 
HETATM   30  C14 UNL     1      25.207   5.547  49.926  1.00  0.00     0.272 C 
ENDBRANCH  24  25
ENDBRANCH  23  24
ENDBRANCH  22  23
ENDBRANCH  21  22
ENDBRANCH  20  21
ENDBRANCH  17  20
ENDBRANCH  16  17
ENDBRANCH   6  16
TORSDOF 9
ENDMDL
MODEL 3
REMARK VINA RESULT:      -7.8      2.608      4.679
REMARK  9 active torsions:
REMARK  status: ('A' for Active; 'I' for Inactive)
REMARK    1  A    between atoms: C5_6  and  O2_7 
REMARK    2  A    between atoms: O2_7  and  C6_8 
REMARK    3  A    between atoms: C6_8  and  O3_9 
REMARK    4  A    between atoms: C6_8  and  O4_10 
REMARK    5  A    between atoms: O4_10  and  C7_11 
REMARK    6  A    between atoms: C7_11  and  O5_12 
REMARK    7  A    between atoms: O5_12  and  C8_13 
REMARK    8  A    between atoms: C8_13  and  C9_14 
REMARK    9  A    between atoms: C9_14  and  N1_15 
ROOT
HETATM    1  O1  UNL     1      28.032   0.083  54.363  1.00  0.00    -0.294 OA
HETATM    2  C1  UNL     1      26.983   0.369  53.699  1.00  0.00     0.170 A 
HETATM    3  C2  UNL     1      26.999   1.249  52.503  1.00  0.00     0.110 A 
HETATM    4  C3  UNL     1      25.720   1.478  51.858  1.00  0.00    -0.005 A 
HETATM    5  C4  UNL     1      24.546   1.084  52.102  1.00  0.00     0.001 A 
HETATM    6  C5  UNL     1      23.143   1.096  51.727  1.00  0.00     0.084 A 
HETATM    7  C15 UNL     1      21.965   0.631  52.075  1.00  0.00     0.037 A 
HETATM    8  C16 UNL     1      21.301  -0.242  53.114  1.00  0.00    -0.001 A 
HETATM    9  C17 UNL     1      21.636  -0.984  54.205  1.00  0.00    -0.024 A 
HETATM   10  C18 UNL     1      22.533  -1.601  55.256  1.00  0.00     0.069 A 
HETATM   11  C19 UNL     1      23.981  -1.251  55.143  1.00  0.00     0.109 A 
HETATM   12  C20 UNL     1      23.898  -0.496  54.092  1.00  0.00     0.104 A 
HETATM   13  C21 UNL     1      24.675   0.242  53.281  1.00  0.00    -0.014 A 
HETATM   14  C22 UNL     1      25.647  -0.207  54.141  1.00  0.00     0.158 A 
HETATM   15  O6  UNL     1      25.266  -0.988  55.111  1.00  0.00    -0.352 OA
ENDROOT
BRANCH   6  16
HETATM   16  O2  UNL     1      23.243   1.898  50.618  1.00  0.00    -0.296 OA
BRANCH  16  17
HETATM   17  C6  UNL     1      22.121   2.253  49.856  1.00  0.00     0.418 C 
BRANCH  17  18
HETATM   18  O3  UNL     1      22.337   1.733  48.531  1.00  0.00    -0.349 OA
HETATM   19  H5  UNL     1      23.114   1.109  48.535  1.00  0.00     0.215 HD
ENDBRANCH  17  18
BRANCH  17  20
HETATM   20  O4  UNL     1      22.072   3.641  49.627  1.00  0.00    -0.314 OA
BRANCH  20  21
HETATM   21  C7  UNL     1      21.712   4.364  50.732  1.00  0.00     0.343 C 
BRANCH  21  22
HETATM   22  O5  UNL     1      22.140   5.663  50.755  1.00  0.00    -0.365 OA
BRANCH  22  23
HETATM   23  C8  UNL     1      23.476   5.815  51.113  1.00  0.00     0.200 C 
BRANCH  23  24
HETATM   24  C9  UNL     1      24.259   6.721  50.229  1.00  0.00     0.298 C 
BRANCH  24  25
HETATM   25  N1  UNL     1      25.541   6.125  49.890  1.00  0.00     0.090 N 
HETATM   26  C10 UNL     1      26.049   6.695  48.645  1.00  0.00     0.272 C 
HETATM   27  C11 UNL     1      27.527   6.344  48.577  1.00  0.00     0.030 C 
HETATM   28  C12 UNL     1      27.652   4.846  48.517  1.00  0.00     0.003 C 
HETATM   29  C13 UNL     1      26.889   4.136  49.605  1.00  0.00     0.030 C 
HETATM   30  C14 UNL     1      25.516   4.696  49.841  1.00  0.00     0.272 C 
ENDBRANCH  24  25
ENDBRANCH  23  24
ENDBRANCH  22  23
ENDBRANCH  21  22
ENDBRANCH  20  21
ENDBRANCH  17  20
ENDBRANCH  16  17
ENDBRANCH   6  16
TORSDOF 9
ENDMDL
MODEL 4
REMARK VINA RESULT:      -7.8      2.863      5.864
REMARK  9 active torsions:
REMARK  status: ('A' for Active; 'I' for Inactive)
REMARK    1  A    between atoms: C5_6  and  O2_7 
REMARK    2  A    between atoms: O2_7  and  C6_8 
REMARK    3  A    between atoms: C6_8  and  O3_9 
REMARK    4  A    between atoms: C6_8  and  O4_10 
REMARK    5  A    between atoms: O4_10  and  C7_11 
REMARK    6  A    between atoms: C7_11  and  O5_12 
REMARK    7  A    between atoms: O5_12  and  C8_13 
REMARK    8  A    between atoms: C8_13  and  C9_14 
REMARK    9  A    between atoms: C9_14  and  N1_15 
ROOT
HETATM    1  O1  UNL     1      28.623  -0.448  55.016  1.00  0.00    -0.294 OA
HETATM    2  C1  UNL     1      27.961   0.312  54.237  1.00  0.00     0.170 A 
HETATM    3  C2  UNL     1      28.560   1.483  53.549  1.00  0.00     0.110 A 
HETATM    4  C3  UNL     1      27.673   2.249  52.695  1.00  0.00    -0.005 A 
HETATM    5  C4  UNL     1      26.451   2.139  52.398  1.00  0.00     0.001 A 
HETATM    6  C5  UNL     1      25.316   2.657  51.656  1.00  0.00     0.084 A 
HETATM    7  C15 UNL     1      24.040   2.451  51.420  1.00  0.00     0.037 A 
HETATM    8  C16 UNL     1      22.910   1.515  51.780  1.00  0.00    -0.001 A 
HETATM    9  C17 UNL     1      22.691   0.404  52.537  1.00  0.00    -0.024 A 
HETATM   10  C18 UNL     1      23.018  -0.736  53.476  1.00  0.00     0.069 A 
HETATM   11  C19 UNL     1      24.434  -0.783  53.951  1.00  0.00     0.109 A 
HETATM   12  C20 UNL     1      24.870   0.256  53.311  1.00  0.00     0.104 A 
HETATM   13  C21 UNL     1      25.996   0.967  53.129  1.00  0.00    -0.014 A 
HETATM   14  C22 UNL     1      26.489   0.020  53.992  1.00  0.00     0.158 A 
HETATM   15  O6  UNL     1      25.658  -0.890  54.413  1.00  0.00    -0.352 OA
ENDROOT
BRANCH   6  16
HETATM   16  O2  UNL     1      25.947   3.707  51.038  1.00  0.00    -0.296 OA
BRANCH  16  17
HETATM   17  C6  UNL     1      26.275   3.677  49.675  1.00  0.00     0.418 C 
BRANCH  17  18
HETATM   18  O3  UNL     1      27.601   4.227  49.555  1.00  0.00    -0.349 OA
HETATM   19  H5  UNL     1      28.030   3.894  48.719  1.00  0.00     0.215 HD
ENDBRANCH  17  18
BRANCH  17  20
HETATM   20  O4  UNL     1      25.503   4.596  48.939  1.00  0.00    -0.314 OA
BRANCH  20  21
HETATM   21  C7  UNL     1      26.101   5.818  48.794  1.00  0.00     0.343 C 
BRANCH  21  22
HETATM   22  O5  UNL     1      25.976   6.667  49.859  1.00  0.00    -0.365 OA
BRANCH  22  23
HETATM   23  C8  UNL     1      24.715   7.243  49.981  1.00  0.00     0.200 C 
BRANCH  23  24
HETATM   24  C9  UNL     1      23.908   6.737  51.124  1.00  0.00     0.298 C 
BRANCH  24  25
HETATM   25  N1  UNL     1      22.902   5.793  50.664  1.00  0.00     0.090 N 
HETATM   26  C10 UNL     1      22.389   6.200  49.359  1.00  0.00     0.272 C 
HETATM   27  C11 UNL     1      21.675   4.990  48.775  1.00  0.00     0.030 C 
HETATM   28  C12 UNL     1      20.518   4.649  49.673  1.00  0.00     0.003 C 
HETATM   29  C13 UNL     1      20.903   4.510  51.123  1.00  0.00     0.030 C 
HETATM   30  C14 UNL     1      21.844   5.578  51.600  1.00  0.00     0.272 C 
ENDBRANCH  24  25
ENDBRANCH  23  24
ENDBRANCH  22  23
ENDBRANCH  21  22
ENDBRANCH  20  21
ENDBRANCH  17  20
ENDBRANCH  16  17
ENDBRANCH   6  16
TORSDOF 9
ENDMDL
MODEL 5
REMARK VINA RESULT:      -7.8      2.522      6.004
REMARK  9 active torsions:
REMARK  status: ('A' for Active; 'I' for Inactive)
REMARK    1  A    between atoms: C5_6  and  O2_7 
REMARK    2  A    between atoms: O2_7  and  C6_8 
REMARK    3  A    between atoms: C6_8  and  O3_9 
REMARK    4  A    between atoms: C6_8  and  O4_10 
REMARK    5  A    between atoms: O4_10  and  C7_11 
REMARK    6  A    between atoms: C7_11  and  O5_12 
REMARK    7  A    between atoms: O5_12  and  C8_13 
REMARK    8  A    between atoms: C8_13  and  C9_14 
REMARK    9  A    between atoms: C9_14  and  N1_15 
ROOT
HETATM    1  O1  UNL     1      21.822  -1.520  54.975  1.00  0.00    -0.294 OA
HETATM    2  C1  UNL     1      22.190  -0.543  54.246  1.00  0.00     0.170 A 
HETATM    3  C2  UNL     1      21.269   0.544  53.825  1.00  0.00     0.110 A 
HETATM    4  C3  UNL     1      21.843   1.585  52.994  1.00  0.00    -0.005 A 
HETATM    5  C4  UNL     1      22.999   1.778  52.525  1.00  0.00     0.001 A 
HETATM    6  C5  UNL     1      23.878   2.617  51.729  1.00  0.00     0.084 A 
HETATM    7  C15 UNL     1      25.112   2.716  51.290  1.00  0.00     0.037 A 
HETATM    8  C16 UNL     1      26.442   2.001  51.339  1.00  0.00    -0.001 A 
HETATM    9  C17 UNL     1      26.995   0.887  51.892  1.00  0.00    -0.024 A 
HETATM   10  C18 UNL     1      27.058  -0.389  52.702  1.00  0.00     0.069 A 
HETATM   11  C19 UNL     1      25.774  -0.799  53.347  1.00  0.00     0.109 A 
HETATM   12  C20 UNL     1      25.046   0.190  52.932  1.00  0.00     0.104 A 
HETATM   13  C21 UNL     1      23.788   0.656  53.009  1.00  0.00    -0.014 A 
HETATM   14  C22 UNL     1      23.634  -0.473  53.775  1.00  0.00     0.158 A 
HETATM   15  O6  UNL     1      24.685  -1.224  53.943  1.00  0.00    -0.352 OA
ENDROOT
BRANCH   6  16
HETATM   16  O2  UNL     1      22.972   3.595  51.402  1.00  0.00    -0.296 OA
BRANCH  16  17
HETATM   17  C6  UNL     1      23.227   4.952  51.645  1.00  0.00     0.418 C 
BRANCH  17  18
HETATM   18  O3  UNL     1      22.289   5.378  52.651  1.00  0.00    -0.349 OA
HETATM   19  H5  UNL     1      21.565   5.919  52.230  1.00  0.00     0.215 HD
ENDBRANCH  17  18
BRANCH  17  20
HETATM   20  O4  UNL     1      22.865   5.749  50.542  1.00  0.00    -0.314 OA
BRANCH  20  21
HETATM   21  C7  UNL     1      21.744   6.503  50.760  1.00  0.00     0.343 C 
BRANCH  21  22
HETATM   22  O5  UNL     1      20.573   5.965  50.300  1.00  0.00    -0.365 OA
BRANCH  22  23
HETATM   23  C8  UNL     1      20.612   5.574  48.965  1.00  0.00     0.200 C 
BRANCH  23  24
HETATM   24  C9  UNL     1      19.580   4.574  48.579  1.00  0.00     0.298 C 
BRANCH  24  25
HETATM   25  N1  UNL     1      20.134   3.230  48.604  1.00  0.00     0.090 N 
HETATM   26  C10 UNL     1      19.850   2.591  49.886  1.00  0.00     0.272 C 
HETATM   27  C11 UNL     1      20.085   1.101  49.692  1.00  0.00     0.030 C 
HETATM   28  C12 UNL     1      21.535   0.895  49.353  1.00  0.00     0.003 C 
HETATM   29  C13 UNL     1      22.015   1.757  48.215  1.00  0.00     0.030 C 
HETATM   30  C14 UNL     1      21.527   3.176  48.289  1.00  0.00     0.272 C 
ENDBRANCH  24  25
ENDBRANCH  23  24
ENDBRANCH  22  23
ENDBRANCH  21  22
ENDBRANCH  20  21
ENDBRANCH  17  20
ENDBRANCH  16  17
ENDBRANCH   6  16
TORSDOF 9
ENDMDL
MODEL 6
REMARK VINA RESULT:      -7.5      2.707      7.137
REMARK  9 active torsions:
REMARK  status: ('A' for Active; 'I' for Inactive)
REMARK    1  A    between atoms: C5_6  and  O2_7 
REMARK    2  A    between atoms: O2_7  and  C6_8 
REMARK    3  A    between atoms: C6_8  and  O3_9 
REMARK    4  A    between atoms: C6_8  and  O4_10 
REMARK    5  A    between atoms: O4_10  and  C7_11 
REMARK    6  A    between atoms: C7_11  and  O5_12 
REMARK    7  A    between atoms: O5_12  and  C8_13 
REMARK    8  A    between atoms: C8_13  and  C9_14 
REMARK    9  A    between atoms: C9_14  and  N1_15 
ROOT
HETATM    1  O1  UNL     1      27.130   3.980  49.700  1.00  0.00    -0.294 OA
HETATM    2  C1  UNL     1      26.194   3.291  50.222  1.00  0.00     0.170 A 
HETATM    3  C2  UNL     1      24.785   3.359  49.758  1.00  0.00     0.110 A 
HETATM    4  C3  UNL     1      23.838   2.513  50.458  1.00  0.00    -0.005 A 
HETATM    5  C4  UNL     1      23.949   1.700  51.418  1.00  0.00     0.001 A 
HETATM    6  C5  UNL     1      23.299   0.759  52.312  1.00  0.00     0.084 A 
HETATM    7  C15 UNL     1      23.528  -0.057  53.316  1.00  0.00     0.037 A 
HETATM    8  C16 UNL     1      24.647  -0.551  54.202  1.00  0.00    -0.001 A 
HETATM    9  C17 UNL     1      25.987  -0.377  54.366  1.00  0.00    -0.024 A 
HETATM   10  C18 UNL     1      27.369   0.176  54.098  1.00  0.00     0.069 A 
HETATM   11  C19 UNL     1      27.453   1.170  52.985  1.00  0.00     0.109 A 
HETATM   12  C20 UNL     1      26.201   1.163  52.649  1.00  0.00     0.104 A 
HETATM   13  C21 UNL     1      25.360   1.731  51.768  1.00  0.00    -0.014 A 
HETATM   14  C22 UNL     1      26.519   2.355  51.375  1.00  0.00     0.158 A 
HETATM   15  O6  UNL     1      27.606   2.049  52.023  1.00  0.00    -0.352 OA
ENDROOT
BRANCH   6  16
HETATM   16  O2  UNL     1      22.025   0.860  51.811  1.00  0.00    -0.296 OA
BRANCH  16  17
HETATM   17  C6  UNL     1      20.902   0.489  52.562  1.00  0.00     0.418 C 
BRANCH  17  18
HETATM   18  O3  UNL     1      19.854   0.186  51.622  1.00  0.00    -0.349 OA
HETATM   19  H5  UNL     1      18.991   0.063  52.105  1.00  0.00     0.215 HD
ENDBRANCH  17  18
BRANCH  17  20
HETATM   20  O4  UNL     1      20.365   1.586  53.263  1.00  0.00    -0.314 OA
BRANCH  20  21
HETATM   21  C7  UNL     1      20.419   2.760  52.562  1.00  0.00     0.343 C 
BRANCH  21  22
HETATM   22  O5  UNL     1      19.210   3.294  52.209  1.00  0.00    -0.365 OA
BRANCH  22  23
HETATM   23  C8  UNL     1      19.206   3.918  50.965  1.00  0.00     0.200 C 
BRANCH  23  24
HETATM   24  C9  UNL     1      19.434   3.007  49.810  1.00  0.00     0.298 C 
BRANCH  24  25
HETATM   25  N1  UNL     1      20.589   3.436  49.039  1.00  0.00     0.090 N 
HETATM   26  C10 UNL     1      20.509   4.867  48.764  1.00  0.00     0.272 C 
HETATM   27  C11 UNL     1      21.899   5.307  48.331  1.00  0.00     0.030 C 
HETATM   28  C12 UNL     1      22.246   4.582  47.060  1.00  0.00     0.003 C 
HETATM   29  C13 UNL     1      22.061   3.090  47.148  1.00  0.00     0.030 C 
HETATM   30  C14 UNL     1      20.791   2.683  47.840  1.00  0.00     0.272 C 
ENDBRANCH  24  25
ENDBRANCH  23  24
ENDBRANCH  22  23
ENDBRANCH  21  22
ENDBRANCH  20  21
ENDBRANCH  17  20
ENDBRANCH  16  17
ENDBRANCH   6  16
TORSDOF 9
ENDMDL
MODEL 7
REMARK VINA RESULT:      -7.4      2.410      6.952
REMARK  9 active torsions:
REMARK  status: ('A' for Active; 'I' for Inactive)
REMARK    1  A    between atoms: C5_6  and  O2_7 
REMARK    2  A    between atoms: O2_7  and  C6_8 
REMARK    3  A    between atoms: C6_8  and  O3_9 
REMARK    4  A    between atoms: C6_8  and  O4_10 
REMARK    5  A    between atoms: O4_10  and  C7_11 
REMARK    6  A    between atoms: C7_11  and  O5_12 
REMARK    7  A    between atoms: O5_12  and  C8_13 
REMARK    8  A    between atoms: C8_13  and  C9_14 
REMARK    9  A    between atoms: C9_14  and  N1_15 
ROOT
HETATM    1  O1  UNL     1      22.664  -2.007  55.702  1.00  0.00    -0.294 OA
HETATM    2  C1  UNL     1      22.812  -1.115  54.805  1.00  0.00     0.170 A 
HETATM    3  C2  UNL     1      21.670  -0.395  54.186  1.00  0.00     0.110 A 
HETATM    4  C3  UNL     1      22.005   0.593  53.179  1.00  0.00    -0.005 A 
HETATM    5  C4  UNL     1      23.097   0.990  52.686  1.00  0.00     0.001 A 
HETATM    6  C5  UNL     1      23.776   1.870  51.752  1.00  0.00     0.084 A 
HETATM    7  C15 UNL     1      24.967   2.203  51.308  1.00  0.00     0.037 A 
HETATM    8  C16 UNL     1      26.430   1.876  51.494  1.00  0.00    -0.001 A 
HETATM    9  C17 UNL     1      27.216   1.058  52.246  1.00  0.00    -0.024 A 
HETATM   10  C18 UNL     1      27.557   0.007  53.280  1.00  0.00     0.069 A 
HETATM   11  C19 UNL     1      26.386  -0.597  53.984  1.00  0.00     0.109 A 
HETATM   12  C20 UNL     1      25.454   0.081  53.390  1.00  0.00     0.104 A 
HETATM   13  C21 UNL     1      24.117   0.213  53.374  1.00  0.00    -0.014 A 
HETATM   14  C22 UNL     1      24.214  -0.762  54.336  1.00  0.00     0.158 A 
HETATM   15  O6  UNL     1      25.410  -1.174  54.644  1.00  0.00    -0.352 OA
ENDROOT
BRANCH   6  16
HETATM   16  O2  UNL     1      22.672   2.508  51.245  1.00  0.00    -0.296 OA
BRANCH  16  17
HETATM   17  C6  UNL     1      22.433   2.593  49.866  1.00  0.00     0.418 C 
BRANCH  17  18
HETATM   18  O3  UNL     1      21.251   3.399  49.699  1.00  0.00    -0.349 OA
HETATM   19  H5  UNL     1      20.469   2.940  50.112  1.00  0.00     0.215 HD
ENDBRANCH  17  18
BRANCH  17  20
HETATM   20  O4  UNL     1      22.028   1.354  49.336  1.00  0.00    -0.314 OA
BRANCH  20  21
HETATM   21  C7  UNL     1      20.672   1.243  49.185  1.00  0.00     0.343 C 
BRANCH  21  22
HETATM   22  O5  UNL     1      19.970   0.982  50.330  1.00  0.00    -0.365 OA
BRANCH  22  23
HETATM   23  C8  UNL     1      18.594   0.878  50.141  1.00  0.00     0.200 C 
BRANCH  23  24
HETATM   24  C9  UNL     1      17.772   1.291  51.311  1.00  0.00     0.298 C 
BRANCH  24  25
HETATM   25  N1  UNL     1      17.244   0.126  52.002  1.00  0.00     0.090 N 
HETATM   26  C10 UNL     1      18.338  -0.713  52.485  1.00  0.00     0.272 C 
HETATM   27  C11 UNL     1      17.741  -1.656  53.518  1.00  0.00     0.030 C 
HETATM   28  C12 UNL     1      16.723  -2.523  52.830  1.00  0.00     0.003 C 
HETATM   29  C13 UNL     1      15.710  -1.745  52.033  1.00  0.00     0.030 C 
HETATM   30  C14 UNL     1      16.308  -0.627  51.228  1.00  0.00     0.272 C 
ENDBRANCH  24  25
ENDBRANCH  23  24
ENDBRANCH  22  23
ENDBRANCH  21  22
ENDBRANCH  20  21
ENDBRANCH  17  20
ENDBRANCH  16  17
ENDBRANCH   6  16
TORSDOF 9
ENDMDL
MODEL 8
REMARK VINA RESULT:      -7.4      3.950      5.586
REMARK  9 active torsions:
REMARK  status: ('A' for Active; 'I' for Inactive)
REMARK    1  A    between atoms: C5_6  and  O2_7 
REMARK    2  A    between atoms: O2_7  and  C6_8 
REMARK    3  A    between atoms: C6_8  and  O3_9 
REMARK    4  A    between atoms: C6_8  and  O4_10 
REMARK    5  A    between atoms: O4_10  and  C7_11 
REMARK    6  A    between atoms: C7_11  and  O5_12 
REMARK    7  A    between atoms: O5_12  and  C8_13 
REMARK    8  A    between atoms: C8_13  and  C9_14 
REMARK    9  A    between atoms: C9_14  and  N1_15 
ROOT
HETATM    1  O1  UNL     1      28.169  -0.498  54.639  1.00  0.00    -0.294 OA
HETATM    2  C1  UNL     1      27.237  -0.035  53.904  1.00  0.00     0.170 A 
HETATM    3  C2  UNL     1      27.491   0.853  52.741  1.00  0.00     0.110 A 
HETATM    4  C3  UNL     1      26.323   1.297  52.005  1.00  0.00    -0.005 A 
HETATM    5  C4  UNL     1      25.084   1.091  52.143  1.00  0.00     0.001 A 
HETATM    6  C5  UNL     1      23.738   1.336  51.660  1.00  0.00     0.084 A 
HETATM    7  C15 UNL     1      22.476   1.060  51.899  1.00  0.00     0.037 A 
HETATM    8  C16 UNL     1      21.598   0.286  52.855  1.00  0.00    -0.001 A 
HETATM    9  C17 UNL     1      21.720  -0.520  53.946  1.00  0.00    -0.024 A 
HETATM   10  C18 UNL     1      22.418  -1.292  55.044  1.00  0.00     0.069 A 
HETATM   11  C19 UNL     1      23.907  -1.177  55.057  1.00  0.00     0.109 A 
HETATM   12  C20 UNL     1      24.032  -0.400  54.026  1.00  0.00     0.104 A 
HETATM   13  C21 UNL     1      24.981   0.218  53.302  1.00  0.00    -0.014 A 
HETATM   14  C22 UNL     1      25.795  -0.396  54.221  1.00  0.00     0.158 A 
HETATM   15  O6  UNL     1      25.216  -1.124  55.133  1.00  0.00    -0.352 OA
ENDROOT
BRANCH   6  16
HETATM   16  O2  UNL     1      24.055   2.131  50.587  1.00  0.00    -0.296 OA
BRANCH  16  17
HETATM   17  C6  UNL     1      23.273   3.238  50.229  1.00  0.00     0.418 C 
BRANCH  17  18
HETATM   18  O3  UNL     1      23.296   3.315  48.791  1.00  0.00    -0.349 OA
HETATM   19  H5  UNL     1      23.757   4.151  48.504  1.00  0.00     0.215 HD
ENDBRANCH  17  18
BRANCH  17  20
HETATM   20  O4  UNL     1      23.890   4.448  50.602  1.00  0.00    -0.314 OA
BRANCH  20  21
HETATM   21  C7  UNL     1      25.217   4.508  50.270  1.00  0.00     0.343 C 
BRANCH  21  22
HETATM   22  O5  UNL     1      25.503   5.137  49.090  1.00  0.00    -0.365 OA
BRANCH  22  23
HETATM   23  C8  UNL     1      26.304   6.267  49.228  1.00  0.00     0.200 C 
BRANCH  23  24
HETATM   24  C9  UNL     1      27.354   6.417  48.185  1.00  0.00     0.298 C 
BRANCH  24  25
HETATM   25  N1  UNL     1      28.063   7.677  48.348  1.00  0.00     0.090 N 
HETATM   26  C10 UNL     1      29.493   7.433  48.513  1.00  0.00     0.272 C 
HETATM   27  C11 UNL     1      30.192   8.762  48.269  1.00  0.00     0.030 C 
HETATM   28  C12 UNL     1      29.735   9.733  49.322  1.00  0.00     0.003 C 
HETATM   29  C13 UNL     1      28.237   9.827  49.444  1.00  0.00     0.030 C 
HETATM   30  C14 UNL     1      27.545   8.495  49.401  1.00  0.00     0.272 C 
ENDBRANCH  24  25
ENDBRANCH  23  24
ENDBRANCH  22  23
ENDBRANCH  21  22
ENDBRANCH  20  21
ENDBRANCH  17  20
ENDBRANCH  16  17
ENDBRANCH   6  16
TORSDOF 9
ENDMDL
MODEL 9
REMARK VINA RESULT:      -7.4      3.079      5.877
REMARK  9 active torsions:
REMARK  status: ('A' for Active; 'I' for Inactive)
REMARK    1  A    between atoms: C5_6  and  O2_7 
REMARK    2  A    between atoms: O2_7  and  C6_8 
REMARK    3  A    between atoms: C6_8  and  O3_9 
REMARK    4  A    between atoms: C6_8  and  O4_10 
REMARK    5  A    between atoms: O4_10  and  C7_11 
REMARK    6  A    between atoms: C7_11  and  O5_12 
REMARK    7  A    between atoms: O5_12  and  C8_13 
REMARK    8  A    between atoms: C8_13  and  C9_14 
REMARK    9  A    between atoms: C9_14  and  N1_15 
ROOT
HETATM    1  O1  UNL     1      18.963   3.479  52.082  1.00  0.00    -0.294 OA
HETATM    2  C1  UNL     1      20.206   3.209  52.155  1.00  0.00     0.170 A 
HETATM    3  C2  UNL     1      21.260   4.103  51.613  1.00  0.00     0.110 A 
HETATM    4  C3  UNL     1      22.629   3.653  51.776  1.00  0.00    -0.005 A 
HETATM    5  C4  UNL     1      23.145   2.624  52.293  1.00  0.00     0.001 A 
HETATM    6  C5  UNL     1      24.352   1.885  52.617  1.00  0.00     0.084 A 
HETATM    7  C15 UNL     1      24.780   0.776  53.176  1.00  0.00     0.037 A 
HETATM    8  C16 UNL     1      24.273  -0.470  53.863  1.00  0.00    -0.001 A 
HETATM    9  C17 UNL     1      23.092  -1.033  54.239  1.00  0.00    -0.024 A 
HETATM   10  C18 UNL     1      21.594  -1.160  54.411  1.00  0.00     0.069 A 
HETATM   11  C19 UNL     1      20.791  -0.029  53.855  1.00  0.00     0.109 A 
HETATM   12  C20 UNL     1      21.778   0.686  53.413  1.00  0.00     0.104 A 
HETATM   13  C21 UNL     1      22.015   1.847  52.779  1.00  0.00    -0.014 A 
HETATM   14  C22 UNL     1      20.645   1.916  52.824  1.00  0.00     0.158 A 
HETATM   15  O6  UNL     1      20.019   0.925  53.392  1.00  0.00    -0.352 OA
ENDROOT
BRANCH   6  16
HETATM   16  O2  UNL     1      25.268   2.775  52.112  1.00  0.00    -0.296 OA
BRANCH  16  17
HETATM   17  C6  UNL     1      26.192   2.407  51.124  1.00  0.00     0.418 C 
BRANCH  17  18
HETATM   18  O3  UNL     1      27.405   3.132  51.399  1.00  0.00    -0.349 OA
HETATM   19  H5  UNL     1      27.847   3.389  50.544  1.00  0.00     0.215 HD
ENDBRANCH  17  18
BRANCH  17  20
HETATM   20  O4  UNL     1      25.823   2.910  49.862  1.00  0.00    -0.314 OA
BRANCH  20  21
HETATM   21  C7  UNL     1      26.650   3.902  49.408  1.00  0.00     0.343 C 
BRANCH  21  22
HETATM   22  O5  UNL     1      26.275   5.177  49.731  1.00  0.00    -0.365 OA
BRANCH  22  23
HETATM   23  C8  UNL     1      26.651   6.135  48.793  1.00  0.00     0.200 C 
BRANCH  23  24
HETATM   24  C9  UNL     1      25.807   7.360  48.782  1.00  0.00     0.298 C 
BRANCH  24  25
HETATM   25  N1  UNL     1      24.439   7.044  49.160  1.00  0.00     0.090 N 
HETATM   26  C10 UNL     1      23.630   6.800  47.970  1.00  0.00     0.272 C 
HETATM   27  C11 UNL     1      22.367   6.094  48.438  1.00  0.00     0.030 C 
HETATM   28  C12 UNL     1      21.621   7.024  49.354  1.00  0.00     0.003 C 
HETATM   29  C13 UNL     1      22.472   7.586  50.463  1.00  0.00     0.030 C 
HETATM   30  C14 UNL     1      23.837   8.022  50.011  1.00  0.00     0.272 C 
ENDBRANCH  24  25
ENDBRANCH  23  24
ENDBRANCH  22  23
ENDBRANCH  21  22
ENDBRANCH  20  21
ENDBRANCH  17  20
ENDBRANCH  16  17
ENDBRANCH   6  16
TORSDOF 9
ENDMDL
