MODEL 1
REMARK VINA RESULT:      -7.7      0.000      0.000
REMARK  6 active torsions:
REMARK  status: ('A' for Active; 'I' for Inactive)
REMARK    1  A    between atoms: C1_2  and  C2_3 
REMARK    2  A    between atoms: C2_3  and  C3_4 
REMARK    3  A    between atoms: C3_4  and  N1_5 
REMARK    4  A    between atoms: N1_5  and  C4_6 
REMARK    5  A    between atoms: C12_15  and  O2_16 
REMARK    6  A    between atoms: O2_16  and  C13_17 
ROOT
HETATM    1  C4  UNL     1      25.511   3.566  50.038  1.00  0.00     0.027 C 
HETATM    2  C5  UNL     1      26.604   3.211  50.762  1.00  0.00     0.152 C 
HETATM    3  N2  UNL     1      26.951   2.455  51.939  1.00  0.00    -0.406 N 
HETATM    4  C6  UNL     1      26.634   1.985  53.283  1.00  0.00     0.156 C 
HETATM    5  C7  UNL     1      25.355   1.241  53.297  1.00  0.00    -0.004 A 
HETATM    6  C8  UNL     1      24.238   1.951  52.976  1.00  0.00     0.049 A 
HETATM    7  C9  UNL     1      22.934   1.432  52.857  1.00  0.00     0.077 A 
HETATM    8  C10 UNL     1      22.805   0.061  53.102  1.00  0.00     0.040 A 
HETATM    9  C11 UNL     1      23.935  -0.646  53.429  1.00  0.00     0.040 A 
HETATM   10  C12 UNL     1      25.194  -0.099  53.531  1.00  0.00     0.086 A 
HETATM   11  O3  UNL     1      21.945   2.389  52.494  1.00  0.00    -0.305 OA
HETATM   12  C14 UNL     1      22.467   3.314  51.533  1.00  0.00     0.253 C 
HETATM   13  N3  UNL     1      23.384   2.883  50.715  1.00  0.00    -0.272 NA
HETATM   14  C15 UNL     1      24.039   3.630  49.691  1.00  0.00     0.205 C 
HETATM   15  H6  UNL     1      27.863   2.186  51.477  1.00  0.00     0.154 HD
ENDROOT
BRANCH   1  16
HETATM   16  N1  UNL     1      26.240   4.329  49.043  1.00  0.00    -0.390 N 
HETATM   17  H4  UNL     1      26.883   4.001  48.253  1.00  0.00     0.159 HD
BRANCH  16  18
HETATM   18  C3  UNL     1      26.102   5.776  49.080  1.00  0.00     0.150 C 
BRANCH  18  19
HETATM   19  C2  UNL     1      27.282   6.483  48.511  1.00  0.00     0.051 C 
BRANCH  19  20
HETATM   20  C1  UNL     1      28.419   5.840  48.284  1.00  0.00     0.219 C 
HETATM   21  O1  UNL     1      29.336   5.014  48.232  1.00  0.00    -0.284 OA
ENDBRANCH  19  20
ENDBRANCH  18  19
ENDBRANCH  16  18
ENDBRANCH   1  16
BRANCH  10  22
HETATM   22  O2  UNL     1      26.286  -0.862  53.862  1.00  0.00    -0.255 OA
BRANCH  22  23
HETATM   23  C13 UNL     1      27.201  -1.353  52.902  1.00  0.00     0.530 C 
HETATM   24  F1  UNL     1      26.795  -0.945  51.627  1.00  0.00    -0.144 F 
HETATM   25  F2  UNL     1      28.502  -0.959  53.138  1.00  0.00    -0.144 F 
HETATM   26  F3  UNL     1      27.177  -2.758  52.830  1.00  0.00    -0.144 F 
ENDBRANCH  22  23
ENDBRANCH  10  22
TORSDOF 6
ENDMDL
MODEL 2
REMARK VINA RESULT:      -7.5      3.666      6.155
REMARK  6 active torsions:
REMARK  status: ('A' for Active; 'I' for Inactive)
REMARK    1  A    between atoms: C1_2  and  C2_3 
REMARK    2  A    between atoms: C2_3  and  C3_4 
REMARK    3  A    between atoms: C3_4  and  N1_5 
REMARK    4  A    between atoms: N1_5  and  C4_6 
REMARK    5  A    between atoms: C12_15  and  O2_16 
REMARK    6  A    between atoms: O2_16  and  C13_17 
ROOT
HETATM    1  C4  UNL     1      27.138   0.919  53.993  1.00  0.00     0.027 C 
HETATM    2  C5  UNL     1      27.630   1.770  53.055  1.00  0.00     0.152 C 
HETATM    3  N2  UNL     1      27.184   2.546  51.925  1.00  0.00    -0.406 N 
HETATM    4  C6  UNL     1      26.303   2.720  50.776  1.00  0.00     0.156 C 
HETATM    5  C7  UNL     1      24.882   2.673  51.185  1.00  0.00    -0.004 A 
HETATM    6  C8  UNL     1      24.440   1.492  51.701  1.00  0.00     0.049 A 
HETATM    7  C9  UNL     1      23.153   1.246  52.217  1.00  0.00     0.077 A 
HETATM    8  C10 UNL     1      22.269   2.330  52.177  1.00  0.00     0.040 A 
HETATM    9  C11 UNL     1      22.721   3.514  51.651  1.00  0.00     0.040 A 
HETATM   10  C12 UNL     1      23.991   3.713  51.159  1.00  0.00     0.086 A 
HETATM   11  O3  UNL     1      22.954  -0.074  52.710  1.00  0.00    -0.305 OA
HETATM   12  C14 UNL     1      24.127  -0.541  53.386  1.00  0.00     0.253 C 
HETATM   13  N3  UNL     1      24.876   0.343  53.981  1.00  0.00    -0.272 NA
HETATM   14  C15 UNL     1      26.082   0.099  54.703  1.00  0.00     0.205 C 
HETATM   15  H6  UNL     1      27.912   3.275  52.161  1.00  0.00     0.154 HD
ENDROOT
BRANCH   1  16
HETATM   16  N1  UNL     1      28.404   0.700  54.665  1.00  0.00    -0.390 N 
HETATM   17  H4  UNL     1      28.634   0.646  55.709  1.00  0.00     0.159 HD
BRANCH  16  18
HETATM   18  C3  UNL     1      29.579   0.509  53.829  1.00  0.00     0.150 C 
BRANCH  18  19
HETATM   19  C2  UNL     1      30.037  -0.906  53.793  1.00  0.00     0.051 C 
BRANCH  19  20
HETATM   20  C1  UNL     1      29.251  -1.867  53.330  1.00  0.00     0.219 C 
HETATM   21  O1  UNL     1      28.480  -2.824  53.202  1.00  0.00    -0.284 OA
ENDBRANCH  19  20
ENDBRANCH  18  19
ENDBRANCH  16  18
ENDBRANCH   1  16
BRANCH  10  22
HETATM   22  O2  UNL     1      24.383   4.924  50.646  1.00  0.00    -0.255 OA
BRANCH  22  23
HETATM   23  C13 UNL     1      24.326   5.231  49.267  1.00  0.00     0.530 C 
HETATM   24  F1  UNL     1      25.627   5.351  48.766  1.00  0.00    -0.144 F 
HETATM   25  F2  UNL     1      23.615   4.304  48.533  1.00  0.00    -0.144 F 
HETATM   26  F3  UNL     1      23.757   6.497  49.037  1.00  0.00    -0.144 F 
ENDBRANCH  22  23
ENDBRANCH  10  22
TORSDOF 6
ENDMDL
MODEL 3
REMARK VINA RESULT:      -7.2      4.025      6.303
REMARK  6 active torsions:
REMARK  status: ('A' for Active; 'I' for Inactive)
REMARK    1  A    between atoms: C1_2  and  C2_3 
REMARK    2  A    between atoms: C2_3  and  C3_4 
REMARK    3  A    between atoms: C3_4  and  N1_5 
REMARK    4  A    between atoms: N1_5  and  C4_6 
REMARK    5  A    between atoms: C12_15  and  O2_16 
REMARK    6  A    between atoms: O2_16  and  C13_17 
ROOT
HETATM    1  C4  UNL     1      26.201   0.224  53.121  1.00  0.00     0.027 C 
HETATM    2  C5  UNL     1      25.128  -0.289  53.776  1.00  0.00     0.152 C 
HETATM    3  N2  UNL     1      23.687  -0.224  53.757  1.00  0.00    -0.406 N 
HETATM    4  C6  UNL     1      22.455   0.524  53.533  1.00  0.00     0.156 C 
HETATM    5  C7  UNL     1      22.404   1.061  52.156  1.00  0.00    -0.004 A 
HETATM    6  C8  UNL     1      23.353   1.981  51.829  1.00  0.00     0.049 A 
HETATM    7  C9  UNL     1      23.536   2.567  50.561  1.00  0.00     0.077 A 
HETATM    8  C10 UNL     1      22.640   2.151  49.570  1.00  0.00     0.040 A 
HETATM    9  C11 UNL     1      21.684   1.227  49.909  1.00  0.00     0.040 A 
HETATM   10  C12 UNL     1      21.543   0.676  51.162  1.00  0.00     0.086 A 
HETATM   11  O3  UNL     1      24.615   3.490  50.484  1.00  0.00    -0.305 OA
HETATM   12  C14 UNL     1      25.730   3.029  51.256  1.00  0.00     0.253 C 
HETATM   13  N3  UNL     1      25.892   1.742  51.374  1.00  0.00    -0.272 NA
HETATM   14  C15 UNL     1      26.925   1.071  52.096  1.00  0.00     0.205 C 
HETATM   15  H6  UNL     1      23.655  -1.232  54.071  1.00  0.00     0.154 HD
ENDROOT
BRANCH   1  16
HETATM   16  N1  UNL     1      27.197  -0.474  53.910  1.00  0.00    -0.390 N 
HETATM   17  H4  UNL     1      27.121  -1.375  54.482  1.00  0.00     0.159 HD
BRANCH  16  18
HETATM   18  C3  UNL     1      28.533   0.100  53.956  1.00  0.00     0.150 C 
BRANCH  18  19
HETATM   19  C2  UNL     1      29.591  -0.872  53.568  1.00  0.00     0.051 C 
BRANCH  19  20
HETATM   20  C1  UNL     1      29.319  -2.161  53.434  1.00  0.00     0.219 C 
HETATM   21  O1  UNL     1      28.797  -3.282  53.448  1.00  0.00    -0.284 OA
ENDBRANCH  19  20
ENDBRANCH  18  19
ENDBRANCH  16  18
ENDBRANCH   1  16
BRANCH  10  22
HETATM   22  O2  UNL     1      20.564  -0.246  51.438  1.00  0.00    -0.255 OA
BRANCH  22  23
HETATM   23  C13 UNL     1      19.211   0.109  51.649  1.00  0.00     0.530 C 
HETATM   24  F1  UNL     1      19.152   1.381  52.228  1.00  0.00    -0.144 F 
HETATM   25  F2  UNL     1      18.453   0.072  50.497  1.00  0.00    -0.144 F 
HETATM   26  F3  UNL     1      18.596  -0.724  52.601  1.00  0.00    -0.144 F 
ENDBRANCH  22  23
ENDBRANCH  10  22
TORSDOF 6
ENDMDL
MODEL 4
REMARK VINA RESULT:      -7.2      1.478      1.797
REMARK  6 active torsions:
REMARK  status: ('A' for Active; 'I' for Inactive)
REMARK    1  A    between atoms: C1_2  and  C2_3 
REMARK    2  A    between atoms: C2_3  and  C3_4 
REMARK    3  A    between atoms: C3_4  and  N1_5 
REMARK    4  A    between atoms: N1_5  and  C4_6 
REMARK    5  A    between atoms: C12_15  and  O2_16 
REMARK    6  A    between atoms: O2_16  and  C13_17 
ROOT
HETATM    1  C4  UNL     1      24.727   3.563  50.123  1.00  0.00     0.027 C 
HETATM    2  C5  UNL     1      26.060   3.593  50.384  1.00  0.00     0.152 C 
HETATM    3  N2  UNL     1      27.031   2.968  51.248  1.00  0.00    -0.406 N 
HETATM    4  C6  UNL     1      27.389   2.369  52.528  1.00  0.00     0.156 C 
HETATM    5  C7  UNL     1      26.511   1.219  52.840  1.00  0.00    -0.004 A 
HETATM    6  C8  UNL     1      25.189   1.498  53.019  1.00  0.00     0.049 A 
HETATM    7  C9  UNL     1      24.170   0.554  53.251  1.00  0.00     0.077 A 
HETATM    8  C10 UNL     1      24.583  -0.781  53.303  1.00  0.00     0.040 A 
HETATM    9  C11 UNL     1      25.916  -1.052  53.126  1.00  0.00     0.040 A 
HETATM   10  C12 UNL     1      26.882  -0.098  52.897  1.00  0.00     0.086 A 
HETATM   11  O3  UNL     1      22.867   1.111  53.389  1.00  0.00    -0.305 OA
HETATM   12  C14 UNL     1      22.682   2.194  52.471  1.00  0.00     0.253 C 
HETATM   13  N3  UNL     1      23.326   2.146  51.340  1.00  0.00    -0.272 NA
HETATM   14  C15 UNL     1      23.292   3.113  50.291  1.00  0.00     0.205 C 
HETATM   15  H6  UNL     1      27.748   3.057  50.477  1.00  0.00     0.154 HD
ENDROOT
BRANCH   1  16
HETATM   16  N1  UNL     1      24.763   4.570  49.080  1.00  0.00    -0.390 N 
HETATM   17  H4  UNL     1      24.621   4.478  48.024  1.00  0.00     0.159 HD
BRANCH  16  18
HETATM   18  C3  UNL     1      25.023   5.942  49.487  1.00  0.00     0.150 C 
BRANCH  18  19
HETATM   19  C2  UNL     1      25.899   6.670  48.530  1.00  0.00     0.051 C 
BRANCH  19  20
HETATM   20  C1  UNL     1      27.171   6.332  48.375  1.00  0.00     0.219 C 
HETATM   21  O1  UNL     1      28.237   5.731  48.197  1.00  0.00    -0.284 OA
ENDBRANCH  19  20
ENDBRANCH  18  19
ENDBRANCH  16  18
ENDBRANCH   1  16
BRANCH  10  22
HETATM   22  O2  UNL     1      28.201  -0.435  52.727  1.00  0.00    -0.255 OA
BRANCH  22  23
HETATM   23  C13 UNL     1      29.109  -0.560  53.805  1.00  0.00     0.530 C 
HETATM   24  F1  UNL     1      29.531  -1.890  53.902  1.00  0.00    -0.144 F 
HETATM   25  F2  UNL     1      30.198   0.281  53.699  1.00  0.00    -0.144 F 
HETATM   26  F3  UNL     1      28.487  -0.312  55.042  1.00  0.00    -0.144 F 
ENDBRANCH  22  23
ENDBRANCH  10  22
TORSDOF 6
ENDMDL
MODEL 5
REMARK VINA RESULT:      -7.1      1.262      1.573
REMARK  6 active torsions:
REMARK  status: ('A' for Active; 'I' for Inactive)
REMARK    1  A    between atoms: C1_2  and  C2_3 
REMARK    2  A    between atoms: C2_3  and  C3_4 
REMARK    3  A    between atoms: C3_4  and  N1_5 
REMARK    4  A    between atoms: N1_5  and  C4_6 
REMARK    5  A    between atoms: C12_15  and  O2_16 
REMARK    6  A    between atoms: O2_16  and  C13_17 
ROOT
HETATM    1  C4  UNL     1      24.716   3.479  50.059  1.00  0.00     0.027 C 
HETATM    2  C5  UNL     1      25.884   3.275  50.721  1.00  0.00     0.152 C 
HETATM    3  N2  UNL     1      26.391   2.580  51.878  1.00  0.00    -0.406 N 
HETATM    4  C6  UNL     1      26.212   2.084  53.238  1.00  0.00     0.156 C 
HETATM    5  C7  UNL     1      25.044   1.180  53.323  1.00  0.00    -0.004 A 
HETATM    6  C8  UNL     1      23.828   1.735  53.065  1.00  0.00     0.049 A 
HETATM    7  C9  UNL     1      22.598   1.050  53.019  1.00  0.00     0.077 A 
HETATM    8  C10 UNL     1      22.664  -0.325  53.272  1.00  0.00     0.040 A 
HETATM    9  C11 UNL     1      23.892  -0.875  53.536  1.00  0.00     0.040 A 
HETATM   10  C12 UNL     1      25.073  -0.168  53.568  1.00  0.00     0.086 A 
HETATM   11  O3  UNL     1      21.475   1.867  52.711  1.00  0.00    -0.305 OA
HETATM   12  C14 UNL     1      21.818   2.844  51.722  1.00  0.00     0.253 C 
HETATM   13  N3  UNL     1      22.736   2.530  50.854  1.00  0.00    -0.272 NA
HETATM   14  C15 UNL     1      23.231   3.348  49.794  1.00  0.00     0.205 C 
HETATM   15  H6  UNL     1      27.303   2.429  51.366  1.00  0.00     0.154 HD
ENDROOT
BRANCH   1  16
HETATM   16  N1  UNL     1      25.283   4.322  49.025  1.00  0.00    -0.390 N 
HETATM   17  H4  UNL     1      24.898   4.594  48.064  1.00  0.00     0.159 HD
BRANCH  16  18
HETATM   18  C3  UNL     1      26.580   4.925  49.292  1.00  0.00     0.150 C 
BRANCH  18  19
HETATM   19  C2  UNL     1      26.698   6.304  48.747  1.00  0.00     0.051 C 
BRANCH  19  20
HETATM   20  C1  UNL     1      25.671   6.894  48.153  1.00  0.00     0.219 C 
HETATM   21  O1  UNL     1      24.577   7.167  47.645  1.00  0.00    -0.284 OA
ENDBRANCH  19  20
ENDBRANCH  18  19
ENDBRANCH  16  18
ENDBRANCH   1  16
BRANCH  10  22
HETATM   22  O2  UNL     1      26.272  -0.779  53.838  1.00  0.00    -0.255 OA
BRANCH  22  23
HETATM   23  C13 UNL     1      27.119  -1.291  52.828  1.00  0.00     0.530 C 
HETATM   24  F1  UNL     1      28.429  -0.861  53.063  1.00  0.00    -0.144 F 
HETATM   25  F2  UNL     1      27.078  -2.666  52.728  1.00  0.00    -0.144 F 
HETATM   26  F3  UNL     1      26.809  -0.754  51.565  1.00  0.00    -0.144 F 
ENDBRANCH  22  23
ENDBRANCH  10  22
TORSDOF 6
ENDMDL
MODEL 6
REMARK VINA RESULT:      -7.1      3.554      5.103
REMARK  6 active torsions:
REMARK  status: ('A' for Active; 'I' for Inactive)
REMARK    1  A    between atoms: C1_2  and  C2_3 
REMARK    2  A    between atoms: C2_3  and  C3_4 
REMARK    3  A    between atoms: C3_4  and  N1_5 
REMARK    4  A    between atoms: N1_5  and  C4_6 
REMARK    5  A    between atoms: C12_15  and  O2_16 
REMARK    6  A    between atoms: O2_16  and  C13_17 
ROOT
HETATM    1  C4  UNL     1      25.279   2.578  51.741  1.00  0.00     0.027 C 
HETATM    2  C5  UNL     1      24.245   2.704  50.869  1.00  0.00     0.152 C 
HETATM    3  N2  UNL     1      22.927   2.170  50.633  1.00  0.00    -0.406 N 
HETATM    4  C6  UNL     1      21.982   1.061  50.683  1.00  0.00     0.156 C 
HETATM    5  C7  UNL     1      21.841   0.547  52.063  1.00  0.00    -0.004 A 
HETATM    6  C8  UNL     1      22.953  -0.008  52.620  1.00  0.00     0.049 A 
HETATM    7  C9  UNL     1      23.065  -0.491  53.938  1.00  0.00     0.077 A 
HETATM    8  C10 UNL     1      21.910  -0.385  54.720  1.00  0.00     0.040 A 
HETATM    9  C11 UNL     1      20.792   0.170  54.150  1.00  0.00     0.040 A 
HETATM   10  C12 UNL     1      20.727   0.635  52.856  1.00  0.00     0.086 A 
HETATM   11  O3  UNL     1      24.348  -1.008  54.273  1.00  0.00    -0.305 OA
HETATM   12  C14 UNL     1      25.382  -0.212  53.684  1.00  0.00     0.253 C 
HETATM   13  N3  UNL     1      25.143   1.056  53.506  1.00  0.00    -0.272 NA
HETATM   14  C15 UNL     1      26.024   2.023  52.937  1.00  0.00     0.205 C 
HETATM   15  H6  UNL     1      22.634   3.110  50.248  1.00  0.00     0.154 HD
ENDROOT
BRANCH   1  16
HETATM   16  N1  UNL     1      26.131   3.559  51.097  1.00  0.00    -0.390 N 
HETATM   17  H4  UNL     1      26.680   4.378  51.512  1.00  0.00     0.159 HD
BRANCH  16  18
HETATM   18  C3  UNL     1      26.304   3.449  49.657  1.00  0.00     0.150 C 
BRANCH  18  19
HETATM   19  C2  UNL     1      26.685   4.740  49.022  1.00  0.00     0.051 C 
BRANCH  19  20
HETATM   20  C1  UNL     1      27.917   4.947  48.582  1.00  0.00     0.219 C 
HETATM   21  O1  UNL     1      29.139   5.107  48.475  1.00  0.00    -0.284 OA
ENDBRANCH  19  20
ENDBRANCH  18  19
ENDBRANCH  16  18
ENDBRANCH   1  16
BRANCH  10  22
HETATM   22  O2  UNL     1      19.576   1.181  52.345  1.00  0.00    -0.255 OA
BRANCH  22  23
HETATM   23  C13 UNL     1      18.552   0.405  51.754  1.00  0.00     0.530 C 
HETATM   24  F1  UNL     1      18.606  -0.896  52.266  1.00  0.00    -0.144 F 
HETATM   25  F2  UNL     1      17.293   0.938  51.935  1.00  0.00    -0.144 F 
HETATM   26  F3  UNL     1      18.758   0.232  50.373  1.00  0.00    -0.144 F 
ENDBRANCH  22  23
ENDBRANCH  10  22
TORSDOF 6
ENDMDL
MODEL 7
REMARK VINA RESULT:      -6.7      2.280      2.988
REMARK  6 active torsions:
REMARK  status: ('A' for Active; 'I' for Inactive)
REMARK    1  A    between atoms: C1_2  and  C2_3 
REMARK    2  A    between atoms: C2_3  and  C3_4 
REMARK    3  A    between atoms: C3_4  and  N1_5 
REMARK    4  A    between atoms: N1_5  and  C4_6 
REMARK    5  A    between atoms: C12_15  and  O2_16 
REMARK    6  A    between atoms: O2_16  and  C13_17 
ROOT
HETATM    1  C4  UNL     1      25.963   4.431  49.931  1.00  0.00     0.027 C 
HETATM    2  C5  UNL     1      26.433   3.332  50.575  1.00  0.00     0.152 C 
HETATM    3  N2  UNL     1      26.012   2.358  51.550  1.00  0.00    -0.406 N 
HETATM    4  C6  UNL     1      25.246   2.005  52.740  1.00  0.00     0.156 C 
HETATM    5  C7  UNL     1      23.809   2.301  52.552  1.00  0.00    -0.004 A 
HETATM    6  C8  UNL     1      23.477   3.611  52.383  1.00  0.00     0.049 A 
HETATM    7  C9  UNL     1      22.187   4.110  52.119  1.00  0.00     0.077 A 
HETATM    8  C10 UNL     1      21.174   3.149  52.034  1.00  0.00     0.040 A 
HETATM    9  C11 UNL     1      21.516   1.832  52.210  1.00  0.00     0.040 A 
HETATM   10  C12 UNL     1      22.793   1.386  52.464  1.00  0.00     0.086 A 
HETATM   11  O3  UNL     1      22.117   5.523  51.969  1.00  0.00    -0.305 OA
HETATM   12  C14 UNL     1      23.262   6.013  51.262  1.00  0.00     0.253 C 
HETATM   13  N3  UNL     1      23.814   5.225  50.385  1.00  0.00    -0.272 NA
HETATM   14  C15 UNL     1      24.957   5.507  49.578  1.00  0.00     0.205 C 
HETATM   15  H6  UNL     1      26.604   1.634  51.057  1.00  0.00     0.154 HD
ENDROOT
BRANCH   1  16
HETATM   16  N1  UNL     1      27.166   4.671  49.158  1.00  0.00    -0.390 N 
HETATM   17  H4  UNL     1      28.036   4.064  49.026  1.00  0.00     0.159 HD
BRANCH  16  18
HETATM   18  C3  UNL     1      27.245   5.921  48.419  1.00  0.00     0.150 C 
BRANCH  18  19
HETATM   19  C2  UNL     1      28.639   6.425  48.287  1.00  0.00     0.051 C 
BRANCH  19  20
HETATM   20  C1  UNL     1      29.641   5.601  48.019  1.00  0.00     0.219 C 
HETATM   21  O1  UNL     1      30.381   4.619  47.889  1.00  0.00    -0.284 OA
ENDBRANCH  19  20
ENDBRANCH  18  19
ENDBRANCH  16  18
ENDBRANCH   1  16
BRANCH  10  22
HETATM   22  O2  UNL     1      23.070   0.052  52.630  1.00  0.00    -0.255 OA
BRANCH  22  23
HETATM   23  C13 UNL     1      22.779  -0.652  53.822  1.00  0.00     0.530 C 
HETATM   24  F1  UNL     1      23.977  -1.007  54.453  1.00  0.00    -0.144 F 
HETATM   25  F2  UNL     1      21.974   0.057  54.689  1.00  0.00    -0.144 F 
HETATM   26  F3  UNL     1      22.157  -1.886  53.561  1.00  0.00    -0.144 F 
ENDBRANCH  22  23
ENDBRANCH  10  22
TORSDOF 6
ENDMDL
MODEL 8
REMARK VINA RESULT:      -6.5      3.969      5.981
REMARK  6 active torsions:
REMARK  status: ('A' for Active; 'I' for Inactive)
REMARK    1  A    between atoms: C1_2  and  C2_3 
REMARK    2  A    between atoms: C2_3  and  C3_4 
REMARK    3  A    between atoms: C3_4  and  N1_5 
REMARK    4  A    between atoms: N1_5  and  C4_6 
REMARK    5  A    between atoms: C12_15  and  O2_16 
REMARK    6  A    between atoms: O2_16  and  C13_17 
ROOT
HETATM    1  C4  UNL     1      25.904   2.035  52.336  1.00  0.00     0.027 C 
HETATM    2  C5  UNL     1      24.895   1.563  53.112  1.00  0.00     0.152 C 
HETATM    3  N2  UNL     1      23.466   1.375  53.073  1.00  0.00    -0.406 N 
HETATM    4  C6  UNL     1      22.143   1.805  52.635  1.00  0.00     0.156 C 
HETATM    5  C7  UNL     1      22.077   1.897  51.160  1.00  0.00    -0.004 A 
HETATM    6  C8  UNL     1      22.882   2.828  50.575  1.00  0.00     0.049 A 
HETATM    7  C9  UNL     1      23.033   3.038  49.191  1.00  0.00     0.077 A 
HETATM    8  C10 UNL     1      22.269   2.204  48.367  1.00  0.00     0.040 A 
HETATM    9  C11 UNL     1      21.457   1.273  48.964  1.00  0.00     0.040 A 
HETATM   10  C12 UNL     1      21.342   1.098  50.324  1.00  0.00     0.086 A 
HETATM   11  O3  UNL     1      23.952   4.067  48.843  1.00  0.00    -0.305 OA
HETATM   12  C14 UNL     1      25.085   4.047  49.720  1.00  0.00     0.253 C 
HETATM   13  N3  UNL     1      25.446   2.899  50.216  1.00  0.00    -0.272 NA
HETATM   14  C15 UNL     1      26.534   2.654  51.106  1.00  0.00     0.205 C 
HETATM   15  H6  UNL     1      23.580   0.513  53.673  1.00  0.00     0.154 HD
ENDROOT
BRANCH   1  16
HETATM   16  N1  UNL     1      26.957   1.778  53.299  1.00  0.00    -0.390 N 
HETATM   17  H4  UNL     1      27.484   2.449  53.944  1.00  0.00     0.159 HD
BRANCH  16  18
HETATM   18  C3  UNL     1      27.398   0.401  53.454  1.00  0.00     0.150 C 
BRANCH  18  19
HETATM   19  C2  UNL     1      28.807   0.295  53.921  1.00  0.00     0.051 C 
BRANCH  19  20
HETATM   20  C1  UNL     1      29.386   1.291  54.576  1.00  0.00     0.219 C 
HETATM   21  O1  UNL     1      29.735   2.394  55.011  1.00  0.00    -0.284 OA
ENDBRANCH  19  20
ENDBRANCH  18  19
ENDBRANCH  16  18
ENDBRANCH   1  16
BRANCH  10  22
HETATM   22  O2  UNL     1      20.511   0.146  50.860  1.00  0.00    -0.255 OA
BRANCH  22  23
HETATM   23  C13 UNL     1      19.123   0.348  51.038  1.00  0.00     0.530 C 
HETATM   24  F1  UNL     1      18.919   1.491  51.819  1.00  0.00    -0.144 F 
HETATM   25  F2  UNL     1      18.431   0.452  49.849  1.00  0.00    -0.144 F 
HETATM   26  F3  UNL     1      18.537  -0.684  51.793  1.00  0.00    -0.144 F 
ENDBRANCH  22  23
ENDBRANCH  10  22
TORSDOF 6
ENDMDL
MODEL 9
REMARK VINA RESULT:      -6.5      4.091      5.574
REMARK  6 active torsions:
REMARK  status: ('A' for Active; 'I' for Inactive)
REMARK    1  A    between atoms: C1_2  and  C2_3 
REMARK    2  A    between atoms: C2_3  and  C3_4 
REMARK    3  A    between atoms: C3_4  and  N1_5 
REMARK    4  A    between atoms: N1_5  and  C4_6 
REMARK    5  A    between atoms: C12_15  and  O2_16 
REMARK    6  A    between atoms: O2_16  and  C13_17 
ROOT
HETATM    1  C4  UNL     1      23.367   3.733  52.670  1.00  0.00     0.027 C 
HETATM    2  C5  UNL     1      22.084   3.746  52.223  1.00  0.00     0.152 C 
HETATM    3  N2  UNL     1      20.977   2.846  52.014  1.00  0.00    -0.406 N 
HETATM    4  C6  UNL     1      20.467   1.525  51.665  1.00  0.00     0.156 C 
HETATM    5  C7  UNL     1      21.018   0.489  52.565  1.00  0.00    -0.004 A 
HETATM    6  C8  UNL     1      22.364   0.292  52.511  1.00  0.00     0.049 A 
HETATM    7  C9  UNL     1      23.106  -0.586  53.325  1.00  0.00     0.077 A 
HETATM    8  C10 UNL     1      22.363  -1.313  54.261  1.00  0.00     0.040 A 
HETATM    9  C11 UNL     1      21.006  -1.113  54.306  1.00  0.00     0.040 A 
HETATM   10  C12 UNL     1      20.320  -0.240  53.492  1.00  0.00     0.086 A 
HETATM   11  O3  UNL     1      24.506  -0.589  53.072  1.00  0.00    -0.305 OA
HETATM   12  C14 UNL     1      24.971   0.737  52.793  1.00  0.00     0.253 C 
HETATM   13  N3  UNL     1      24.346   1.729  53.359  1.00  0.00    -0.272 NA
HETATM   14  C15 UNL     1      24.637   3.118  53.218  1.00  0.00     0.205 C 
HETATM   15  H6  UNL     1      20.314   3.635  52.247  1.00  0.00     0.154 HD
ENDROOT
BRANCH   1  16
HETATM   16  N1  UNL     1      23.600   5.151  52.479  1.00  0.00    -0.390 N 
HETATM   17  H4  UNL     1      23.597   5.954  53.186  1.00  0.00     0.159 HD
BRANCH  16  18
HETATM   18  C3  UNL     1      23.896   5.603  51.129  1.00  0.00     0.150 C 
BRANCH  18  19
HETATM   19  C2  UNL     1      24.387   7.007  51.085  1.00  0.00     0.051 C 
BRANCH  19  20
HETATM   20  C1  UNL     1      25.421   7.346  50.329  1.00  0.00     0.219 C 
HETATM   21  O1  UNL     1      26.498   7.388  49.724  1.00  0.00    -0.284 OA
ENDBRANCH  19  20
ENDBRANCH  18  19
ENDBRANCH  16  18
ENDBRANCH   1  16
BRANCH  10  22
HETATM   22  O2  UNL     1      18.960  -0.084  53.588  1.00  0.00    -0.255 OA
BRANCH  22  23
HETATM   23  C13 UNL     1      18.040  -0.955  52.959  1.00  0.00     0.530 C 
HETATM   24  F1  UNL     1      18.363  -2.278  53.279  1.00  0.00    -0.144 F 
HETATM   25  F2  UNL     1      16.727  -0.690  53.289  1.00  0.00    -0.144 F 
HETATM   26  F3  UNL     1      18.154  -0.910  51.557  1.00  0.00    -0.144 F 
ENDBRANCH  22  23
ENDBRANCH  10  22
TORSDOF 6
ENDMDL
