MODEL 1
REMARK VINA RESULT:      -8.0      0.000      0.000
REMARK  9 active torsions:
REMARK  status: ('A' for Active; 'I' for Inactive)
REMARK    1  A    between atoms: C2_2  and  N1_3 
REMARK    2  A    between atoms: N1_3  and  C4_5 
REMARK    3  A    between atoms: C4_5  and  S1_6 
REMARK    4  A    between atoms: S1_6  and  C5_7 
REMARK    5  A    between atoms: C6_8  and  C7_9 
REMARK       I    between atoms: C7_9  and  N2_11 
REMARK    6  A    between atoms: N2_11  and  C8_12 
REMARK    7  A    between atoms: C13_19  and  C14_20 
REMARK    8  A    between atoms: C14_20  and  N5_21 
REMARK    9  A    between atoms: N5_21  and  C15_22 
ROOT
HETATM    1  C8  UNL     1      21.911   1.079  52.902  1.00  0.00     0.062 C 
HETATM    2  C9  UNL     1      20.677   0.551  53.036  1.00  0.00     0.033 C 
HETATM    3  C10 UNL     1      20.182  -0.785  53.443  1.00  0.00     0.022 C 
HETATM    4  C11 UNL     1      20.757  -1.608  54.291  1.00  0.00     0.118 C 
HETATM    5  N3  UNL     1      21.930  -1.602  55.084  1.00  0.00    -0.254 NA
HETATM    6  C12 UNL     1      23.109  -1.091  55.034  1.00  0.00     0.232 C 
HETATM    7  N4  UNL     1      23.638  -0.266  54.010  1.00  0.00    -0.242 NA
HETATM    8  C13 UNL     1      23.276   0.609  53.124  1.00  0.00     0.080 C 
ENDROOT
BRANCH   1   9
HETATM    9  N2  UNL     1      21.845   2.429  52.476  1.00  0.00    -0.314 N 
HETATM   10  C7  UNL     1      21.232   3.662  52.160  1.00  0.00     0.301 C 
HETATM   11  O1  UNL     1      19.998   3.583  52.362  1.00  0.00    -0.258 OA
HETATM   12  H11 UNL     1      22.898   2.498  52.288  1.00  0.00     0.170 HD
BRANCH  10  13
HETATM   13  C6  UNL     1      21.931   4.816  51.685  1.00  0.00     0.007 C 
HETATM   14  C5  UNL     1      22.530   5.779  51.274  1.00  0.00    -0.022 C 
BRANCH  14  15
HETATM   15  S1  UNL     1      23.404   7.179  50.643  1.00  0.00    -0.048 SA
BRANCH  15  16
HETATM   16  C4  UNL     1      25.187   6.766  50.630  1.00  0.00     0.359 C 
BRANCH  16  17
HETATM   17  N1  UNL     1      25.360   5.784  49.589  1.00  0.00     0.093 N 
HETATM   18  C3  UNL     1      26.340   6.218  48.618  1.00  0.00     0.310 C 
BRANCH  17  19
HETATM   19  C2  UNL     1      25.670   4.470  50.119  1.00  0.00     0.268 C 
HETATM   20  C1  UNL     1      24.819   3.403  49.505  1.00  0.00     0.037 C 
ENDBRANCH  17  19
ENDBRANCH  16  17
ENDBRANCH  15  16
ENDBRANCH  14  15
ENDBRANCH  10  13
ENDBRANCH   1   9
BRANCH   8  21
HETATM   21  C14 UNL     1      24.349   1.141  52.294  1.00  0.00     0.181 C 
BRANCH  21  22
HETATM   22  N5  UNL     1      25.547   1.559  52.941  1.00  0.00    -0.384 N 
HETATM   23  H18 UNL     1      25.556   2.491  53.411  1.00  0.00     0.160 HD
BRANCH  22  24
HETATM   24  C15 UNL     1      26.824   0.966  53.130  1.00  0.00     0.030 A 
HETATM   25  C16 UNL     1      27.989   1.651  53.499  1.00  0.00     0.032 A 
HETATM   26  C17 UNL     1      29.197   1.031  53.688  1.00  0.00     0.046 A 
HETATM   27  C18 UNL     1      29.342  -0.307  53.527  1.00  0.00     0.138 A 
HETATM   28  F1  UNL     1      30.557  -0.824  53.734  1.00  0.00    -0.204 F 
HETATM   29  C19 UNL     1      28.234  -1.053  53.163  1.00  0.00     0.074 A 
HETATM   30 CL1  UNL     1      28.465  -2.767  52.967  1.00  0.00    -0.081 Cl
HETATM   31  C20 UNL     1      27.043  -0.384  52.985  1.00  0.00     0.056 A 
ENDBRANCH  22  24
ENDBRANCH  21  22
ENDBRANCH   8  21
TORSDOF 9
ENDMDL
MODEL 2
REMARK VINA RESULT:      -7.9      3.795      7.242
REMARK  9 active torsions:
REMARK  status: ('A' for Active; 'I' for Inactive)
REMARK    1  A    between atoms: C2_2  and  N1_3 
REMARK    2  A    between atoms: N1_3  and  C4_5 
REMARK    3  A    between atoms: C4_5  and  S1_6 
REMARK    4  A    between atoms: S1_6  and  C5_7 
REMARK    5  A    between atoms: C6_8  and  C7_9 
REMARK       I    between atoms: C7_9  and  N2_11 
REMARK    6  A    between atoms: N2_11  and  C8_12 
REMARK    7  A    between atoms: C13_19  and  C14_20 
REMARK    8  A    between atoms: C14_20  and  N5_21 
REMARK    9  A    between atoms: N5_21  and  C15_22 
ROOT
HETATM    1  C8  UNL     1      25.665  -0.060  53.290  1.00  0.00     0.062 C 
HETATM    2  C9  UNL     1      26.129  -1.257  52.876  1.00  0.00     0.033 C 
HETATM    3  C10 UNL     1      27.491  -1.802  52.667  1.00  0.00     0.022 C 
HETATM    4  C11 UNL     1      28.575  -1.478  53.335  1.00  0.00     0.118 C 
HETATM    5  N3  UNL     1      28.895  -0.598  54.396  1.00  0.00    -0.254 NA
HETATM    6  C12 UNL     1      28.471   0.523  54.863  1.00  0.00     0.232 C 
HETATM    7  N4  UNL     1      27.399   1.304  54.364  1.00  0.00    -0.242 NA
HETATM    8  C13 UNL     1      26.267   1.192  53.740  1.00  0.00     0.080 C 
ENDROOT
BRANCH   1   9
HETATM    9  N2  UNL     1      24.249  -0.044  53.321  1.00  0.00    -0.314 N 
HETATM   10  C7  UNL     1      22.956  -0.385  53.778  1.00  0.00     0.301 C 
HETATM   11  O1  UNL     1      23.046  -1.177  54.745  1.00  0.00    -0.258 OA
HETATM   12  H11 UNL     1      24.164   0.621  52.484  1.00  0.00     0.170 HD
BRANCH  10  13
HETATM   13  C6  UNL     1      21.739   0.108  53.210  1.00  0.00     0.007 C 
HETATM   14  C5  UNL     1      20.715   0.513  52.718  1.00  0.00    -0.022 C 
BRANCH  14  15
HETATM   15  S1  UNL     1      19.205   1.077  51.995  1.00  0.00    -0.048 SA
BRANCH  15  16
HETATM   16  C4  UNL     1      18.190  -0.393  51.601  1.00  0.00     0.359 C 
BRANCH  16  17
HETATM   17  N1  UNL     1      17.508  -0.744  52.823  1.00  0.00     0.093 N 
HETATM   18  C3  UNL     1      16.110  -1.024  52.580  1.00  0.00     0.310 C 
BRANCH  17  19
HETATM   19  C2  UNL     1      18.162  -1.833  53.523  1.00  0.00     0.268 C 
HETATM   20  C1  UNL     1      17.363  -3.097  53.465  1.00  0.00     0.037 C 
ENDBRANCH  17  19
ENDBRANCH  16  17
ENDBRANCH  15  16
ENDBRANCH  14  15
ENDBRANCH  10  13
ENDBRANCH   1   9
BRANCH   8  21
HETATM   21  C14 UNL     1      25.568   2.444  53.481  1.00  0.00     0.181 C 
BRANCH  21  22
HETATM   22  N5  UNL     1      25.739   3.050  52.204  1.00  0.00    -0.384 N 
HETATM   23  H18 UNL     1      26.669   3.464  51.973  1.00  0.00     0.160 HD
BRANCH  22  24
HETATM   24  C15 UNL     1      24.893   3.230  51.076  1.00  0.00     0.030 A 
HETATM   25  C16 UNL     1      24.974   4.288  50.162  1.00  0.00     0.032 A 
HETATM   26  C17 UNL     1      24.145   4.409  49.077  1.00  0.00     0.046 A 
HETATM   27  C18 UNL     1      23.179   3.494  48.815  1.00  0.00     0.138 A 
HETATM   28  F1  UNL     1      22.420   3.694  47.733  1.00  0.00    -0.204 F 
HETATM   29  C19 UNL     1      23.038   2.418  49.674  1.00  0.00     0.074 A 
HETATM   30 CL1  UNL     1      21.785   1.269  49.301  1.00  0.00    -0.081 Cl
HETATM   31  C20 UNL     1      23.894   2.342  50.750  1.00  0.00     0.056 A 
ENDBRANCH  22  24
ENDBRANCH  21  22
ENDBRANCH   8  21
TORSDOF 9
ENDMDL
MODEL 3
REMARK VINA RESULT:      -7.9      3.668      6.277
REMARK  9 active torsions:
REMARK  status: ('A' for Active; 'I' for Inactive)
REMARK    1  A    between atoms: C2_2  and  N1_3 
REMARK    2  A    between atoms: N1_3  and  C4_5 
REMARK    3  A    between atoms: C4_5  and  S1_6 
REMARK    4  A    between atoms: S1_6  and  C5_7 
REMARK    5  A    between atoms: C6_8  and  C7_9 
REMARK       I    between atoms: C7_9  and  N2_11 
REMARK    6  A    between atoms: N2_11  and  C8_12 
REMARK    7  A    between atoms: C13_19  and  C14_20 
REMARK    8  A    between atoms: C14_20  and  N5_21 
REMARK    9  A    between atoms: N5_21  and  C15_22 
ROOT
HETATM    1  C8  UNL     1      25.556  -0.064  53.161  1.00  0.00     0.062 C 
HETATM    2  C9  UNL     1      26.079  -1.243  52.765  1.00  0.00     0.033 C 
HETATM    3  C10 UNL     1      27.467  -1.742  52.621  1.00  0.00     0.022 C 
HETATM    4  C11 UNL     1      28.505  -1.387  53.345  1.00  0.00     0.118 C 
HETATM    5  N3  UNL     1      28.742  -0.505  54.425  1.00  0.00    -0.254 NA
HETATM    6  C12 UNL     1      28.259   0.598  54.877  1.00  0.00     0.232 C 
HETATM    7  N4  UNL     1      27.188   1.347  54.329  1.00  0.00    -0.242 NA
HETATM    8  C13 UNL     1      26.093   1.203  53.649  1.00  0.00     0.080 C 
ENDROOT
BRANCH   1   9
HETATM    9  N2  UNL     1      24.140  -0.095  53.121  1.00  0.00    -0.314 N 
HETATM   10  C7  UNL     1      22.835  -0.408  53.563  1.00  0.00     0.301 C 
HETATM   11  O1  UNL     1      22.896  -1.037  54.645  1.00  0.00    -0.258 OA
HETATM   12  H11 UNL     1      24.081   0.430  52.188  1.00  0.00     0.170 HD
BRANCH  10  13
HETATM   13  C6  UNL     1      21.637  -0.053  52.868  1.00  0.00     0.007 C 
HETATM   14  C5  UNL     1      20.620   0.231  52.284  1.00  0.00    -0.022 C 
BRANCH  14  15
HETATM   15  S1  UNL     1      19.115   0.636  51.452  1.00  0.00    -0.048 SA
BRANCH  15  16
HETATM   16  C4  UNL     1      18.830   2.433  51.655  1.00  0.00     0.359 C 
BRANCH  16  17
HETATM   17  N1  UNL     1      19.652   3.080  50.662  1.00  0.00     0.093 N 
HETATM   18  C3  UNL     1      18.915   3.303  49.438  1.00  0.00     0.310 C 
BRANCH  17  19
HETATM   19  C2  UNL     1      20.253   4.303  51.159  1.00  0.00     0.268 C 
HETATM   20  C1  UNL     1      21.230   4.038  52.262  1.00  0.00     0.037 C 
ENDBRANCH  17  19
ENDBRANCH  16  17
ENDBRANCH  15  16
ENDBRANCH  14  15
ENDBRANCH  10  13
ENDBRANCH   1   9
BRANCH   8  21
HETATM   21  C14 UNL     1      25.367   2.434  53.362  1.00  0.00     0.181 C 
BRANCH  21  22
HETATM   22  N5  UNL     1      25.552   3.034  52.084  1.00  0.00    -0.384 N 
HETATM   23  H18 UNL     1      26.494   3.418  51.850  1.00  0.00     0.160 HD
BRANCH  22  24
HETATM   24  C15 UNL     1      24.708   3.240  50.959  1.00  0.00     0.030 A 
HETATM   25  C16 UNL     1      24.686   4.391  50.162  1.00  0.00     0.032 A 
HETATM   26  C17 UNL     1      23.866   4.536  49.074  1.00  0.00     0.046 A 
HETATM   27  C18 UNL     1      23.011   3.555  48.693  1.00  0.00     0.138 A 
HETATM   28  F1  UNL     1      22.251   3.784  47.617  1.00  0.00    -0.204 F 
HETATM   29  C19 UNL     1      22.977   2.385  49.432  1.00  0.00     0.074 A 
HETATM   30 CL1  UNL     1      21.864   1.153  48.908  1.00  0.00    -0.081 Cl
HETATM   31  C20 UNL     1      23.819   2.288  50.516  1.00  0.00     0.056 A 
ENDBRANCH  22  24
ENDBRANCH  21  22
ENDBRANCH   8  21
TORSDOF 9
ENDMDL
MODEL 4
REMARK VINA RESULT:      -7.7      3.807      6.678
REMARK  9 active torsions:
REMARK  status: ('A' for Active; 'I' for Inactive)
REMARK    1  A    between atoms: C2_2  and  N1_3 
REMARK    2  A    between atoms: N1_3  and  C4_5 
REMARK    3  A    between atoms: C4_5  and  S1_6 
REMARK    4  A    between atoms: S1_6  and  C5_7 
REMARK    5  A    between atoms: C6_8  and  C7_9 
REMARK       I    between atoms: C7_9  and  N2_11 
REMARK    6  A    between atoms: N2_11  and  C8_12 
REMARK    7  A    between atoms: C13_19  and  C14_20 
REMARK    8  A    between atoms: C14_20  and  N5_21 
REMARK    9  A    between atoms: N5_21  and  C15_22 
ROOT
HETATM    1  C8  UNL     1      26.257   0.260  52.692  1.00  0.00     0.062 C 
HETATM    2  C9  UNL     1      26.858  -0.887  53.067  1.00  0.00     0.033 C 
HETATM    3  C10 UNL     1      28.277  -1.295  53.198  1.00  0.00     0.022 C 
HETATM    4  C11 UNL     1      29.288  -0.520  53.520  1.00  0.00     0.118 C 
HETATM    5  N3  UNL     1      29.464   0.848  53.838  1.00  0.00    -0.254 NA
HETATM    6  C12 UNL     1      28.907   1.971  53.552  1.00  0.00     0.232 C 
HETATM    7  N4  UNL     1      27.789   2.177  52.705  1.00  0.00    -0.242 NA
HETATM    8  C13 UNL     1      26.706   1.591  52.294  1.00  0.00     0.080 C 
ENDROOT
BRANCH   1   9
HETATM    9  N2  UNL     1      24.846   0.134  52.734  1.00  0.00    -0.314 N 
HETATM   10  C7  UNL     1      23.590  -0.224  53.273  1.00  0.00     0.301 C 
HETATM   11  O1  UNL     1      23.749  -0.755  54.397  1.00  0.00    -0.258 OA
HETATM   12  H11 UNL     1      24.704   0.574  51.767  1.00  0.00     0.170 HD
BRANCH  10  13
HETATM   13  C6  UNL     1      22.336  -0.007  52.620  1.00  0.00     0.007 C 
HETATM   14  C5  UNL     1      21.272   0.181  52.084  1.00  0.00    -0.022 C 
BRANCH  14  15
HETATM   15  S1  UNL     1      19.712   0.484  51.311  1.00  0.00    -0.048 SA
BRANCH  15  16
HETATM   16  C4  UNL     1      19.401   2.287  51.368  1.00  0.00     0.359 C 
BRANCH  16  17
HETATM   17  N1  UNL     1      20.677   2.917  51.133  1.00  0.00     0.093 N 
HETATM   18  C3  UNL     1      20.722   3.537  49.827  1.00  0.00     0.310 C 
BRANCH  17  19
HETATM   19  C2  UNL     1      21.030   3.851  52.185  1.00  0.00     0.268 C 
HETATM   20  C1  UNL     1      22.501   4.130  52.217  1.00  0.00     0.037 C 
ENDBRANCH  17  19
ENDBRANCH  16  17
ENDBRANCH  15  16
ENDBRANCH  14  15
ENDBRANCH  10  13
ENDBRANCH   1   9
BRANCH   8  21
HETATM   21  C14 UNL     1      25.900   2.356  51.351  1.00  0.00     0.181 C 
BRANCH  21  22
HETATM   22  N5  UNL     1      26.549   2.896  50.205  1.00  0.00    -0.384 N 
HETATM   23  H18 UNL     1      27.231   2.293  49.692  1.00  0.00     0.160 HD
BRANCH  22  24
HETATM   24  C15 UNL     1      26.480   4.143  49.527  1.00  0.00     0.030 A 
HETATM   25  C16 UNL     1      25.331   4.933  49.398  1.00  0.00     0.032 A 
HETATM   26  C17 UNL     1      25.317   6.141  48.750  1.00  0.00     0.046 A 
HETATM   27  C18 UNL     1      26.437   6.655  48.183  1.00  0.00     0.138 A 
HETATM   28  F1  UNL     1      26.329   7.840  47.574  1.00  0.00    -0.204 F 
HETATM   29  C19 UNL     1      27.614   5.932  48.271  1.00  0.00     0.074 A 
HETATM   30 CL1  UNL     1      29.026   6.629  47.529  1.00  0.00    -0.081 Cl
HETATM   31  C20 UNL     1      27.575   4.725  48.931  1.00  0.00     0.056 A 
ENDBRANCH  22  24
ENDBRANCH  21  22
ENDBRANCH   8  21
TORSDOF 9
ENDMDL
MODEL 5
REMARK VINA RESULT:      -7.7      3.739      6.288
REMARK  9 active torsions:
REMARK  status: ('A' for Active; 'I' for Inactive)
REMARK    1  A    between atoms: C2_2  and  N1_3 
REMARK    2  A    between atoms: N1_3  and  C4_5 
REMARK    3  A    between atoms: C4_5  and  S1_6 
REMARK    4  A    between atoms: S1_6  and  C5_7 
REMARK    5  A    between atoms: C6_8  and  C7_9 
REMARK       I    between atoms: C7_9  and  N2_11 
REMARK    6  A    between atoms: N2_11  and  C8_12 
REMARK    7  A    between atoms: C13_19  and  C14_20 
REMARK    8  A    between atoms: C14_20  and  N5_21 
REMARK    9  A    between atoms: N5_21  and  C15_22 
ROOT
HETATM    1  C8  UNL     1      26.922   2.067  52.350  1.00  0.00     0.062 C 
HETATM    2  C9  UNL     1      28.087   2.314  52.984  1.00  0.00     0.033 C 
HETATM    3  C10 UNL     1      28.832   1.610  54.054  1.00  0.00     0.022 C 
HETATM    4  C11 UNL     1      28.850   0.314  54.272  1.00  0.00     0.118 C 
HETATM    5  N3  UNL     1      28.261  -0.828  53.681  1.00  0.00    -0.254 NA
HETATM    6  C12 UNL     1      27.188  -1.119  53.035  1.00  0.00     0.232 C 
HETATM    7  N4  UNL     1      26.138  -0.234  52.683  1.00  0.00    -0.242 NA
HETATM    8  C13 UNL     1      25.914   1.011  52.396  1.00  0.00     0.080 C 
ENDROOT
BRANCH   1   9
HETATM    9  N2  UNL     1      26.645   3.066  51.384  1.00  0.00    -0.314 N 
HETATM   10  C7  UNL     1      26.503   3.618  50.091  1.00  0.00     0.301 C 
HETATM   11  O1  UNL     1      26.764   2.747  49.229  1.00  0.00    -0.258 OA
HETATM   12  H11 UNL     1      26.434   3.820  52.116  1.00  0.00     0.170 HD
BRANCH  10  13
HETATM   13  C6  UNL     1      26.120   4.971  49.825  1.00  0.00     0.007 C 
HETATM   14  C5  UNL     1      25.812   6.114  49.594  1.00  0.00    -0.022 C 
BRANCH  14  15
HETATM   15  S1  UNL     1      25.370   7.784  49.227  1.00  0.00    -0.048 SA
BRANCH  15  16
HETATM   16  C4  UNL     1      26.729   8.519  48.246  1.00  0.00     0.359 C 
BRANCH  16  17
HETATM   17  N1  UNL     1      27.943   8.228  48.968  1.00  0.00     0.093 N 
HETATM   18  C3  UNL     1      28.907   7.559  48.123  1.00  0.00     0.310 C 
BRANCH  17  19
HETATM   19  C2  UNL     1      28.504   9.407  49.597  1.00  0.00     0.268 C 
HETATM   20  C1  UNL     1      29.976   9.528  49.350  1.00  0.00     0.037 C 
ENDBRANCH  17  19
ENDBRANCH  16  17
ENDBRANCH  15  16
ENDBRANCH  14  15
ENDBRANCH  10  13
ENDBRANCH   1   9
BRANCH   8  21
HETATM   21  C14 UNL     1      24.527   1.348  52.107  1.00  0.00     0.181 C 
BRANCH  21  22
HETATM   22  N5  UNL     1      23.575   1.209  53.157  1.00  0.00    -0.384 N 
HETATM   23  H18 UNL     1      23.631   1.868  53.966  1.00  0.00     0.160 HD
BRANCH  22  24
HETATM   24  C15 UNL     1      22.475   0.338  53.384  1.00  0.00     0.030 A 
HETATM   25  C16 UNL     1      22.469  -0.746  54.270  1.00  0.00     0.032 A 
HETATM   26  C17 UNL     1      21.375  -1.548  54.469  1.00  0.00     0.046 A 
HETATM   27  C18 UNL     1      20.210  -1.338  53.808  1.00  0.00     0.138 A 
HETATM   28  F1  UNL     1      19.197  -2.170  54.068  1.00  0.00    -0.204 F 
HETATM   29  C19 UNL     1      20.139  -0.283  52.915  1.00  0.00     0.074 A 
HETATM   30 CL1  UNL     1      18.625  -0.050  52.088  1.00  0.00    -0.081 Cl
HETATM   31  C20 UNL     1      21.264   0.493  52.750  1.00  0.00     0.056 A 
ENDBRANCH  22  24
ENDBRANCH  21  22
ENDBRANCH   8  21
TORSDOF 9
ENDMDL
MODEL 6
REMARK VINA RESULT:      -7.5      2.090      6.399
REMARK  9 active torsions:
REMARK  status: ('A' for Active; 'I' for Inactive)
REMARK    1  A    between atoms: C2_2  and  N1_3 
REMARK    2  A    between atoms: N1_3  and  C4_5 
REMARK    3  A    between atoms: C4_5  and  S1_6 
REMARK    4  A    between atoms: S1_6  and  C5_7 
REMARK    5  A    between atoms: C6_8  and  C7_9 
REMARK       I    between atoms: C7_9  and  N2_11 
REMARK    6  A    between atoms: N2_11  and  C8_12 
REMARK    7  A    between atoms: C13_19  and  C14_20 
REMARK    8  A    between atoms: C14_20  and  N5_21 
REMARK    9  A    between atoms: N5_21  and  C15_22 
ROOT
HETATM    1  C8  UNL     1      25.269   5.554  49.917  1.00  0.00     0.062 C 
HETATM    2  C9  UNL     1      25.217   6.894  50.057  1.00  0.00     0.033 C 
HETATM    3  C10 UNL     1      26.245   7.961  50.021  1.00  0.00     0.022 C 
HETATM    4  C11 UNL     1      27.352   7.957  49.311  1.00  0.00     0.118 C 
HETATM    5  N3  UNL     1      27.975   7.074  48.398  1.00  0.00    -0.254 NA
HETATM    6  C12 UNL     1      28.031   5.807  48.187  1.00  0.00     0.232 C 
HETATM    7  N4  UNL     1      27.380   4.790  48.929  1.00  0.00    -0.242 NA
HETATM    8  C13 UNL     1      26.315   4.575  49.638  1.00  0.00     0.080 C 
ENDROOT
BRANCH   1   9
HETATM    9  N2  UNL     1      23.980   4.978  50.039  1.00  0.00    -0.314 N 
HETATM   10  C7  UNL     1      22.625   4.745  49.711  1.00  0.00     0.301 C 
HETATM   11  O1  UNL     1      22.310   5.432  48.711  1.00  0.00    -0.258 OA
HETATM   12  H11 UNL     1      24.239   4.399  50.903  1.00  0.00     0.170 HD
BRANCH  10  13
HETATM   13  C6  UNL     1      21.760   3.856  50.423  1.00  0.00     0.007 C 
HETATM   14  C5  UNL     1      21.039   3.094  51.018  1.00  0.00    -0.022 C 
BRANCH  14  15
HETATM   15  S1  UNL     1      20.008   1.962  51.900  1.00  0.00    -0.048 SA
BRANCH  15  16
HETATM   16  C4  UNL     1      20.848   0.336  51.916  1.00  0.00     0.359 C 
BRANCH  16  17
HETATM   17  N1  UNL     1      21.437   0.206  53.226  1.00  0.00     0.093 N 
HETATM   18  C3  UNL     1      20.812  -0.859  53.978  1.00  0.00     0.310 C 
BRANCH  17  19
HETATM   19  C2  UNL     1      22.878   0.051  53.167  1.00  0.00     0.268 C 
HETATM   20  C1  UNL     1      23.582   1.370  53.102  1.00  0.00     0.037 C 
ENDBRANCH  17  19
ENDBRANCH  16  17
ENDBRANCH  15  16
ENDBRANCH  14  15
ENDBRANCH  10  13
ENDBRANCH   1   9
BRANCH   8  21
HETATM   21  C14 UNL     1      26.191   3.232  50.190  1.00  0.00     0.181 C 
BRANCH  21  22
HETATM   22  N5  UNL     1      26.525   3.042  51.561  1.00  0.00    -0.384 N 
HETATM   23  H18 UNL     1      26.212   3.761  52.251  1.00  0.00     0.160 HD
BRANCH  22  24
HETATM   24  C15 UNL     1      27.220   2.029  52.276  1.00  0.00     0.030 A 
HETATM   25  C16 UNL     1      28.258   2.249  53.189  1.00  0.00     0.032 A 
HETATM   26  C17 UNL     1      28.886   1.238  53.870  1.00  0.00     0.046 A 
HETATM   27  C18 UNL     1      28.534  -0.060  53.700  1.00  0.00     0.138 A 
HETATM   28  F1  UNL     1      29.200  -0.977  54.408  1.00  0.00    -0.204 F 
HETATM   29  C19 UNL     1      27.513  -0.356  52.813  1.00  0.00     0.074 A 
HETATM   30 CL1  UNL     1      27.093  -2.035  52.625  1.00  0.00    -0.081 Cl
HETATM   31  C20 UNL     1      26.914   0.693  52.153  1.00  0.00     0.056 A 
ENDBRANCH  22  24
ENDBRANCH  21  22
ENDBRANCH   8  21
TORSDOF 9
ENDMDL
MODEL 7
REMARK VINA RESULT:      -7.5      3.616      6.356
REMARK  9 active torsions:
REMARK  status: ('A' for Active; 'I' for Inactive)
REMARK    1  A    between atoms: C2_2  and  N1_3 
REMARK    2  A    between atoms: N1_3  and  C4_5 
REMARK    3  A    between atoms: C4_5  and  S1_6 
REMARK    4  A    between atoms: S1_6  and  C5_7 
REMARK    5  A    between atoms: C6_8  and  C7_9 
REMARK       I    between atoms: C7_9  and  N2_11 
REMARK    6  A    between atoms: N2_11  and  C8_12 
REMARK    7  A    between atoms: C13_19  and  C14_20 
REMARK    8  A    between atoms: C14_20  and  N5_21 
REMARK    9  A    between atoms: N5_21  and  C15_22 
ROOT
HETATM    1  C8  UNL     1      26.920   1.969  52.464  1.00  0.00     0.062 C 
HETATM    2  C9  UNL     1      28.057   2.442  53.014  1.00  0.00     0.033 C 
HETATM    3  C10 UNL     1      29.028   1.881  53.982  1.00  0.00     0.022 C 
HETATM    4  C11 UNL     1      29.343   0.613  54.129  1.00  0.00     0.118 C 
HETATM    5  N3  UNL     1      28.962  -0.609  53.527  1.00  0.00    -0.254 NA
HETATM    6  C12 UNL     1      27.922  -1.104  52.955  1.00  0.00     0.232 C 
HETATM    7  N4  UNL     1      26.680  -0.457  52.736  1.00  0.00    -0.242 NA
HETATM    8  C13 UNL     1      26.170   0.719  52.535  1.00  0.00     0.080 C 
ENDROOT
BRANCH   1   9
HETATM    9  N2  UNL     1      26.349   2.916  51.578  1.00  0.00    -0.314 N 
HETATM   10  C7  UNL     1      26.220   3.669  50.389  1.00  0.00     0.301 C 
HETATM   11  O1  UNL     1      27.130   3.351  49.588  1.00  0.00    -0.258 OA
HETATM   12  H11 UNL     1      25.577   3.203  52.264  1.00  0.00     0.170 HD
BRANCH  10  13
HETATM   13  C6  UNL     1      25.198   4.642  50.153  1.00  0.00     0.007 C 
HETATM   14  C5  UNL     1      24.338   5.468  49.971  1.00  0.00    -0.022 C 
BRANCH  14  15
HETATM   15  S1  UNL     1      23.097   6.699  49.715  1.00  0.00    -0.048 SA
BRANCH  15  16
HETATM   16  C4  UNL     1      21.823   6.486  51.012  1.00  0.00     0.359 C 
BRANCH  16  17
HETATM   17  N1  UNL     1      20.744   5.755  50.393  1.00  0.00     0.093 N 
HETATM   18  C3  UNL     1      20.842   5.799  48.951  1.00  0.00     0.310 C 
BRANCH  17  19
HETATM   19  C2  UNL     1      20.649   4.395  50.886  1.00  0.00     0.268 C 
HETATM   20  C1  UNL     1      21.552   4.158  52.056  1.00  0.00     0.037 C 
ENDBRANCH  17  19
ENDBRANCH  16  17
ENDBRANCH  15  16
ENDBRANCH  14  15
ENDBRANCH  10  13
ENDBRANCH   1   9
BRANCH   8  21
HETATM   21  C14 UNL     1      24.722   0.754  52.377  1.00  0.00     0.181 C 
BRANCH  21  22
HETATM   22  N5  UNL     1      23.932   0.025  53.310  1.00  0.00    -0.384 N 
HETATM   23  H18 UNL     1      24.403  -0.373  54.153  1.00  0.00     0.160 HD
BRANCH  22  24
HETATM   24  C15 UNL     1      22.552  -0.306  53.389  1.00  0.00     0.030 A 
HETATM   25  C16 UNL     1      21.999  -1.284  54.224  1.00  0.00     0.032 A 
HETATM   26  C17 UNL     1      20.657  -1.555  54.279  1.00  0.00     0.046 A 
HETATM   27  C18 UNL     1      19.764  -0.879  53.515  1.00  0.00     0.138 A 
HETATM   28  F1  UNL     1      18.475  -1.210  53.636  1.00  0.00    -0.204 F 
HETATM   29  C19 UNL     1      20.235   0.106  52.663  1.00  0.00     0.074 A 
HETATM   30 CL1  UNL     1      19.055   0.948  51.700  1.00  0.00    -0.081 Cl
HETATM   31  C20 UNL     1      21.592   0.339  52.645  1.00  0.00     0.056 A 
ENDBRANCH  22  24
ENDBRANCH  21  22
ENDBRANCH   8  21
TORSDOF 9
ENDMDL
MODEL 8
REMARK VINA RESULT:      -7.5      3.125      4.541
REMARK  9 active torsions:
REMARK  status: ('A' for Active; 'I' for Inactive)
REMARK    1  A    between atoms: C2_2  and  N1_3 
REMARK    2  A    between atoms: N1_3  and  C4_5 
REMARK    3  A    between atoms: C4_5  and  S1_6 
REMARK    4  A    between atoms: S1_6  and  C5_7 
REMARK    5  A    between atoms: C6_8  and  C7_9 
REMARK       I    between atoms: C7_9  and  N2_11 
REMARK    6  A    between atoms: N2_11  and  C8_12 
REMARK    7  A    between atoms: C13_19  and  C14_20 
REMARK    8  A    between atoms: C14_20  and  N5_21 
REMARK    9  A    between atoms: N5_21  and  C15_22 
ROOT
HETATM    1  C8  UNL     1      23.588   3.057  49.919  1.00  0.00     0.062 C 
HETATM    2  C9  UNL     1      23.089   2.351  48.884  1.00  0.00     0.033 C 
HETATM    3  C10 UNL     1      21.807   1.640  48.663  1.00  0.00     0.022 C 
HETATM    4  C11 UNL     1      20.636   1.964  49.164  1.00  0.00     0.118 C 
HETATM    5  N3  UNL     1      20.134   2.980  50.011  1.00  0.00    -0.254 NA
HETATM    6  C12 UNL     1      20.565   3.713  50.976  1.00  0.00     0.232 C 
HETATM    7  N4  UNL     1      21.865   3.700  51.542  1.00  0.00    -0.242 NA
HETATM    8  C13 UNL     1      23.103   3.464  51.234  1.00  0.00     0.080 C 
ENDROOT
BRANCH   1   9
HETATM    9  N2  UNL     1      24.887   3.543  49.625  1.00  0.00    -0.314 N 
HETATM   10  C7  UNL     1      26.300   3.540  49.601  1.00  0.00     0.301 C 
HETATM   11  O1  UNL     1      26.729   2.504  50.159  1.00  0.00    -0.258 OA
HETATM   12  H11 UNL     1      24.527   4.439  49.159  1.00  0.00     0.170 HD
BRANCH  10  13
HETATM   13  C6  UNL     1      27.102   4.573  49.023  1.00  0.00     0.007 C 
HETATM   14  C5  UNL     1      27.770   5.444  48.521  1.00  0.00    -0.022 C 
BRANCH  14  15
HETATM   15  S1  UNL     1      28.721   6.735  47.780  1.00  0.00    -0.048 SA
BRANCH  15  16
HETATM   16  C4  UNL     1      27.750   8.282  47.895  1.00  0.00     0.359 C 
BRANCH  16  17
HETATM   17  N1  UNL     1      27.288   8.360  49.259  1.00  0.00     0.093 N 
HETATM   18  C3  UNL     1      27.942   9.435  49.972  1.00  0.00     0.310 C 
BRANCH  17  19
HETATM   19  C2  UNL     1      25.843   8.457  49.344  1.00  0.00     0.268 C 
HETATM   20  C1  UNL     1      25.278   7.520  50.366  1.00  0.00     0.037 C 
ENDBRANCH  17  19
ENDBRANCH  16  17
ENDBRANCH  15  16
ENDBRANCH  14  15
ENDBRANCH  10  13
ENDBRANCH   1   9
BRANCH   8  21
HETATM   21  C14 UNL     1      24.060   3.624  52.321  1.00  0.00     0.181 C 
BRANCH  21  22
HETATM   22  N5  UNL     1      24.381   2.476  53.100  1.00  0.00    -0.384 N 
HETATM   23  H18 UNL     1      23.705   2.173  53.837  1.00  0.00     0.160 HD
BRANCH  22  24
HETATM   24  C15 UNL     1      25.471   1.564  53.112  1.00  0.00     0.030 A 
HETATM   25  C16 UNL     1      25.454   0.274  52.568  1.00  0.00     0.032 A 
HETATM   26  C17 UNL     1      26.539  -0.563  52.587  1.00  0.00     0.046 A 
HETATM   27  C18 UNL     1      27.717  -0.188  53.143  1.00  0.00     0.138 A 
HETATM   28  F1  UNL     1      28.721  -1.070  53.114  1.00  0.00    -0.204 F 
HETATM   29  C19 UNL     1      27.811   1.076  53.701  1.00  0.00     0.074 A 
HETATM   30 CL1  UNL     1      29.341   1.516  54.404  1.00  0.00    -0.081 Cl
HETATM   31  C20 UNL     1      26.694   1.879  53.657  1.00  0.00     0.056 A 
ENDBRANCH  22  24
ENDBRANCH  21  22
ENDBRANCH   8  21
TORSDOF 9
ENDMDL
MODEL 9
REMARK VINA RESULT:      -7.4      3.797      6.307
REMARK  9 active torsions:
REMARK  status: ('A' for Active; 'I' for Inactive)
REMARK    1  A    between atoms: C2_2  and  N1_3 
REMARK    2  A    between atoms: N1_3  and  C4_5 
REMARK    3  A    between atoms: C4_5  and  S1_6 
REMARK    4  A    between atoms: S1_6  and  C5_7 
REMARK    5  A    between atoms: C6_8  and  C7_9 
REMARK       I    between atoms: C7_9  and  N2_11 
REMARK    6  A    between atoms: N2_11  and  C8_12 
REMARK    7  A    between atoms: C13_19  and  C14_20 
REMARK    8  A    between atoms: C14_20  and  N5_21 
REMARK    9  A    between atoms: N5_21  and  C15_22 
ROOT
HETATM    1  C8  UNL     1      26.955   2.376  52.559  1.00  0.00     0.062 C 
HETATM    2  C9  UNL     1      28.248   2.258  52.923  1.00  0.00     0.033 C 
HETATM    3  C10 UNL     1      28.929   1.579  54.051  1.00  0.00     0.022 C 
HETATM    4  C11 UNL     1      28.533   0.482  54.658  1.00  0.00     0.118 C 
HETATM    5  N3  UNL     1      27.447  -0.416  54.536  1.00  0.00    -0.254 NA
HETATM    6  C12 UNL     1      26.218  -0.377  54.162  1.00  0.00     0.232 C 
HETATM    7  N4  UNL     1      25.504   0.756  53.694  1.00  0.00    -0.242 NA
HETATM    8  C13 UNL     1      25.680   1.877  53.066  1.00  0.00     0.080 C 
ENDROOT
BRANCH   1   9
HETATM    9  N2  UNL     1      26.826   3.145  51.376  1.00  0.00    -0.314 N 
HETATM   10  C7  UNL     1      26.377   3.458  50.073  1.00  0.00     0.301 C 
HETATM   11  O1  UNL     1      25.633   2.542  49.652  1.00  0.00    -0.258 OA
HETATM   12  H11 UNL     1      27.474   3.925  51.724  1.00  0.00     0.170 HD
BRANCH  10  13
HETATM   13  C6  UNL     1      26.729   4.647  49.359  1.00  0.00     0.007 C 
HETATM   14  C5  UNL     1      27.009   5.654  48.757  1.00  0.00    -0.022 C 
BRANCH  14  15
HETATM   15  S1  UNL     1      27.405   7.145  47.896  1.00  0.00    -0.048 SA
BRANCH  15  16
HETATM   16  C4  UNL     1      28.878   7.878  48.698  1.00  0.00     0.359 C 
BRANCH  16  17
HETATM   17  N1  UNL     1      30.013   7.428  47.930  1.00  0.00     0.093 N 
HETATM   18  C3  UNL     1      30.856   8.538  47.542  1.00  0.00     0.310 C 
BRANCH  17  19
HETATM   19  C2  UNL     1      30.765   6.395  48.616  1.00  0.00     0.268 C 
HETATM   20  C1  UNL     1      30.941   5.174  47.768  1.00  0.00     0.037 C 
ENDBRANCH  17  19
ENDBRANCH  16  17
ENDBRANCH  15  16
ENDBRANCH  14  15
ENDBRANCH  10  13
ENDBRANCH   1   9
BRANCH   8  21
HETATM   21  C14 UNL     1      24.481   2.682  52.874  1.00  0.00     0.181 C 
BRANCH  21  22
HETATM   22  N5  UNL     1      23.503   2.210  51.952  1.00  0.00    -0.384 N 
HETATM   23  H18 UNL     1      23.647   2.403  50.936  1.00  0.00     0.160 HD
BRANCH  22  24
HETATM   24  C15 UNL     1      22.295   1.473  52.086  1.00  0.00     0.030 A 
HETATM   25  C16 UNL     1      21.139   1.665  51.319  1.00  0.00     0.032 A 
HETATM   26  C17 UNL     1      20.002   0.914  51.473  1.00  0.00     0.046 A 
HETATM   27  C18 UNL     1      19.925  -0.079  52.393  1.00  0.00     0.138 A 
HETATM   28  F1  UNL     1      18.777  -0.759  52.470  1.00  0.00    -0.204 F 
HETATM   29  C19 UNL     1      21.030  -0.329  53.188  1.00  0.00     0.074 A 
HETATM   30 CL1  UNL     1      20.887  -1.612  54.356  1.00  0.00    -0.081 Cl
HETATM   31  C20 UNL     1      22.147   0.452  52.996  1.00  0.00     0.056 A 
ENDBRANCH  22  24
ENDBRANCH  21  22
ENDBRANCH   8  21
TORSDOF 9
ENDMDL
