MODEL 1
REMARK VINA RESULT:     -10.3      0.000      0.000
REMARK  2 active torsions:
REMARK  status: ('A' for Active; 'I' for Inactive)
REMARK    1  A    between atoms: C4_5  and  N1_6 
REMARK    2  A    between atoms: N1_6  and  C5_7 
ROOT
HETATM    1  C5  UNL     1      24.067  -0.491  53.765  1.00  0.00     0.142 A 
HETATM    2  N2  UNL     1      24.324  -1.081  54.912  1.00  0.00    -0.224 NA
HETATM    3  C6  UNL     1      23.403  -1.568  55.750  1.00  0.00     0.236 A 
HETATM    4  N3  UNL     1      22.113  -1.456  55.409  1.00  0.00    -0.241 NA
HETATM    5  C7  UNL     1      21.761  -0.867  54.255  1.00  0.00     0.074 A 
HETATM    6  C8  UNL     1      20.424  -0.761  53.923  1.00  0.00     0.070 A 
HETATM    7  C9  UNL     1      19.976  -0.175  52.761  1.00  0.00     0.079 A 
HETATM    8  C10 UNL     1      20.911   0.349  51.851  1.00  0.00    -0.024 A 
HETATM    9  C11 UNL     1      22.257   0.201  52.265  1.00  0.00     0.027 A 
HETATM   10  C12 UNL     1      22.742  -0.378  53.420  1.00  0.00     0.039 A 
HETATM   11  C13 UNL     1      20.936   0.999  50.550  1.00  0.00     0.041 C 
HETATM   12  C14 UNL     1      19.727   1.279  49.778  1.00  0.00     0.005 C 
HETATM   13  C15 UNL     1      18.806   2.323  50.323  1.00  0.00     0.002 C 
HETATM   14  C16 UNL     1      17.680   2.693  49.336  1.00  0.00     0.026 C 
HETATM   15  C17 UNL     1      16.900   1.410  49.070  1.00  0.00     0.167 C 
HETATM   16  O1  UNL     1      16.328   0.951  50.227  1.00  0.00    -0.389 OA
HETATM   17  C18 UNL     1      15.880  -0.333  50.123  1.00  0.00     0.197 C 
HETATM   18  C19 UNL     1      15.336  -0.650  51.536  1.00  0.00     0.298 C 
HETATM   19  N4  UNL     1      16.348  -0.234  52.467  1.00  0.00     0.108 N 
HETATM   20  C20 UNL     1      17.567  -0.936  52.338  1.00  0.00     0.444 C 
HETATM   21  O2  UNL     1      18.652  -0.190  52.664  1.00  0.00    -0.321 OA
HETATM   22  H21 UNL     1      16.463   0.781  52.519  1.00  0.00     0.318 HD
ENDROOT
BRANCH   1  23
HETATM   23  N1  UNL     1      25.047   0.011  52.902  1.00  0.00    -0.340 N 
HETATM   24  H3  UNL     1      24.911   0.521  52.027  1.00  0.00     0.167 HD
BRANCH  23  25
HETATM   25  C4  UNL     1      26.450  -0.100  53.084  1.00  0.00     0.035 A 
HETATM   26  C3  UNL     1      27.162  -1.255  52.832  1.00  0.00     0.032 A 
HETATM   27  C2  UNL     1      28.519  -1.409  53.013  1.00  0.00     0.046 A 
HETATM   28  C1  UNL     1      29.238  -0.337  53.481  1.00  0.00     0.138 A 
HETATM   29  F1  UNL     1      30.572  -0.418  53.680  1.00  0.00    -0.204 F 
HETATM   30  C22 UNL     1      28.632   0.862  53.765  1.00  0.00     0.074 A 
HETATM   31  C21 UNL     1      27.276   0.919  53.553  1.00  0.00     0.056 A 
HETATM   32 CL1  UNL     1      29.508   2.249  54.361  1.00  0.00    -0.081 Cl
ENDBRANCH  23  25
ENDBRANCH   1  23
TORSDOF 2
ENDMDL
MODEL 2
REMARK VINA RESULT:     -10.3      2.424      4.058
REMARK  2 active torsions:
REMARK  status: ('A' for Active; 'I' for Inactive)
REMARK    1  A    between atoms: C4_5  and  N1_6 
REMARK    2  A    between atoms: N1_6  and  C5_7 
ROOT
HETATM    1  C5  UNL     1      25.401   2.697  51.699  1.00  0.00     0.142 A 
HETATM    2  N2  UNL     1      25.964   3.322  50.689  1.00  0.00    -0.224 NA
HETATM    3  C6  UNL     1      25.387   3.545  49.504  1.00  0.00     0.236 A 
HETATM    4  N3  UNL     1      24.136   3.104  49.315  1.00  0.00    -0.241 NA
HETATM    5  C7  UNL     1      23.487   2.455  50.294  1.00  0.00     0.074 A 
HETATM    6  C8  UNL     1      22.197   2.008  50.078  1.00  0.00     0.070 A 
HETATM    7  C9  UNL     1      21.459   1.337  51.026  1.00  0.00     0.079 A 
HETATM    8  C10 UNL     1      22.028   1.083  52.286  1.00  0.00    -0.024 A 
HETATM    9  C11 UNL     1      23.349   1.571  52.426  1.00  0.00     0.027 A 
HETATM   10  C12 UNL     1      24.118   2.245  51.500  1.00  0.00     0.039 A 
HETATM   11  C13 UNL     1      21.663   0.473  53.556  1.00  0.00     0.041 C 
HETATM   12  C14 UNL     1      20.345  -0.104  53.810  1.00  0.00     0.005 C 
HETATM   13  C15 UNL     1      20.003  -1.356  53.070  1.00  0.00     0.002 C 
HETATM   14  C16 UNL     1      18.690  -1.998  53.564  1.00  0.00     0.026 C 
HETATM   15  C17 UNL     1      17.594  -0.959  53.348  1.00  0.00     0.167 C 
HETATM   16  O1  UNL     1      17.462  -0.675  52.014  1.00  0.00    -0.389 OA
HETATM   17  C18 UNL     1      16.726   0.448  51.782  1.00  0.00     0.197 C 
HETATM   18  C19 UNL     1      16.759   0.600  50.243  1.00  0.00     0.298 C 
HETATM   19  N4  UNL     1      18.130   0.453  49.845  1.00  0.00     0.108 N 
HETATM   20  C20 UNL     1      18.987   1.449  50.366  1.00  0.00     0.444 C 
HETATM   21  O2  UNL     1      20.251   1.007  50.586  1.00  0.00    -0.321 OA
HETATM   22  H21 UNL     1      18.489  -0.498  49.961  1.00  0.00     0.318 HD
ENDROOT
BRANCH   1  23
HETATM   23  N1  UNL     1      26.024   2.475  52.933  1.00  0.00    -0.340 N 
HETATM   24  H3  UNL     1      25.854   2.958  53.817  1.00  0.00     0.167 HD
BRANCH  23  25
HETATM   25  C4  UNL     1      27.036   1.514  53.191  1.00  0.00     0.035 A 
HETATM   26  C3  UNL     1      28.267   1.831  53.731  1.00  0.00     0.032 A 
HETATM   27  C2  UNL     1      29.281   0.933  53.980  1.00  0.00     0.046 A 
HETATM   28  C1  UNL     1      29.070  -0.388  53.673  1.00  0.00     0.138 A 
HETATM   29  F1  UNL     1      30.022  -1.321  53.892  1.00  0.00    -0.204 F 
HETATM   30  C22 UNL     1      27.883  -0.816  53.131  1.00  0.00     0.074 A 
HETATM   31  C21 UNL     1      26.932   0.153  52.919  1.00  0.00     0.056 A 
HETATM   32 CL1  UNL     1      27.573  -2.484  52.726  1.00  0.00    -0.081 Cl
ENDBRANCH  23  25
ENDBRANCH   1  23
TORSDOF 2
ENDMDL
MODEL 3
REMARK VINA RESULT:      -9.7      5.905      7.583
REMARK  2 active torsions:
REMARK  status: ('A' for Active; 'I' for Inactive)
REMARK    1  A    between atoms: C4_5  and  N1_6 
REMARK    2  A    between atoms: N1_6  and  C5_7 
ROOT
HETATM    1  C5  UNL     1      23.417   7.335  50.777  1.00  0.00     0.142 A 
HETATM    2  N2  UNL     1      22.545   8.110  50.170  1.00  0.00    -0.224 NA
HETATM    3  C6  UNL     1      21.285   7.773  49.882  1.00  0.00     0.236 A 
HETATM    4  N3  UNL     1      20.859   6.552  50.231  1.00  0.00    -0.241 NA
HETATM    5  C7  UNL     1      21.684   5.695  50.854  1.00  0.00     0.074 A 
HETATM    6  C8  UNL     1      21.225   4.440  51.206  1.00  0.00     0.070 A 
HETATM    7  C9  UNL     1      22.001   3.502  51.848  1.00  0.00     0.079 A 
HETATM    8  C10 UNL     1      23.332   3.816  52.171  1.00  0.00    -0.024 A 
HETATM    9  C11 UNL     1      23.724   5.118  51.777  1.00  0.00     0.027 A 
HETATM   10  C12 UNL     1      22.976   6.083  51.133  1.00  0.00     0.039 A 
HETATM   11  C13 UNL     1      24.476   3.211  52.835  1.00  0.00     0.041 C 
HETATM   12  C14 UNL     1      24.437   1.874  53.424  1.00  0.00     0.005 C 
HETATM   13  C15 UNL     1      24.331   0.723  52.477  1.00  0.00     0.002 C 
HETATM   14  C16 UNL     1      24.513  -0.639  53.178  1.00  0.00     0.026 C 
HETATM   15  C17 UNL     1      23.409  -0.735  54.228  1.00  0.00     0.167 C 
HETATM   16  O1  UNL     1      22.178  -0.717  53.627  1.00  0.00    -0.389 OA
HETATM   17  C18 UNL     1      21.162  -0.495  54.509  1.00  0.00     0.197 C 
HETATM   18  C19 UNL     1      19.899  -0.461  53.617  1.00  0.00     0.298 C 
HETATM   19  N4  UNL     1      20.199   0.409  52.515  1.00  0.00     0.108 N 
HETATM   20  C20 UNL     1      20.459   1.745  52.896  1.00  0.00     0.444 C 
HETATM   21  O2  UNL     1      21.342   2.372  52.078  1.00  0.00    -0.321 OA
HETATM   22  H21 UNL     1      20.892   0.025  51.868  1.00  0.00     0.318 HD
ENDROOT
BRANCH   1  23
HETATM   23  N1  UNL     1      24.733   7.709  51.070  1.00  0.00    -0.340 N 
HETATM   24  H3  UNL     1      25.097   8.084  51.948  1.00  0.00     0.167 HD
BRANCH  23  25
HETATM   25  C4  UNL     1      25.835   7.639  50.179  1.00  0.00     0.035 A 
HETATM   26  C3  UNL     1      26.069   6.569  49.340  1.00  0.00     0.032 A 
HETATM   27  C2  UNL     1      27.135   6.455  48.474  1.00  0.00     0.046 A 
HETATM   28  C1  UNL     1      28.049   7.479  48.429  1.00  0.00     0.138 A 
HETATM   29  F1  UNL     1      29.116   7.432  47.603  1.00  0.00    -0.204 F 
HETATM   30  C22 UNL     1      27.914   8.593  49.221  1.00  0.00     0.074 A 
HETATM   31  C21 UNL     1      26.820   8.616  50.052  1.00  0.00     0.056 A 
HETATM   32 CL1  UNL     1      29.051   9.916  49.196  1.00  0.00    -0.081 Cl
ENDBRANCH  23  25
ENDBRANCH   1  23
TORSDOF 2
ENDMDL
MODEL 4
REMARK VINA RESULT:      -9.6      8.141      9.966
REMARK  2 active torsions:
REMARK  status: ('A' for Active; 'I' for Inactive)
REMARK    1  A    between atoms: C4_5  and  N1_6 
REMARK    2  A    between atoms: N1_6  and  C5_7 
ROOT
HETATM    1  C5  UNL     1      30.270   6.084  47.763  1.00  0.00     0.142 A 
HETATM    2  N2  UNL     1      30.793   7.218  47.352  1.00  0.00    -0.224 NA
HETATM    3  C6  UNL     1      30.141   8.381  47.268  1.00  0.00     0.236 A 
HETATM    4  N3  UNL     1      28.851   8.412  47.628  1.00  0.00    -0.241 NA
HETATM    5  C7  UNL     1      28.237   7.299  48.060  1.00  0.00     0.074 A 
HETATM    6  C8  UNL     1      26.905   7.353  48.426  1.00  0.00     0.070 A 
HETATM    7  C9  UNL     1      26.200   6.262  48.880  1.00  0.00     0.079 A 
HETATM    8  C10 UNL     1      26.849   5.020  48.985  1.00  0.00    -0.024 A 
HETATM    9  C11 UNL     1      28.208   5.049  48.591  1.00  0.00     0.027 A 
HETATM   10  C12 UNL     1      28.946   6.120  48.130  1.00  0.00     0.039 A 
HETATM   11  C13 UNL     1      26.560   3.660  49.414  1.00  0.00     0.041 C 
HETATM   12  C14 UNL     1      25.259   3.251  49.939  1.00  0.00     0.005 C 
HETATM   13  C15 UNL     1      24.120   3.227  48.971  1.00  0.00     0.002 C 
HETATM   14  C16 UNL     1      22.851   2.582  49.566  1.00  0.00     0.026 C 
HETATM   15  C17 UNL     1      22.472   3.420  50.784  1.00  0.00     0.167 C 
HETATM   16  O1  UNL     1      22.170   4.702  50.405  1.00  0.00    -0.389 OA
HETATM   17  C18 UNL     1      22.121   5.567  51.457  1.00  0.00     0.197 C 
HETATM   18  C19 UNL     1      21.827   6.935  50.797  1.00  0.00     0.298 C 
HETATM   19  N4  UNL     1      22.746   7.068  49.702  1.00  0.00     0.108 N 
HETATM   20  C20 UNL     1      24.103   7.093  50.094  1.00  0.00     0.444 C 
HETATM   21  O2  UNL     1      24.938   6.559  49.168  1.00  0.00    -0.321 OA
HETATM   22  H21 UNL     1      22.555   6.426  48.929  1.00  0.00     0.318 HD
ENDROOT
BRANCH   1  23
HETATM   23  N1  UNL     1      30.972   4.877  47.844  1.00  0.00    -0.340 N 
HETATM   24  H3  UNL     1      30.727   4.043  48.382  1.00  0.00     0.167 HD
BRANCH  23  25
HETATM   25  C4  UNL     1      32.190   4.577  47.178  1.00  0.00     0.035 A 
HETATM   26  C3  UNL     1      33.337   4.177  47.833  1.00  0.00     0.032 A 
HETATM   27  C2  UNL     1      34.541   3.895  47.227  1.00  0.00     0.046 A 
HETATM   28  C1  UNL     1      34.627   4.017  45.862  1.00  0.00     0.138 A 
HETATM   29  F1  UNL     1      35.778   3.756  45.205  1.00  0.00    -0.204 F 
HETATM   30  C22 UNL     1      33.548   4.409  45.110  1.00  0.00     0.074 A 
HETATM   31  C21 UNL     1      32.389   4.668  45.803  1.00  0.00     0.056 A 
HETATM   32 CL1  UNL     1      33.613   4.577  43.375  1.00  0.00    -0.081 Cl
ENDBRANCH  23  25
ENDBRANCH   1  23
TORSDOF 2
ENDMDL
MODEL 5
REMARK VINA RESULT:      -9.5      7.090      9.021
REMARK  2 active torsions:
REMARK  status: ('A' for Active; 'I' for Inactive)
REMARK    1  A    between atoms: C4_5  and  N1_6 
REMARK    2  A    between atoms: N1_6  and  C5_7 
ROOT
HETATM    1  C5  UNL     1      24.506   2.935  51.316  1.00  0.00     0.142 A 
HETATM    2  N2  UNL     1      23.445   2.907  52.091  1.00  0.00    -0.224 NA
HETATM    3  C6  UNL     1      22.695   3.967  52.408  1.00  0.00     0.236 A 
HETATM    4  N3  UNL     1      23.038   5.160  51.903  1.00  0.00    -0.241 NA
HETATM    5  C7  UNL     1      24.109   5.279  51.102  1.00  0.00     0.074 A 
HETATM    6  C8  UNL     1      24.445   6.518  50.593  1.00  0.00     0.070 A 
HETATM    7  C9  UNL     1      25.523   6.729  49.764  1.00  0.00     0.079 A 
HETATM    8  C10 UNL     1      26.337   5.642  49.405  1.00  0.00    -0.024 A 
HETATM    9  C11 UNL     1      25.926   4.409  49.968  1.00  0.00     0.027 A 
HETATM   10  C12 UNL     1      24.855   4.161  50.801  1.00  0.00     0.039 A 
HETATM   11  C13 UNL     1      27.503   5.364  48.581  1.00  0.00     0.041 C 
HETATM   12  C14 UNL     1      28.185   6.391  47.796  1.00  0.00     0.005 C 
HETATM   13  C15 UNL     1      28.928   7.439  48.559  1.00  0.00     0.002 C 
HETATM   14  C16 UNL     1      29.783   8.343  47.646  1.00  0.00     0.026 C 
HETATM   15  C17 UNL     1      28.816   9.007  46.670  1.00  0.00     0.167 C 
HETATM   16  O1  UNL     1      27.923   9.796  47.347  1.00  0.00    -0.389 OA
HETATM   17  C18 UNL     1      26.860  10.170  46.580  1.00  0.00     0.197 C 
HETATM   18  C19 UNL     1      25.975  10.989  47.549  1.00  0.00     0.298 C 
HETATM   19  N4  UNL     1      25.853  10.211  48.749  1.00  0.00     0.108 N 
HETATM   20  C20 UNL     1      25.204   8.969  48.562  1.00  0.00     0.444 C 
HETATM   21  O2  UNL     1      25.645   8.002  49.406  1.00  0.00    -0.321 OA
HETATM   22  H21 UNL     1      26.723  10.142  49.281  1.00  0.00     0.318 HD
ENDROOT
BRANCH   1  23
HETATM   23  N1  UNL     1      25.277   1.812  50.996  1.00  0.00    -0.340 N 
HETATM   24  H3  UNL     1      25.256   1.260  50.136  1.00  0.00     0.167 HD
BRANCH  23  25
HETATM   25  C4  UNL     1      26.255   1.210  51.831  1.00  0.00     0.035 A 
HETATM   26  C3  UNL     1      26.330  -0.149  52.059  1.00  0.00     0.032 A 
HETATM   27  C2  UNL     1      27.251  -0.770  52.874  1.00  0.00     0.046 A 
HETATM   28  C1  UNL     1      28.176   0.011  53.521  1.00  0.00     0.138 A 
HETATM   29  F1  UNL     1      29.108  -0.532  54.335  1.00  0.00    -0.204 F 
HETATM   30  C22 UNL     1      28.195   1.376  53.367  1.00  0.00     0.074 A 
HETATM   31  C21 UNL     1      27.237   1.903  52.534  1.00  0.00     0.056 A 
HETATM   32 CL1  UNL     1      29.353   2.404  54.170  1.00  0.00    -0.081 Cl
ENDBRANCH  23  25
ENDBRANCH   1  23
TORSDOF 2
ENDMDL
MODEL 6
REMARK VINA RESULT:      -9.5      4.423      5.252
REMARK  2 active torsions:
REMARK  status: ('A' for Active; 'I' for Inactive)
REMARK    1  A    between atoms: C4_5  and  N1_6 
REMARK    2  A    between atoms: N1_6  and  C5_7 
ROOT
HETATM    1  C5  UNL     1      26.333   2.553  50.934  1.00  0.00     0.142 A 
HETATM    2  N2  UNL     1      27.298   2.424  51.818  1.00  0.00    -0.224 NA
HETATM    3  C6  UNL     1      27.156   1.913  53.044  1.00  0.00     0.236 A 
HETATM    4  N3  UNL     1      25.940   1.495  53.419  1.00  0.00    -0.241 NA
HETATM    5  C7  UNL     1      24.897   1.590  52.580  1.00  0.00     0.074 A 
HETATM    6  C8  UNL     1      23.651   1.153  52.987  1.00  0.00     0.070 A 
HETATM    7  C9  UNL     1      22.530   1.211  52.191  1.00  0.00     0.079 A 
HETATM    8  C10 UNL     1      22.636   1.740  50.893  1.00  0.00    -0.024 A 
HETATM    9  C11 UNL     1      23.943   2.166  50.554  1.00  0.00     0.027 A 
HETATM   10  C12 UNL     1      25.087   2.123  51.324  1.00  0.00     0.039 A 
HETATM   11  C13 UNL     1      21.797   1.975  49.728  1.00  0.00     0.041 C 
HETATM   12  C14 UNL     1      20.381   1.614  49.682  1.00  0.00     0.005 C 
HETATM   13  C15 UNL     1      19.457   2.404  50.552  1.00  0.00     0.002 C 
HETATM   14  C16 UNL     1      17.972   2.093  50.273  1.00  0.00     0.026 C 
HETATM   15  C17 UNL     1      17.784   0.604  50.544  1.00  0.00     0.167 C 
HETATM   16  O1  UNL     1      18.047   0.322  51.860  1.00  0.00    -0.389 OA
HETATM   17  C18 UNL     1      18.193  -1.013  52.096  1.00  0.00     0.197 C 
HETATM   18  C19 UNL     1      18.532  -1.086  53.603  1.00  0.00     0.298 C 
HETATM   19  N4  UNL     1      19.568  -0.119  53.838  1.00  0.00     0.108 N 
HETATM   20  C20 UNL     1      20.768  -0.387  53.141  1.00  0.00     0.444 C 
HETATM   21  O2  UNL     1      21.451   0.735  52.800  1.00  0.00    -0.321 OA
HETATM   22  H21 UNL     1      19.250   0.849  53.750  1.00  0.00     0.318 HD
ENDROOT
BRANCH   1  23
HETATM   23  N1  UNL     1      26.505   3.090  49.654  1.00  0.00    -0.340 N 
HETATM   24  H3  UNL     1      26.537   2.590  48.763  1.00  0.00     0.167 HD
BRANCH  23  25
HETATM   25  C4  UNL     1      26.674   4.465  49.345  1.00  0.00     0.035 A 
HETATM   26  C3  UNL     1      27.719   4.953  48.587  1.00  0.00     0.032 A 
HETATM   27  C2  UNL     1      27.929   6.279  48.281  1.00  0.00     0.046 A 
HETATM   28  C1  UNL     1      27.036   7.206  48.760  1.00  0.00     0.138 A 
HETATM   29  F1  UNL     1      27.182   8.523  48.496  1.00  0.00    -0.204 F 
HETATM   30  C22 UNL     1      25.958   6.833  49.525  1.00  0.00     0.074 A 
HETATM   31  C21 UNL     1      25.833   5.488  49.777  1.00  0.00     0.056 A 
HETATM   32 CL1  UNL     1      24.801   7.977  50.153  1.00  0.00    -0.081 Cl
ENDBRANCH  23  25
ENDBRANCH   1  23
TORSDOF 2
ENDMDL
MODEL 7
REMARK VINA RESULT:      -9.4      8.040     10.728
REMARK  2 active torsions:
REMARK  status: ('A' for Active; 'I' for Inactive)
REMARK    1  A    between atoms: C4_5  and  N1_6 
REMARK    2  A    between atoms: N1_6  and  C5_7 
ROOT
HETATM    1  C5  UNL     1      25.596   3.462  49.863  1.00  0.00     0.142 A 
HETATM    2  N2  UNL     1      24.321   3.536  50.175  1.00  0.00    -0.224 NA
HETATM    3  C6  UNL     1      23.549   4.614  50.005  1.00  0.00     0.236 A 
HETATM    4  N3  UNL     1      24.102   5.713  49.476  1.00  0.00    -0.241 NA
HETATM    5  C7  UNL     1      25.399   5.724  49.129  1.00  0.00     0.074 A 
HETATM    6  C8  UNL     1      25.950   6.869  48.586  1.00  0.00     0.070 A 
HETATM    7  C9  UNL     1      27.268   6.967  48.201  1.00  0.00     0.079 A 
HETATM    8  C10 UNL     1      28.114   5.856  48.361  1.00  0.00    -0.024 A 
HETATM    9  C11 UNL     1      27.474   4.726  48.924  1.00  0.00     0.027 A 
HETATM   10  C12 UNL     1      26.160   4.592  49.322  1.00  0.00     0.039 A 
HETATM   11  C13 UNL     1      29.493   5.475  48.096  1.00  0.00     0.041 C 
HETATM   12  C14 UNL     1      30.458   6.374  47.466  1.00  0.00     0.005 C 
HETATM   13  C15 UNL     1      30.901   7.555  48.268  1.00  0.00     0.002 C 
HETATM   14  C16 UNL     1      32.070   8.315  47.607  1.00  0.00     0.026 C 
HETATM   15  C17 UNL     1      31.567   8.779  46.244  1.00  0.00     0.167 C 
HETATM   16  O1  UNL     1      30.516   9.646  46.393  1.00  0.00    -0.389 OA
HETATM   17  C18 UNL     1      29.835   9.857  45.231  1.00  0.00     0.197 C 
HETATM   18  C19 UNL     1      28.683  10.803  45.645  1.00  0.00     0.298 C 
HETATM   19  N4  UNL     1      28.089  10.235  46.823  1.00  0.00     0.108 N 
HETATM   20  C20 UNL     1      27.510   8.963  46.614  1.00  0.00     0.444 C 
HETATM   21  O2  UNL     1      27.564   8.164  47.710  1.00  0.00    -0.321 OA
HETATM   22  H21 UNL     1      28.693  10.281  47.647  1.00  0.00     0.318 HD
ENDROOT
BRANCH   1  23
HETATM   23  N1  UNL     1      26.386   2.322  50.049  1.00  0.00    -0.340 N 
HETATM   24  H3  UNL     1      26.841   1.751  49.334  1.00  0.00     0.167 HD
BRANCH  23  25
HETATM   25  C4  UNL     1      26.708   1.728  51.297  1.00  0.00     0.035 A 
HETATM   26  C3  UNL     1      27.084   2.452  52.410  1.00  0.00     0.032 A 
HETATM   27  C2  UNL     1      27.421   1.914  53.633  1.00  0.00     0.046 A 
HETATM   28  C1  UNL     1      27.387   0.549  53.774  1.00  0.00     0.138 A 
HETATM   29  F1  UNL     1      27.705  -0.044  54.945  1.00  0.00    -0.204 F 
HETATM   30  C22 UNL     1      27.027  -0.269  52.732  1.00  0.00     0.074 A 
HETATM   31  C21 UNL     1      26.708   0.359  51.552  1.00  0.00     0.056 A 
HETATM   32 CL1  UNL     1      26.970  -2.008  52.868  1.00  0.00    -0.081 Cl
ENDBRANCH  23  25
ENDBRANCH   1  23
TORSDOF 2
ENDMDL
MODEL 8
REMARK VINA RESULT:      -9.3      7.783      9.520
REMARK  2 active torsions:
REMARK  status: ('A' for Active; 'I' for Inactive)
REMARK    1  A    between atoms: C4_5  and  N1_6 
REMARK    2  A    between atoms: N1_6  and  C5_7 
ROOT
HETATM    1  C5  UNL     1      29.790   6.051  47.723  1.00  0.00     0.142 A 
HETATM    2  N2  UNL     1      30.287   7.149  47.198  1.00  0.00    -0.224 NA
HETATM    3  C6  UNL     1      29.602   8.275  46.977  1.00  0.00     0.236 A 
HETATM    4  N3  UNL     1      28.306   8.305  47.312  1.00  0.00    -0.241 NA
HETATM    5  C7  UNL     1      27.717   7.227  47.855  1.00  0.00     0.074 A 
HETATM    6  C8  UNL     1      26.378   7.279  48.193  1.00  0.00     0.070 A 
HETATM    7  C9  UNL     1      25.697   6.223  48.754  1.00  0.00     0.079 A 
HETATM    8  C10 UNL     1      26.380   5.021  49.005  1.00  0.00    -0.024 A 
HETATM    9  C11 UNL     1      27.745   5.049  48.630  1.00  0.00     0.027 A 
HETATM   10  C12 UNL     1      28.459   6.086  48.065  1.00  0.00     0.039 A 
HETATM   11  C13 UNL     1      26.125   3.707  49.576  1.00  0.00     0.041 C 
HETATM   12  C14 UNL     1      24.826   3.318  50.124  1.00  0.00     0.005 C 
HETATM   13  C15 UNL     1      23.707   3.152  49.148  1.00  0.00     0.002 C 
HETATM   14  C16 UNL     1      22.447   2.537  49.791  1.00  0.00     0.026 C 
HETATM   15  C17 UNL     1      22.021   3.491  50.903  1.00  0.00     0.167 C 
HETATM   16  O1  UNL     1      21.688   4.713  50.381  1.00  0.00    -0.389 OA
HETATM   17  C18 UNL     1      21.594   5.687  51.330  1.00  0.00     0.197 C 
HETATM   18  C19 UNL     1      21.272   6.964  50.520  1.00  0.00     0.298 C 
HETATM   19  N4  UNL     1      22.206   7.004  49.430  1.00  0.00     0.108 N 
HETATM   20  C20 UNL     1      23.555   7.115  49.838  1.00  0.00     0.444 C 
HETATM   21  O2  UNL     1      24.422   6.510  48.988  1.00  0.00    -0.321 OA
HETATM   22  H21 UNL     1      22.048   6.276  48.730  1.00  0.00     0.318 HD
ENDROOT
BRANCH   1  23
HETATM   23  N1  UNL     1      30.526   4.883  47.947  1.00  0.00    -0.340 N 
HETATM   24  H3  UNL     1      30.223   4.032  48.426  1.00  0.00     0.167 HD
BRANCH  23  25
HETATM   25  C4  UNL     1      31.868   4.656  47.544  1.00  0.00     0.035 A 
HETATM   26  C3  UNL     1      32.214   3.912  46.434  1.00  0.00     0.032 A 
HETATM   27  C2  UNL     1      33.502   3.653  46.019  1.00  0.00     0.046 A 
HETATM   28  C1  UNL     1      34.538   4.169  46.757  1.00  0.00     0.138 A 
HETATM   29  F1  UNL     1      35.825   3.955  46.406  1.00  0.00    -0.204 F 
HETATM   30  C22 UNL     1      34.310   4.924  47.881  1.00  0.00     0.074 A 
HETATM   31  C21 UNL     1      32.993   5.128  48.215  1.00  0.00     0.056 A 
HETATM   32 CL1  UNL     1      35.597   5.598  48.847  1.00  0.00    -0.081 Cl
ENDBRANCH  23  25
ENDBRANCH   1  23
TORSDOF 2
ENDMDL
MODEL 9
REMARK VINA RESULT:      -9.0      7.662     10.477
REMARK  2 active torsions:
REMARK  status: ('A' for Active; 'I' for Inactive)
REMARK    1  A    between atoms: C4_5  and  N1_6 
REMARK    2  A    between atoms: N1_6  and  C5_7 
ROOT
HETATM    1  C5  UNL     1      23.906   4.054  50.706  1.00  0.00     0.142 A 
HETATM    2  N2  UNL     1      22.782   4.500  51.224  1.00  0.00    -0.224 NA
HETATM    3  C6  UNL     1      22.422   5.785  51.291  1.00  0.00     0.236 A 
HETATM    4  N3  UNL     1      23.261   6.705  50.797  1.00  0.00    -0.241 NA
HETATM    5  C7  UNL     1      24.431   6.338  50.251  1.00  0.00     0.074 A 
HETATM    6  C8  UNL     1      25.281   7.303  49.747  1.00  0.00     0.070 A 
HETATM    7  C9  UNL     1      26.496   7.015  49.169  1.00  0.00     0.079 A 
HETATM    8  C10 UNL     1      26.912   5.676  49.076  1.00  0.00    -0.024 A 
HETATM    9  C11 UNL     1      25.987   4.750  49.615  1.00  0.00     0.027 A 
HETATM   10  C12 UNL     1      24.763   5.002  50.201  1.00  0.00     0.039 A 
HETATM   11  C13 UNL     1      28.031   4.904  48.556  1.00  0.00     0.041 C 
HETATM   12  C14 UNL     1      29.171   5.516  47.876  1.00  0.00     0.005 C 
HETATM   13  C15 UNL     1      30.088   6.347  48.714  1.00  0.00     0.002 C 
HETATM   14  C16 UNL     1      31.364   6.767  47.957  1.00  0.00     0.026 C 
HETATM   15  C17 UNL     1      30.903   7.573  46.747  1.00  0.00     0.167 C 
HETATM   16  O1  UNL     1      30.247   8.706  47.151  1.00  0.00    -0.389 OA
HETATM   17  C18 UNL     1      29.554   9.305  46.141  1.00  0.00     0.197 C 
HETATM   18  C19 UNL     1      28.862  10.505  46.828  1.00  0.00     0.298 C 
HETATM   19  N4  UNL     1      28.246   9.995  48.021  1.00  0.00     0.108 N 
HETATM   20  C20 UNL     1      27.239   9.034  47.778  1.00  0.00     0.444 C 
HETATM   21  O2  UNL     1      27.135   8.106  48.762  1.00  0.00    -0.321 OA
HETATM   22  H21 UNL     1      28.918   9.712  48.738  1.00  0.00     0.318 HD
ENDROOT
BRANCH   1  23
HETATM   23  N1  UNL     1      24.262   2.703  50.645  1.00  0.00    -0.340 N 
HETATM   24  H3  UNL     1      25.017   2.277  50.103  1.00  0.00     0.167 HD
BRANCH  23  25
HETATM   25  C4  UNL     1      23.623   1.642  51.338  1.00  0.00     0.035 A 
HETATM   26  C3  UNL     1      22.368   1.168  51.015  1.00  0.00     0.032 A 
HETATM   27  C2  UNL     1      21.706   0.155  51.673  1.00  0.00     0.046 A 
HETATM   28  C1  UNL     1      22.329  -0.443  52.740  1.00  0.00     0.138 A 
HETATM   29  F1  UNL     1      21.738  -1.443  53.429  1.00  0.00    -0.204 F 
HETATM   30  C22 UNL     1      23.580  -0.051  53.150  1.00  0.00     0.074 A 
HETATM   31  C21 UNL     1      24.160   0.967  52.431  1.00  0.00     0.056 A 
HETATM   32 CL1  UNL     1      24.408  -0.784  54.499  1.00  0.00    -0.081 Cl
ENDBRANCH  23  25
ENDBRANCH   1  23
TORSDOF 2
ENDMDL
