MODEL 1
REMARK VINA RESULT:      -8.2      0.000      0.000
REMARK  4 active torsions:
REMARK  status: ('A' for Active; 'I' for Inactive)
REMARK    1  A    between atoms: N1_8  and  C8_9 
REMARK    2  A    between atoms: C12_16  and  C13_17 
REMARK    3  A    between atoms: C13_17  and  N5_18 
REMARK    4  A    between atoms: C16_21  and  N6_22 
ROOT
HETATM    1  C8  UNL     1      21.886   1.990  52.019  1.00  0.00     0.165 A 
HETATM    2  N2  UNL     1      20.620   2.440  51.781  1.00  0.00    -0.220 NA
HETATM    3  C9  UNL     1      19.586   1.725  52.311  1.00  0.00     0.258 A 
HETATM    4  N3  UNL     1      19.782   0.616  53.044  1.00  0.00    -0.161 NA
HETATM    5  N4  UNL     1      21.036   0.228  53.242  1.00  0.00    -0.240 N 
HETATM    6  C10 UNL     1      21.406  -0.852  53.950  1.00  0.00     0.119 A 
HETATM    7  C11 UNL     1      22.783  -0.852  53.883  1.00  0.00     0.030 A 
HETATM    8  C12 UNL     1      23.271   0.204  53.148  1.00  0.00     0.004 A 
HETATM    9  C19 UNL     1      22.121   0.858  52.765  1.00  0.00     0.112 A 
ENDROOT
BRANCH   8  10
HETATM   10  C13 UNL     1      24.646   0.625  52.796  1.00  0.00     0.313 C 
BRANCH  10  11
HETATM   11  N5  UNL     1      25.589   0.633  53.856  1.00  0.00     0.092 N 
HETATM   12  C14 UNL     1      26.193   1.974  53.832  1.00  0.00     0.275 C 
HETATM   13  C15 UNL     1      27.209   2.024  52.722  1.00  0.00     0.065 C 
HETATM   14  C16 UNL     1      28.480   1.372  53.275  1.00  0.00     0.221 C 
HETATM   15  C17 UNL     1      28.006   0.322  54.222  1.00  0.00     0.065 C 
HETATM   16  C18 UNL     1      26.658  -0.299  53.811  1.00  0.00     0.275 C 
BRANCH  14  17
HETATM   17  N6  UNL     1      29.134   2.426  54.042  1.00  0.00     0.083 N 
HETATM   18  H21 UNL     1      30.081   2.643  53.722  1.00  0.00     0.313 HD
HETATM   19  H22 UNL     1      28.513   3.252  54.194  1.00  0.00     0.313 HD
ENDBRANCH  14  17
ENDBRANCH  10  11
ENDBRANCH   8  10
BRANCH   1  20
HETATM   20  N1  UNL     1      22.869   2.818  51.426  1.00  0.00    -0.310 N 
HETATM   21  C2  UNL     1      23.020   2.513  50.020  1.00  0.00     0.011 A 
HETATM   22  C1  UNL     1      22.220   1.469  49.283  1.00  0.00     0.068 C 
HETATM   23  C3  UNL     1      23.917   3.176  49.291  1.00  0.00     0.006 A 
HETATM   24  C4  UNL     1      24.795   4.228  49.810  1.00  0.00     0.030 A 
HETATM   25  C5  UNL     1      26.229   3.845  49.505  1.00  0.00     0.018 C 
HETATM   26  C6  UNL     1      24.577   4.476  51.242  1.00  0.00    -0.001 A 
HETATM   27  C7  UNL     1      23.698   3.837  51.993  1.00  0.00     0.095 A 
ENDBRANCH   1  20
TORSDOF 4
ENDMDL
MODEL 2
REMARK VINA RESULT:      -7.9      1.967      6.010
REMARK  4 active torsions:
REMARK  status: ('A' for Active; 'I' for Inactive)
REMARK    1  A    between atoms: N1_8  and  C8_9 
REMARK    2  A    between atoms: C12_16  and  C13_17 
REMARK    3  A    between atoms: C13_17  and  N5_18 
REMARK    4  A    between atoms: C16_21  and  N6_22 
ROOT
HETATM    1  C8  UNL     1      26.196   2.177  51.411  1.00  0.00     0.165 A 
HETATM    2  N2  UNL     1      27.056   2.656  50.465  1.00  0.00    -0.220 NA
HETATM    3  C9  UNL     1      26.698   3.797  49.807  1.00  0.00     0.258 A 
HETATM    4  N3  UNL     1      25.549   4.443  50.065  1.00  0.00    -0.161 NA
HETATM    5  N4  UNL     1      24.755   3.929  50.996  1.00  0.00    -0.240 N 
HETATM    6  C10 UNL     1      23.575   4.449  51.377  1.00  0.00     0.119 A 
HETATM    7  C11 UNL     1      23.120   3.591  52.354  1.00  0.00     0.030 A 
HETATM    8  C12 UNL     1      23.992   2.552  52.585  1.00  0.00     0.004 A 
HETATM    9  C19 UNL     1      25.012   2.814  51.698  1.00  0.00     0.112 A 
ENDROOT
BRANCH   8  10
HETATM   10  C13 UNL     1      23.948   1.400  53.514  1.00  0.00     0.313 C 
BRANCH  10  11
HETATM   11  N5  UNL     1      23.309   0.229  53.030  1.00  0.00     0.092 N 
HETATM   12  C14 UNL     1      21.887   0.585  52.902  1.00  0.00     0.275 C 
HETATM   13  C15 UNL     1      21.258   0.549  54.270  1.00  0.00     0.065 C 
HETATM   14  C16 UNL     1      20.948  -0.922  54.560  1.00  0.00     0.221 C 
HETATM   15  C17 UNL     1      22.024  -1.695  53.876  1.00  0.00     0.065 C 
HETATM   16  C18 UNL     1      23.368  -0.945  53.823  1.00  0.00     0.275 C 
BRANCH  14  17
HETATM   17  N6  UNL     1      19.687  -1.178  53.875  1.00  0.00     0.083 N 
HETATM   18  H21 UNL     1      19.077  -1.838  54.364  1.00  0.00     0.313 HD
HETATM   19  H22 UNL     1      19.225  -0.300  53.548  1.00  0.00     0.313 HD
ENDBRANCH  14  17
ENDBRANCH  10  11
ENDBRANCH   8  10
BRANCH   1  20
HETATM   20  N1  UNL     1      26.681   0.997  52.026  1.00  0.00    -0.310 N 
HETATM   21  C2  UNL     1      27.630   1.314  53.072  1.00  0.00     0.011 A 
HETATM   22  C1  UNL     1      28.028   2.712  53.467  1.00  0.00     0.068 C 
HETATM   23  C3  UNL     1      28.213   0.331  53.755  1.00  0.00     0.006 A 
HETATM   24  C4  UNL     1      27.967  -1.097  53.532  1.00  0.00     0.030 A 
HETATM   25  C5  UNL     1      29.296  -1.772  53.260  1.00  0.00     0.018 C 
HETATM   26  C6  UNL     1      26.993  -1.330  52.457  1.00  0.00    -0.001 A 
HETATM   27  C7  UNL     1      26.397  -0.379  51.760  1.00  0.00     0.095 A 
ENDBRANCH   1  20
TORSDOF 4
ENDMDL
MODEL 3
REMARK VINA RESULT:      -7.7      1.068      1.664
REMARK  4 active torsions:
REMARK  status: ('A' for Active; 'I' for Inactive)
REMARK    1  A    between atoms: N1_8  and  C8_9 
REMARK    2  A    between atoms: C12_16  and  C13_17 
REMARK    3  A    between atoms: C13_17  and  N5_18 
REMARK    4  A    between atoms: C16_21  and  N6_22 
ROOT
HETATM    1  C8  UNL     1      22.424   2.064  50.963  1.00  0.00     0.165 A 
HETATM    2  N2  UNL     1      21.232   2.298  50.340  1.00  0.00    -0.220 NA
HETATM    3  C9  UNL     1      20.189   1.474  50.646  1.00  0.00     0.258 A 
HETATM    4  N3  UNL     1      20.306   0.463  51.523  1.00  0.00    -0.161 NA
HETATM    5  N4  UNL     1      21.490   0.286  52.096  1.00  0.00    -0.240 N 
HETATM    6  C10 UNL     1      21.776  -0.671  52.995  1.00  0.00     0.119 A 
HETATM    7  C11 UNL     1      23.103  -0.467  53.305  1.00  0.00     0.030 A 
HETATM    8  C12 UNL     1      23.643   0.596  52.618  1.00  0.00     0.004 A 
HETATM    9  C19 UNL     1      22.577   1.038  51.865  1.00  0.00     0.112 A 
ENDROOT
BRANCH   8  10
HETATM   10  C13 UNL     1      24.997   1.195  52.608  1.00  0.00     0.313 C 
BRANCH  10  11
HETATM   11  N5  UNL     1      25.790   0.969  53.763  1.00  0.00     0.092 N 
HETATM   12  C14 UNL     1      26.585   2.194  53.936  1.00  0.00     0.275 C 
HETATM   13  C15 UNL     1      27.730   2.166  52.958  1.00  0.00     0.065 C 
HETATM   14  C16 UNL     1      28.809   1.278  53.584  1.00  0.00     0.221 C 
HETATM   15  C17 UNL     1      28.067   0.247  54.366  1.00  0.00     0.065 C 
HETATM   16  C18 UNL     1      26.704  -0.116  53.749  1.00  0.00     0.275 C 
BRANCH  14  17
HETATM   17  N6  UNL     1      29.511   2.151  54.518  1.00  0.00     0.083 N 
HETATM   18  H21 UNL     1      30.524   2.007  54.535  1.00  0.00     0.313 HD
HETATM   19  H22 UNL     1      29.201   3.146  54.444  1.00  0.00     0.313 HD
ENDBRANCH  14  17
ENDBRANCH  10  11
ENDBRANCH   8  10
BRANCH   1  20
HETATM   20  N1  UNL     1      23.423   2.988  50.571  1.00  0.00    -0.310 N 
HETATM   21  C2  UNL     1      23.326   4.210  51.340  1.00  0.00     0.011 A 
HETATM   22  C1  UNL     1      22.312   4.454  52.428  1.00  0.00     0.068 C 
HETATM   23  C3  UNL     1      24.171   5.211  51.101  1.00  0.00     0.006 A 
HETATM   24  C4  UNL     1      25.230   5.182  50.089  1.00  0.00     0.030 A 
HETATM   25  C5  UNL     1      25.044   6.371  49.169  1.00  0.00     0.018 C 
HETATM   26  C6  UNL     1      25.261   3.909  49.356  1.00  0.00    -0.001 A 
HETATM   27  C7  UNL     1      24.438   2.896  49.567  1.00  0.00     0.095 A 
ENDBRANCH   1  20
TORSDOF 4
ENDMDL
MODEL 4
REMARK VINA RESULT:      -7.6      1.933      5.424
REMARK  4 active torsions:
REMARK  status: ('A' for Active; 'I' for Inactive)
REMARK    1  A    between atoms: N1_8  and  C8_9 
REMARK    2  A    between atoms: C12_16  and  C13_17 
REMARK    3  A    between atoms: C13_17  and  N5_18 
REMARK    4  A    between atoms: C16_21  and  N6_22 
ROOT
HETATM    1  C8  UNL     1      24.378   3.255  50.450  1.00  0.00     0.165 A 
HETATM    2  N2  UNL     1      24.932   3.961  49.422  1.00  0.00    -0.220 NA
HETATM    3  C9  UNL     1      26.294   4.009  49.352  1.00  0.00     0.258 A 
HETATM    4  N3  UNL     1      27.081   3.390  50.248  1.00  0.00    -0.161 NA
HETATM    5  N4  UNL     1      26.483   2.719  51.225  1.00  0.00    -0.240 N 
HETATM    6  C10 UNL     1      27.118   2.044  52.198  1.00  0.00     0.119 A 
HETATM    7  C11 UNL     1      26.105   1.515  52.968  1.00  0.00     0.030 A 
HETATM    8  C12 UNL     1      24.858   1.847  52.491  1.00  0.00     0.004 A 
HETATM    9  C19 UNL     1      25.155   2.611  51.385  1.00  0.00     0.112 A 
ENDROOT
BRANCH   8  10
HETATM   10  C13 UNL     1      23.492   1.527  52.962  1.00  0.00     0.313 C 
BRANCH  10  11
HETATM   11  N5  UNL     1      23.096   0.168  52.860  1.00  0.00     0.092 N 
HETATM   12  C14 UNL     1      21.649   0.201  52.595  1.00  0.00     0.275 C 
HETATM   13  C15 UNL     1      20.930   0.472  53.891  1.00  0.00     0.065 C 
HETATM   14  C16 UNL     1      20.849  -0.869  54.625  1.00  0.00     0.221 C 
HETATM   15  C17 UNL     1      22.089  -1.604  54.244  1.00  0.00     0.065 C 
HETATM   16  C18 UNL     1      23.289  -0.674  53.985  1.00  0.00     0.275 C 
BRANCH  14  17
HETATM   17  N6  UNL     1      19.705  -1.549  54.029  1.00  0.00     0.083 N 
HETATM   18  H21 UNL     1      19.251  -2.219  54.656  1.00  0.00     0.313 HD
HETATM   19  H22 UNL     1      19.062  -0.891  53.535  1.00  0.00     0.313 HD
ENDBRANCH  14  17
ENDBRANCH  10  11
ENDBRANCH   8  10
BRANCH   1  20
HETATM   20  N1  UNL     1      22.962   3.274  50.410  1.00  0.00    -0.310 N 
HETATM   21  C2  UNL     1      22.437   4.334  51.243  1.00  0.00     0.011 A 
HETATM   22  C1  UNL     1      23.286   5.302  52.027  1.00  0.00     0.068 C 
HETATM   23  C3  UNL     1      21.120   4.500  51.351  1.00  0.00     0.006 A 
HETATM   24  C4  UNL     1      20.120   3.671  50.674  1.00  0.00     0.030 A 
HETATM   25  C5  UNL     1      19.183   3.103  51.721  1.00  0.00     0.018 C 
HETATM   26  C6  UNL     1      20.735   2.621  49.851  1.00  0.00    -0.001 A 
HETATM   27  C7  UNL     1      22.036   2.429  49.722  1.00  0.00     0.095 A 
ENDBRANCH   1  20
TORSDOF 4
ENDMDL
MODEL 5
REMARK VINA RESULT:      -7.6      1.960      4.880
REMARK  4 active torsions:
REMARK  status: ('A' for Active; 'I' for Inactive)
REMARK    1  A    between atoms: N1_8  and  C8_9 
REMARK    2  A    between atoms: C12_16  and  C13_17 
REMARK    3  A    between atoms: C13_17  and  N5_18 
REMARK    4  A    between atoms: C16_21  and  N6_22 
ROOT
HETATM    1  C8  UNL     1      23.163   3.901  49.618  1.00  0.00     0.165 A 
HETATM    2  N2  UNL     1      22.311   4.781  49.015  1.00  0.00    -0.220 NA
HETATM    3  C9  UNL     1      22.861   5.860  48.387  1.00  0.00     0.258 A 
HETATM    4  N3  UNL     1      24.187   6.070  48.348  1.00  0.00    -0.161 NA
HETATM    5  N4  UNL     1      24.964   5.179  48.952  1.00  0.00    -0.240 N 
HETATM    6  C10 UNL     1      26.306   5.236  49.005  1.00  0.00     0.119 A 
HETATM    7  C11 UNL     1      26.670   4.116  49.721  1.00  0.00     0.030 A 
HETATM    8  C12 UNL     1      25.583   3.368  50.110  1.00  0.00     0.004 A 
HETATM    9  C19 UNL     1      24.526   4.087  49.597  1.00  0.00     0.112 A 
ENDROOT
BRANCH   8  10
HETATM   10  C13 UNL     1      25.461   2.110  50.881  1.00  0.00     0.313 C 
BRANCH  10  11
HETATM   11  N5  UNL     1      25.922   2.151  52.223  1.00  0.00     0.092 N 
HETATM   12  C14 UNL     1      27.191   1.408  52.223  1.00  0.00     0.275 C 
HETATM   13  C15 UNL     1      26.884  -0.067  52.211  1.00  0.00     0.065 C 
HETATM   14  C16 UNL     1      26.565  -0.450  53.659  1.00  0.00     0.221 C 
HETATM   15  C17 UNL     1      25.918   0.755  54.253  1.00  0.00     0.065 C 
HETATM   16  C18 UNL     1      25.108   1.573  53.231  1.00  0.00     0.275 C 
BRANCH  14  17
HETATM   17  N6  UNL     1      27.867  -0.635  54.289  1.00  0.00     0.083 N 
HETATM   18  H21 UNL     1      28.418  -1.396  53.884  1.00  0.00     0.313 HD
HETATM   19  H22 UNL     1      28.378   0.267  54.421  1.00  0.00     0.313 HD
ENDBRANCH  14  17
ENDBRANCH  10  11
ENDBRANCH   8  10
BRANCH   1  20
HETATM   20  N1  UNL     1      22.476   2.822  50.226  1.00  0.00    -0.310 N 
HETATM   21  C2  UNL     1      22.174   3.120  51.610  1.00  0.00     0.011 A 
HETATM   22  C1  UNL     1      22.522   4.413  52.301  1.00  0.00     0.068 C 
HETATM   23  C3  UNL     1      21.545   2.215  52.358  1.00  0.00     0.006 A 
HETATM   24  C4  UNL     1      21.117   0.896  51.884  1.00  0.00     0.030 A 
HETATM   25  C5  UNL     1      21.720  -0.156  52.793  1.00  0.00     0.018 C 
HETATM   26  C6  UNL     1      21.461   0.676  50.473  1.00  0.00    -0.001 A 
HETATM   27  C7  UNL     1      22.084   1.551  49.703  1.00  0.00     0.095 A 
ENDBRANCH   1  20
TORSDOF 4
ENDMDL
MODEL 6
REMARK VINA RESULT:      -7.4      2.008      4.661
REMARK  4 active torsions:
REMARK  status: ('A' for Active; 'I' for Inactive)
REMARK    1  A    between atoms: N1_8  and  C8_9 
REMARK    2  A    between atoms: C12_16  and  C13_17 
REMARK    3  A    between atoms: C13_17  and  N5_18 
REMARK    4  A    between atoms: C16_21  and  N6_22 
ROOT
HETATM    1  C8  UNL     1      22.620   3.861  50.035  1.00  0.00     0.165 A 
HETATM    2  N2  UNL     1      21.692   4.678  49.458  1.00  0.00    -0.220 NA
HETATM    3  C9  UNL     1      22.149   5.724  48.711  1.00  0.00     0.258 A 
HETATM    4  N3  UNL     1      23.460   5.961  48.535  1.00  0.00    -0.161 NA
HETATM    5  N4  UNL     1      24.314   5.131  49.121  1.00  0.00    -0.240 N 
HETATM    6  C10 UNL     1      25.653   5.223  49.045  1.00  0.00     0.119 A 
HETATM    7  C11 UNL     1      26.114   4.163  49.797  1.00  0.00     0.030 A 
HETATM    8  C12 UNL     1      25.089   3.419  50.334  1.00  0.00     0.004 A 
HETATM    9  C19 UNL     1      23.969   4.076  49.875  1.00  0.00     0.112 A 
ENDROOT
BRANCH   8  10
HETATM   10  C13 UNL     1      25.075   2.215  51.195  1.00  0.00     0.313 C 
BRANCH  10  11
HETATM   11  N5  UNL     1      25.960   2.227  52.304  1.00  0.00     0.092 N 
HETATM   12  C14 UNL     1      27.006   1.245  51.981  1.00  0.00     0.275 C 
HETATM   13  C15 UNL     1      26.462  -0.136  52.235  1.00  0.00     0.065 C 
HETATM   14  C16 UNL     1      26.588  -0.377  53.742  1.00  0.00     0.221 C 
HETATM   15  C17 UNL     1      26.397   0.962  54.372  1.00  0.00     0.065 C 
HETATM   16  C18 UNL     1      25.445   1.875  53.578  1.00  0.00     0.275 C 
BRANCH  14  17
HETATM   17  N6  UNL     1      27.972  -0.788  53.939  1.00  0.00     0.083 N 
HETATM   18  H21 UNL     1      28.422  -0.352  54.748  1.00  0.00     0.313 HD
HETATM   19  H22 UNL     1      28.096  -1.823  53.861  1.00  0.00     0.313 HD
ENDBRANCH  14  17
ENDBRANCH  10  11
ENDBRANCH   8  10
BRANCH   1  20
HETATM   20  N1  UNL     1      22.024   2.811  50.775  1.00  0.00    -0.310 N 
HETATM   21  C2  UNL     1      21.710   1.689  49.916  1.00  0.00     0.011 A 
HETATM   22  C1  UNL     1      22.002   1.638  48.439  1.00  0.00     0.068 C 
HETATM   23  C3  UNL     1      21.123   0.609  50.428  1.00  0.00     0.006 A 
HETATM   24  C4  UNL     1      20.753   0.452  51.837  1.00  0.00     0.030 A 
HETATM   25  C5  UNL     1      19.274   0.130  51.910  1.00  0.00     0.018 C 
HETATM   26  C6  UNL     1      21.106   1.633  52.638  1.00  0.00    -0.001 A 
HETATM   27  C7  UNL     1      21.689   2.720  52.162  1.00  0.00     0.095 A 
ENDBRANCH   1  20
TORSDOF 4
ENDMDL
MODEL 7
REMARK VINA RESULT:      -7.1      1.888      5.986
REMARK  4 active torsions:
REMARK  status: ('A' for Active; 'I' for Inactive)
REMARK    1  A    between atoms: N1_8  and  C8_9 
REMARK    2  A    between atoms: C12_16  and  C13_17 
REMARK    3  A    between atoms: C13_17  and  N5_18 
REMARK    4  A    between atoms: C16_21  and  N6_22 
ROOT
HETATM    1  C8  UNL     1      25.403   3.059  50.550  1.00  0.00     0.165 A 
HETATM    2  N2  UNL     1      26.483   3.873  50.368  1.00  0.00    -0.220 NA
HETATM    3  C9  UNL     1      26.353   4.902  49.481  1.00  0.00     0.258 A 
HETATM    4  N3  UNL     1      25.216   5.126  48.802  1.00  0.00    -0.161 NA
HETATM    5  N4  UNL     1      24.201   4.300  49.022  1.00  0.00    -0.240 N 
HETATM    6  C10 UNL     1      22.997   4.382  48.430  1.00  0.00     0.119 A 
HETATM    7  C11 UNL     1      22.279   3.333  48.962  1.00  0.00     0.030 A 
HETATM    8  C12 UNL     1      23.013   2.604  49.869  1.00  0.00     0.004 A 
HETATM    9  C19 UNL     1      24.225   3.259  49.870  1.00  0.00     0.112 A 
ENDROOT
BRANCH   8  10
HETATM   10  C13 UNL     1      22.691   1.412  50.686  1.00  0.00     0.313 C 
BRANCH  10  11
HETATM   11  N5  UNL     1      21.440   1.431  51.356  1.00  0.00     0.092 N 
HETATM   12  C14 UNL     1      21.766   1.513  52.789  1.00  0.00     0.275 C 
HETATM   13  C15 UNL     1      22.175   0.145  53.267  1.00  0.00     0.065 C 
HETATM   14  C16 UNL     1      20.877  -0.626  53.522  1.00  0.00     0.221 C 
HETATM   15  C17 UNL     1      19.906  -0.110  52.514  1.00  0.00     0.065 C 
HETATM   16  C18 UNL     1      20.575   0.319  51.195  1.00  0.00     0.275 C 
BRANCH  14  17
HETATM   17  N6  UNL     1      20.443  -0.195  54.845  1.00  0.00     0.083 N 
HETATM   18  H21 UNL     1      19.758  -0.819  55.279  1.00  0.00     0.313 HD
HETATM   19  H22 UNL     1      21.243   0.086  55.456  1.00  0.00     0.313 HD
ENDBRANCH  14  17
ENDBRANCH  10  11
ENDBRANCH   8  10
BRANCH   1  20
HETATM   20  N1  UNL     1      25.657   2.037  51.497  1.00  0.00    -0.310 N 
HETATM   21  C2  UNL     1      25.202   2.430  52.814  1.00  0.00     0.011 A 
HETATM   22  C1  UNL     1      24.527   3.740  53.127  1.00  0.00     0.068 C 
HETATM   23  C3  UNL     1      25.373   1.605  53.846  1.00  0.00     0.006 A 
HETATM   24  C4  UNL     1      26.005   0.286  53.760  1.00  0.00     0.030 A 
HETATM   25  C5  UNL     1      27.152   0.242  54.749  1.00  0.00     0.018 C 
HETATM   26  C6  UNL     1      26.436  -0.035  52.393  1.00  0.00    -0.001 A 
HETATM   27  C7  UNL     1      26.282   0.760  51.348  1.00  0.00     0.095 A 
ENDBRANCH   1  20
TORSDOF 4
ENDMDL
MODEL 8
REMARK VINA RESULT:      -6.9      1.882      5.774
REMARK  4 active torsions:
REMARK  status: ('A' for Active; 'I' for Inactive)
REMARK    1  A    between atoms: N1_8  and  C8_9 
REMARK    2  A    between atoms: C12_16  and  C13_17 
REMARK    3  A    between atoms: C13_17  and  N5_18 
REMARK    4  A    between atoms: C16_21  and  N6_22 
ROOT
HETATM    1  C8  UNL     1      24.805   2.209  51.618  1.00  0.00     0.165 A 
HETATM    2  N2  UNL     1      26.130   2.511  51.491  1.00  0.00    -0.220 NA
HETATM    3  C9  UNL     1      27.020   1.747  52.188  1.00  0.00     0.258 A 
HETATM    4  N3  UNL     1      26.632   0.730  52.974  1.00  0.00    -0.161 NA
HETATM    5  N4  UNL     1      25.330   0.484  53.056  1.00  0.00    -0.240 N 
HETATM    6  C10 UNL     1      24.774  -0.494  53.793  1.00  0.00     0.119 A 
HETATM    7  C11 UNL     1      23.421  -0.366  53.568  1.00  0.00     0.030 A 
HETATM    8  C12 UNL     1      23.128   0.669  52.710  1.00  0.00     0.004 A 
HETATM    9  C19 UNL     1      24.374   1.175  52.415  1.00  0.00     0.112 A 
ENDROOT
BRANCH   8  10
HETATM   10  C13 UNL     1      21.850   1.192  52.177  1.00  0.00     0.313 C 
BRANCH  10  11
HETATM   11  N5  UNL     1      20.939   0.227  51.673  1.00  0.00     0.092 N 
HETATM   12  C14 UNL     1      20.566   0.704  50.332  1.00  0.00     0.275 C 
HETATM   13  C15 UNL     1      19.552   1.808  50.481  1.00  0.00     0.065 C 
HETATM   14  C16 UNL     1      18.201   1.122  50.702  1.00  0.00     0.221 C 
HETATM   15  C17 UNL     1      18.512  -0.129  51.451  1.00  0.00     0.065 C 
HETATM   16  C18 UNL     1      19.730   0.009  52.382  1.00  0.00     0.275 C 
BRANCH  14  17
HETATM   17  N6  UNL     1      17.745   0.761  49.366  1.00  0.00     0.083 N 
HETATM   18  H21 UNL     1      18.251   1.236  48.614  1.00  0.00     0.313 HD
HETATM   19  H22 UNL     1      17.634  -0.271  49.248  1.00  0.00     0.313 HD
ENDBRANCH  14  17
ENDBRANCH  10  11
ENDBRANCH   8  10
BRANCH   1  20
HETATM   20  N1  UNL     1      23.985   3.065  50.843  1.00  0.00    -0.310 N 
HETATM   21  C2  UNL     1      23.531   4.193  51.628  1.00  0.00     0.011 A 
HETATM   22  C1  UNL     1      23.903   4.435  53.068  1.00  0.00     0.068 C 
HETATM   23  C3  UNL     1      22.729   5.102  51.077  1.00  0.00     0.006 A 
HETATM   24  C4  UNL     1      22.249   5.057  49.693  1.00  0.00     0.030 A 
HETATM   25  C5  UNL     1      20.734   5.111  49.712  1.00  0.00     0.018 C 
HETATM   26  C6  UNL     1      22.755   3.884  48.968  1.00  0.00    -0.001 A 
HETATM   27  C7  UNL     1      23.551   2.964  49.484  1.00  0.00     0.095 A 
ENDBRANCH   1  20
TORSDOF 4
ENDMDL
MODEL 9
REMARK VINA RESULT:      -6.9      2.483      5.922
REMARK  4 active torsions:
REMARK  status: ('A' for Active; 'I' for Inactive)
REMARK    1  A    between atoms: N1_8  and  C8_9 
REMARK    2  A    between atoms: C12_16  and  C13_17 
REMARK    3  A    between atoms: C13_17  and  N5_18 
REMARK    4  A    between atoms: C16_21  and  N6_22 
ROOT
HETATM    1  C8  UNL     1      23.389   5.420  51.233  1.00  0.00     0.165 A 
HETATM    2  N2  UNL     1      24.114   6.574  51.320  1.00  0.00    -0.220 NA
HETATM    3  C9  UNL     1      23.541   7.716  50.842  1.00  0.00     0.258 A 
HETATM    4  N3  UNL     1      22.310   7.730  50.302  1.00  0.00    -0.161 NA
HETATM    5  N4  UNL     1      21.655   6.577  50.246  1.00  0.00    -0.240 N 
HETATM    6  C10 UNL     1      20.420   6.416  49.741  1.00  0.00     0.119 A 
HETATM    7  C11 UNL     1      20.158   5.072  49.895  1.00  0.00     0.030 A 
HETATM    8  C12 UNL     1      21.204   4.399  50.484  1.00  0.00     0.004 A 
HETATM    9  C19 UNL     1      22.128   5.401  50.685  1.00  0.00     0.112 A 
ENDROOT
BRANCH   8  10
HETATM   10  C13 UNL     1      21.397   2.978  50.849  1.00  0.00     0.313 C 
BRANCH  10  11
HETATM   11  N5  UNL     1      20.263   2.307  51.376  1.00  0.00     0.092 N 
HETATM   12  C14 UNL     1      20.520   2.179  52.819  1.00  0.00     0.275 C 
HETATM   13  C15 UNL     1      21.485   1.043  53.036  1.00  0.00     0.065 C 
HETATM   14  C16 UNL     1      20.653  -0.241  52.987  1.00  0.00     0.221 C 
HETATM   15  C17 UNL     1      19.555   0.036  52.017  1.00  0.00     0.065 C 
HETATM   16  C18 UNL     1      19.969   1.005  50.895  1.00  0.00     0.275 C 
BRANCH  14  17
HETATM   17  N6  UNL     1      20.075  -0.359  54.320  1.00  0.00     0.083 N 
HETATM   18  H21 UNL     1      20.300  -1.239  54.792  1.00  0.00     0.313 HD
HETATM   19  H22 UNL     1      20.212   0.504  54.893  1.00  0.00     0.313 HD
ENDBRANCH  14  17
ENDBRANCH  10  11
ENDBRANCH   8  10
BRANCH   1  20
HETATM   20  N1  UNL     1      24.086   4.309  51.767  1.00  0.00    -0.310 N 
HETATM   21  C2  UNL     1      24.920   3.691  50.760  1.00  0.00     0.011 A 
HETATM   22  C1  UNL     1      25.048   4.180  49.340  1.00  0.00     0.068 C 
HETATM   23  C3  UNL     1      25.640   2.614  51.068  1.00  0.00     0.006 A 
HETATM   24  C4  UNL     1      25.662   1.978  52.388  1.00  0.00     0.030 A 
HETATM   25  C5  UNL     1      25.291   0.518  52.220  1.00  0.00     0.018 C 
HETATM   26  C6  UNL     1      24.791   2.666  53.350  1.00  0.00    -0.001 A 
HETATM   27  C7  UNL     1      24.063   3.736  53.077  1.00  0.00     0.095 A 
ENDBRANCH   1  20
TORSDOF 4
ENDMDL
