MODEL 1
REMARK VINA RESULT:      -8.6      0.000      0.000
REMARK  9 active torsions:
REMARK  status: ('A' for Active; 'I' for Inactive)
REMARK    1  A    between atoms: O1_1  and  C1_2 
REMARK    2  A    between atoms: C3_5  and  N1_6 
REMARK    3  A    between atoms: N1_6  and  C4_7 
REMARK    4  A    between atoms: N1_6  and  N2_14 
REMARK    5  A    between atoms: C4_7  and  C5_8 
REMARK    6  A    between atoms: N2_14  and  C11_15 
REMARK    7  A    between atoms: C12_16  and  C13_17 
REMARK    8  A    between atoms: C12_16  and  C17_21 
REMARK    9  A    between atoms: C15_19  and  C18_22 
ROOT
HETATM    1  N1  UNL     1      25.239   2.416  51.795  1.00  0.00    -0.246 N 
ENDROOT
BRANCH   1   2
HETATM    2  C3  UNL     1      26.002   3.179  50.773  1.00  0.00     0.191 A 
HETATM    3  S1  UNL     1      24.661   4.469  50.391  1.00  0.00    -0.058 SA
HETATM    4  C2  UNL     1      25.776   5.308  49.118  1.00  0.00     0.111 A 
HETATM    5  C1  UNL     1      26.966   4.435  49.228  1.00  0.00     0.171 A 
HETATM    6  N3  UNL     1      26.864   3.440  50.110  1.00  0.00    -0.198 NA
BRANCH   5   7
HETATM    7  O1  UNL     1      28.203   4.481  48.548  1.00  0.00    -0.344 OA
HETATM    8  H1  UNL     1      28.138   4.246  47.557  1.00  0.00     0.219 HD
ENDBRANCH   5   7
ENDBRANCH   1   2
BRANCH   1   9
HETATM    9  C4  UNL     1      25.931   2.278  53.022  1.00  0.00     0.191 C 
BRANCH   9  10
HETATM   10  C5  UNL     1      26.945   1.234  53.121  1.00  0.00    -0.038 A 
HETATM   11  C6  UNL     1      28.240   1.622  53.492  1.00  0.00     0.009 A 
HETATM   12  C7  UNL     1      29.213   0.645  53.585  1.00  0.00     0.001 A 
HETATM   13  C8  UNL     1      28.999  -0.706  53.336  1.00  0.00     0.000 A 
HETATM   14  C9  UNL     1      27.729  -1.079  52.973  1.00  0.00     0.001 A 
HETATM   15  C10 UNL     1      26.728  -0.108  52.872  1.00  0.00     0.009 A 
ENDBRANCH   9  10
ENDBRANCH   1   9
BRANCH   1  16
HETATM   16  N2  UNL     1      24.012   1.828  51.749  1.00  0.00    -0.197 NA
BRANCH  16  17
HETATM   17  C11 UNL     1      23.327   1.327  52.739  1.00  0.00     0.127 A 
HETATM   18  C12 UNL     1      22.356   0.255  53.365  1.00  0.00     0.024 A 
HETATM   19  C18 UNL     1      22.592   0.202  52.417  1.00  0.00     0.104 A 
HETATM   20 BR1  UNL     1      21.240   0.328  51.033  1.00  0.00    -0.087 Br
BRANCH  18  21
HETATM   21  C13 UNL     1      23.233  -0.813  53.909  1.00  0.00     0.034 A 
HETATM   22  C14 UNL     1      22.458  -1.184  54.928  1.00  0.00    -0.032 A 
HETATM   23  C15 UNL     1      21.950  -0.104  54.053  1.00  0.00     0.006 A 
HETATM   24  C16 UNL     1      20.677   0.328  54.586  1.00  0.00    -0.032 A 
HETATM   25  C17 UNL     1      21.067   1.019  53.500  1.00  0.00     0.034 A 
ENDBRANCH  18  21
ENDBRANCH  16  17
ENDBRANCH   1  16
TORSDOF 9
ENDMDL
MODEL 2
REMARK VINA RESULT:      -8.2      1.798      2.058
REMARK  9 active torsions:
REMARK  status: ('A' for Active; 'I' for Inactive)
REMARK    1  A    between atoms: O1_1  and  C1_2 
REMARK    2  A    between atoms: C3_5  and  N1_6 
REMARK    3  A    between atoms: N1_6  and  C4_7 
REMARK    4  A    between atoms: N1_6  and  N2_14 
REMARK    5  A    between atoms: C4_7  and  C5_8 
REMARK    6  A    between atoms: N2_14  and  C11_15 
REMARK    7  A    between atoms: C12_16  and  C13_17 
REMARK    8  A    between atoms: C12_16  and  C17_21 
REMARK    9  A    between atoms: C15_19  and  C18_22 
ROOT
HETATM    1  N1  UNL     1      24.461   3.008  51.153  1.00  0.00    -0.246 N 
ENDROOT
BRANCH   1   2
HETATM    2  C3  UNL     1      24.423   4.493  51.105  1.00  0.00     0.191 A 
HETATM    3  S1  UNL     1      25.732   4.719  49.746  1.00  0.00    -0.058 SA
HETATM    4  C2  UNL     1      25.552   6.597  49.831  1.00  0.00     0.111 A 
HETATM    5  C1  UNL     1      24.521   6.693  50.889  1.00  0.00     0.171 A 
HETATM    6  N3  UNL     1      24.101   5.527  51.383  1.00  0.00    -0.198 NA
BRANCH   5   7
HETATM    7  O1  UNL     1      23.903   7.822  51.468  1.00  0.00    -0.344 OA
HETATM    8  H1  UNL     1      22.948   7.652  51.785  1.00  0.00     0.219 HD
ENDBRANCH   5   7
ENDBRANCH   1   2
BRANCH   1   9
HETATM    9  C4  UNL     1      25.771   2.479  51.078  1.00  0.00     0.191 C 
BRANCH   9  10
HETATM   10  C5  UNL     1      26.177   1.512  52.092  1.00  0.00    -0.038 A 
HETATM   11  C6  UNL     1      26.225   1.950  53.422  1.00  0.00     0.009 A 
HETATM   12  C7  UNL     1      26.613   1.045  54.393  1.00  0.00     0.001 A 
HETATM   13  C8  UNL     1      26.961  -0.277  54.144  1.00  0.00     0.000 A 
HETATM   14  C9  UNL     1      26.912  -0.699  52.839  1.00  0.00     0.001 A 
HETATM   15  C10 UNL     1      26.523   0.197  51.839  1.00  0.00     0.009 A 
ENDBRANCH   9  10
ENDBRANCH   1   9
BRANCH   1  16
HETATM   16  N2  UNL     1      23.464   2.084  51.243  1.00  0.00    -0.197 NA
BRANCH  16  17
HETATM   17  C11 UNL     1      22.986   1.526  52.319  1.00  0.00     0.127 A 
HETATM   18  C12 UNL     1      22.207   0.380  53.071  1.00  0.00     0.024 A 
HETATM   19  C18 UNL     1      22.289   0.354  52.096  1.00  0.00     0.104 A 
HETATM   20 BR1  UNL     1      20.725   0.394  50.951  1.00  0.00    -0.087 Br
BRANCH  18  21
HETATM   21  C13 UNL     1      23.233  -0.626  53.444  1.00  0.00     0.034 A 
HETATM   22  C14 UNL     1      22.665  -1.057  54.570  1.00  0.00    -0.032 A 
HETATM   23  C15 UNL     1      21.946  -0.011  53.809  1.00  0.00     0.006 A 
HETATM   24  C16 UNL     1      20.751   0.326  54.552  1.00  0.00    -0.032 A 
HETATM   25  C17 UNL     1      20.908   1.050  53.429  1.00  0.00     0.034 A 
ENDBRANCH  18  21
ENDBRANCH  16  17
ENDBRANCH   1  16
TORSDOF 9
ENDMDL
MODEL 3
REMARK VINA RESULT:      -8.2      2.073      4.422
REMARK  9 active torsions:
REMARK  status: ('A' for Active; 'I' for Inactive)
REMARK    1  A    between atoms: O1_1  and  C1_2 
REMARK    2  A    between atoms: C3_5  and  N1_6 
REMARK    3  A    between atoms: N1_6  and  C4_7 
REMARK    4  A    between atoms: N1_6  and  N2_14 
REMARK    5  A    between atoms: C4_7  and  C5_8 
REMARK    6  A    between atoms: N2_14  and  C11_15 
REMARK    7  A    between atoms: C12_16  and  C13_17 
REMARK    8  A    between atoms: C12_16  and  C17_21 
REMARK    9  A    between atoms: C15_19  and  C18_22 
ROOT
HETATM    1  N1  UNL     1      25.808   2.506  52.130  1.00  0.00    -0.246 N 
ENDROOT
BRANCH   1   2
HETATM    2  C3  UNL     1      27.041   2.262  52.923  1.00  0.00     0.191 A 
HETATM    3  S1  UNL     1      27.194   0.403  52.557  1.00  0.00    -0.058 SA
HETATM    4  C2  UNL     1      28.753   0.283  53.615  1.00  0.00     0.111 A 
HETATM    5  C1  UNL     1      28.858   1.694  54.050  1.00  0.00     0.171 A 
HETATM    6  N3  UNL     1      27.905   2.505  53.590  1.00  0.00    -0.198 NA
BRANCH   5   7
HETATM    7  O1  UNL     1      29.809   2.329  54.879  1.00  0.00    -0.344 OA
HETATM    8  H1  UNL     1      29.526   3.259  55.192  1.00  0.00     0.219 HD
ENDBRANCH   5   7
ENDBRANCH   1   2
BRANCH   1   9
HETATM    9  C4  UNL     1      26.026   2.469  50.732  1.00  0.00     0.191 C 
BRANCH   9  10
HETATM   10  C5  UNL     1      26.063   3.737  50.012  1.00  0.00    -0.038 A 
HETATM   11  C6  UNL     1      27.230   4.043  49.299  1.00  0.00     0.009 A 
HETATM   12  C7  UNL     1      27.281   5.243  48.615  1.00  0.00     0.001 A 
HETATM   13  C8  UNL     1      26.252   6.176  48.584  1.00  0.00     0.000 A 
HETATM   14  C9  UNL     1      25.112   5.871  49.285  1.00  0.00     0.001 A 
HETATM   15  C10 UNL     1      25.036   4.663  49.984  1.00  0.00     0.009 A 
ENDBRANCH   9  10
ENDBRANCH   1   9
BRANCH   1  16
HETATM   16  N2  UNL     1      24.527   2.766  52.513  1.00  0.00    -0.197 NA
BRANCH  16  17
HETATM   17  C11 UNL     1      23.678   1.951  53.071  1.00  0.00     0.127 A 
HETATM   18  C12 UNL     1      22.733   0.689  53.052  1.00  0.00     0.024 A 
HETATM   19  C18 UNL     1      23.221   0.943  52.243  1.00  0.00     0.104 A 
HETATM   20 BR1  UNL     1      22.290   1.418  50.611  1.00  0.00    -0.087 Br
BRANCH  18  21
HETATM   21  C13 UNL     1      23.571  -0.447  53.513  1.00  0.00     0.034 A 
HETATM   22  C14 UNL     1      22.642  -1.079  54.231  1.00  0.00    -0.032 A 
HETATM   23  C15 UNL     1      22.230   0.162  53.537  1.00  0.00     0.006 A 
HETATM   24  C16 UNL     1      20.844   0.408  53.869  1.00  0.00    -0.032 A 
HETATM   25  C17 UNL     1      21.384   1.354  53.078  1.00  0.00     0.034 A 
ENDBRANCH  18  21
ENDBRANCH  16  17
ENDBRANCH   1  16
TORSDOF 9
ENDMDL
MODEL 4
REMARK VINA RESULT:      -8.2      3.062      5.817
REMARK  9 active torsions:
REMARK  status: ('A' for Active; 'I' for Inactive)
REMARK    1  A    between atoms: O1_1  and  C1_2 
REMARK    2  A    between atoms: C3_5  and  N1_6 
REMARK    3  A    between atoms: N1_6  and  C4_7 
REMARK    4  A    between atoms: N1_6  and  N2_14 
REMARK    5  A    between atoms: C4_7  and  C5_8 
REMARK    6  A    between atoms: N2_14  and  C11_15 
REMARK    7  A    between atoms: C12_16  and  C13_17 
REMARK    8  A    between atoms: C12_16  and  C17_21 
REMARK    9  A    between atoms: C15_19  and  C18_22 
ROOT
HETATM    1  N1  UNL     1      24.467   0.970  52.401  1.00  0.00    -0.246 N 
ENDROOT
BRANCH   1   2
HETATM    2  C3  UNL     1      23.925   0.085  53.465  1.00  0.00     0.191 A 
HETATM    3  S1  UNL     1      22.084   0.355  53.083  1.00  0.00    -0.058 SA
HETATM    4  C2  UNL     1      21.583  -0.802  54.488  1.00  0.00     0.111 A 
HETATM    5  C1  UNL     1      22.927  -1.175  54.985  1.00  0.00     0.171 A 
HETATM    6  N3  UNL     1      23.949  -0.620  54.332  1.00  0.00    -0.198 NA
BRANCH   5   7
HETATM    7  O1  UNL     1      23.309  -2.027  56.044  1.00  0.00    -0.344 OA
HETATM    8  H1  UNL     1      22.978  -1.720  56.960  1.00  0.00     0.219 HD
ENDBRANCH   5   7
ENDBRANCH   1   2
BRANCH   1   9
HETATM    9  C4  UNL     1      25.708   0.528  51.884  1.00  0.00     0.191 C 
BRANCH   9  10
HETATM   10  C5  UNL     1      26.909   0.794  52.667  1.00  0.00    -0.038 A 
HETATM   11  C6  UNL     1      27.609  -0.309  53.175  1.00  0.00     0.009 A 
HETATM   12  C7  UNL     1      28.746  -0.072  53.923  1.00  0.00     0.001 A 
HETATM   13  C8  UNL     1      29.251   1.190  54.212  1.00  0.00     0.000 A 
HETATM   14  C9  UNL     1      28.561   2.266  53.712  1.00  0.00     0.001 A 
HETATM   15  C10 UNL     1      27.407   2.053  52.952  1.00  0.00     0.009 A 
ENDBRANCH   9  10
ENDBRANCH   1   9
BRANCH   1  16
HETATM   16  N2  UNL     1      23.985   2.122  51.856  1.00  0.00    -0.197 NA
BRANCH  16  17
HETATM   17  C11 UNL     1      24.390   2.725  50.775  1.00  0.00     0.127 A 
HETATM   18  C12 UNL     1      25.013   3.955  50.010  1.00  0.00     0.024 A 
HETATM   19  C18 UNL     1      24.864   4.007  50.975  1.00  0.00     0.104 A 
HETATM   20 BR1  UNL     1      23.679   5.337  51.742  1.00  0.00    -0.087 Br
BRANCH  18  21
HETATM   21  C13 UNL     1      26.478   3.714  49.987  1.00  0.00     0.034 A 
HETATM   22  C14 UNL     1      26.792   4.596  49.038  1.00  0.00    -0.032 A 
HETATM   23  C15 UNL     1      25.367   4.499  49.423  1.00  0.00     0.006 A 
HETATM   24  C16 UNL     1      24.626   5.420  48.588  1.00  0.00    -0.032 A 
HETATM   25  C17 UNL     1      23.850   4.719  49.436  1.00  0.00     0.034 A 
ENDBRANCH  18  21
ENDBRANCH  16  17
ENDBRANCH   1  16
TORSDOF 9
ENDMDL
MODEL 5
REMARK VINA RESULT:      -8.2      1.727      5.092
REMARK  9 active torsions:
REMARK  status: ('A' for Active; 'I' for Inactive)
REMARK    1  A    between atoms: O1_1  and  C1_2 
REMARK    2  A    between atoms: C3_5  and  N1_6 
REMARK    3  A    between atoms: N1_6  and  C4_7 
REMARK    4  A    between atoms: N1_6  and  N2_14 
REMARK    5  A    between atoms: C4_7  and  C5_8 
REMARK    6  A    between atoms: N2_14  and  C11_15 
REMARK    7  A    between atoms: C12_16  and  C13_17 
REMARK    8  A    between atoms: C12_16  and  C17_21 
REMARK    9  A    between atoms: C15_19  and  C18_22 
ROOT
HETATM    1  N1  UNL     1      25.291   1.605  51.715  1.00  0.00    -0.246 N 
ENDROOT
BRANCH   1   2
HETATM    2  C3  UNL     1      25.976   2.662  50.927  1.00  0.00     0.191 A 
HETATM    3  S1  UNL     1      24.412   3.513  50.264  1.00  0.00    -0.058 SA
HETATM    4  C2  UNL     1      25.453   4.774  49.319  1.00  0.00     0.111 A 
HETATM    5  C1  UNL     1      26.804   4.300  49.691  1.00  0.00     0.171 A 
HETATM    6  N3  UNL     1      26.833   3.238  50.498  1.00  0.00    -0.198 NA
BRANCH   5   7
HETATM    7  O1  UNL     1      28.079   4.789  49.333  1.00  0.00    -0.344 OA
HETATM    8  H1  UNL     1      28.779   4.694  50.070  1.00  0.00     0.219 HD
ENDBRANCH   5   7
ENDBRANCH   1   2
BRANCH   1   9
HETATM    9  C4  UNL     1      24.107   2.056  52.346  1.00  0.00     0.191 C 
BRANCH   9  10
HETATM   10  C5  UNL     1      23.105   1.062  52.713  1.00  0.00    -0.038 A 
HETATM   11  C6  UNL     1      21.945   0.993  51.930  1.00  0.00     0.009 A 
HETATM   12  C7  UNL     1      20.984   0.058  52.268  1.00  0.00     0.001 A 
HETATM   13  C8  UNL     1      21.086  -0.825  53.337  1.00  0.00     0.000 A 
HETATM   14  C9  UNL     1      22.225  -0.751  54.100  1.00  0.00     0.001 A 
HETATM   15  C10 UNL     1      23.211   0.185  53.777  1.00  0.00     0.009 A 
ENDBRANCH   9  10
ENDBRANCH   1   9
BRANCH   1  16
HETATM   16  N2  UNL     1      25.609   0.300  51.939  1.00  0.00    -0.197 NA
BRANCH  16  17
HETATM   17  C11 UNL     1      26.786  -0.208  52.171  1.00  0.00     0.127 A 
HETATM   18  C12 UNL     1      27.832  -0.951  53.088  1.00  0.00     0.024 A 
HETATM   19  C18 UNL     1      26.941  -0.745  53.435  1.00  0.00     0.104 A 
HETATM   20 BR1  UNL     1      26.702   0.404  54.978  1.00  0.00    -0.087 Br
BRANCH  18  21
HETATM   21  C13 UNL     1      27.666  -2.398  52.796  1.00  0.00     0.034 A 
HETATM   22  C14 UNL     1      28.914  -2.782  53.066  1.00  0.00    -0.032 A 
HETATM   23  C15 UNL     1      28.596  -1.348  53.246  1.00  0.00     0.006 A 
HETATM   24  C16 UNL     1      29.811  -0.680  53.658  1.00  0.00    -0.032 A 
HETATM   25  C17 UNL     1      28.762   0.151  53.516  1.00  0.00     0.034 A 
ENDBRANCH  18  21
ENDBRANCH  16  17
ENDBRANCH   1  16
TORSDOF 9
ENDMDL
MODEL 6
REMARK VINA RESULT:      -8.2      2.735      5.326
REMARK  9 active torsions:
REMARK  status: ('A' for Active; 'I' for Inactive)
REMARK    1  A    between atoms: O1_1  and  C1_2 
REMARK    2  A    between atoms: C3_5  and  N1_6 
REMARK    3  A    between atoms: N1_6  and  C4_7 
REMARK    4  A    between atoms: N1_6  and  N2_14 
REMARK    5  A    between atoms: C4_7  and  C5_8 
REMARK    6  A    between atoms: N2_14  and  C11_15 
REMARK    7  A    between atoms: C12_16  and  C13_17 
REMARK    8  A    between atoms: C12_16  and  C17_21 
REMARK    9  A    between atoms: C15_19  and  C18_22 
ROOT
HETATM    1  N1  UNL     1      25.737   1.380  52.975  1.00  0.00    -0.246 N 
ENDROOT
BRANCH   1   2
HETATM    2  C3  UNL     1      27.101   1.538  53.543  1.00  0.00     0.191 A 
HETATM    3  S1  UNL     1      27.745  -0.193  53.097  1.00  0.00    -0.058 SA
HETATM    4  C2  UNL     1      29.423   0.188  53.876  1.00  0.00     0.111 A 
HETATM    5  C1  UNL     1      29.168   1.573  54.332  1.00  0.00     0.171 A 
HETATM    6  N3  UNL     1      27.950   2.046  54.063  1.00  0.00    -0.198 NA
BRANCH   5   7
HETATM    7  O1  UNL     1      30.007   2.485  55.010  1.00  0.00    -0.344 OA
HETATM    8  H1  UNL     1      29.590   2.877  55.855  1.00  0.00     0.219 HD
ENDBRANCH   5   7
ENDBRANCH   1   2
BRANCH   1   9
HETATM    9  C4  UNL     1      25.353   0.027  52.811  1.00  0.00     0.191 C 
BRANCH   9  10
HETATM   10  C5  UNL     1      24.131  -0.421  53.469  1.00  0.00    -0.038 A 
HETATM   11  C6  UNL     1      24.233  -0.857  54.798  1.00  0.00     0.009 A 
HETATM   12  C7  UNL     1      23.084  -1.289  55.433  1.00  0.00     0.001 A 
HETATM   13  C8  UNL     1      21.825  -1.324  54.846  1.00  0.00     0.000 A 
HETATM   14  C9  UNL     1      21.732  -0.896  53.545  1.00  0.00     0.001 A 
HETATM   15  C10 UNL     1      22.880  -0.454  52.881  1.00  0.00     0.009 A 
ENDBRANCH   9  10
ENDBRANCH   1   9
BRANCH   1  16
HETATM   16  N2  UNL     1      24.813   2.300  52.581  1.00  0.00    -0.197 NA
BRANCH  16  17
HETATM   17  C11 UNL     1      24.449   2.598  51.367  1.00  0.00     0.127 A 
HETATM   18  C12 UNL     1      23.536   3.355  50.327  1.00  0.00     0.024 A 
HETATM   19  C18 UNL     1      23.369   3.457  51.285  1.00  0.00     0.104 A 
HETATM   20 BR1  UNL     1      21.682   2.922  52.077  1.00  0.00    -0.087 Br
BRANCH  18  21
HETATM   21  C13 UNL     1      24.226   4.640  50.047  1.00  0.00     0.034 A 
HETATM   22  C14 UNL     1      23.936   4.723  48.749  1.00  0.00    -0.032 A 
HETATM   23  C15 UNL     1      23.409   3.552  49.484  1.00  0.00     0.006 A 
HETATM   24  C16 UNL     1      22.700   2.723  48.533  1.00  0.00    -0.032 A 
HETATM   25  C17 UNL     1      22.725   2.213  49.778  1.00  0.00     0.034 A 
ENDBRANCH  18  21
ENDBRANCH  16  17
ENDBRANCH   1  16
TORSDOF 9
ENDMDL
MODEL 7
REMARK VINA RESULT:      -8.0      2.910      6.084
REMARK  9 active torsions:
REMARK  status: ('A' for Active; 'I' for Inactive)
REMARK    1  A    between atoms: O1_1  and  C1_2 
REMARK    2  A    between atoms: C3_5  and  N1_6 
REMARK    3  A    between atoms: N1_6  and  C4_7 
REMARK    4  A    between atoms: N1_6  and  N2_14 
REMARK    5  A    between atoms: C4_7  and  C5_8 
REMARK    6  A    between atoms: N2_14  and  C11_15 
REMARK    7  A    between atoms: C12_16  and  C13_17 
REMARK    8  A    between atoms: C12_16  and  C17_21 
REMARK    9  A    between atoms: C15_19  and  C18_22 
ROOT
HETATM    1  N1  UNL     1      25.123  -0.018  53.393  1.00  0.00    -0.246 N 
ENDROOT
BRANCH   1   2
HETATM    2  C3  UNL     1      26.297  -0.922  53.280  1.00  0.00     0.191 A 
HETATM    3  S1  UNL     1      27.623   0.350  53.766  1.00  0.00    -0.058 SA
HETATM    4  C2  UNL     1      28.988  -0.939  53.565  1.00  0.00     0.111 A 
HETATM    5  C1  UNL     1      28.165  -2.102  53.161  1.00  0.00     0.171 A 
HETATM    6  N3  UNL     1      26.854  -1.871  53.083  1.00  0.00    -0.198 NA
BRANCH   5   7
HETATM    7  O1  UNL     1      28.541  -3.425  52.843  1.00  0.00    -0.344 OA
HETATM    8  H1  UNL     1      29.128  -3.497  52.011  1.00  0.00     0.219 HD
ENDBRANCH   5   7
ENDBRANCH   1   2
BRANCH   1   9
HETATM    9  C4  UNL     1      24.010  -0.622  54.025  1.00  0.00     0.191 C 
BRANCH   9  10
HETATM   10  C5  UNL     1      22.677  -0.249  53.566  1.00  0.00    -0.038 A 
HETATM   11  C6  UNL     1      22.402  -0.383  52.198  1.00  0.00     0.009 A 
HETATM   12  C7  UNL     1      21.145  -0.028  51.748  1.00  0.00     0.001 A 
HETATM   13  C8  UNL     1      20.125   0.456  52.559  1.00  0.00     0.000 A 
HETATM   14  C9  UNL     1      20.401   0.585  53.897  1.00  0.00     0.001 A 
HETATM   15  C10 UNL     1      21.666   0.233  54.377  1.00  0.00     0.009 A 
ENDBRANCH   9  10
ENDBRANCH   1   9
BRANCH   1  16
HETATM   16  N2  UNL     1      24.935   1.269  52.988  1.00  0.00    -0.197 NA
BRANCH  16  17
HETATM   17  C11 UNL     1      24.916   1.730  51.770  1.00  0.00     0.127 A 
HETATM   18  C12 UNL     1      24.689   2.877  50.713  1.00  0.00     0.024 A 
HETATM   19  C18 UNL     1      24.520   3.049  51.661  1.00  0.00     0.104 A 
HETATM   20 BR1  UNL     1      22.761   3.557  52.297  1.00  0.00    -0.087 Br
BRANCH  18  21
HETATM   21  C13 UNL     1      26.005   3.548  50.558  1.00  0.00     0.034 A 
HETATM   22  C14 UNL     1      25.832   4.004  49.318  1.00  0.00    -0.032 A 
HETATM   23  C15 UNL     1      24.710   3.252  49.922  1.00  0.00     0.006 A 
HETATM   24  C16 UNL     1      23.659   3.165  48.931  1.00  0.00    -0.032 A 
HETATM   25  C17 UNL     1      23.367   2.532  50.082  1.00  0.00     0.034 A 
ENDBRANCH  18  21
ENDBRANCH  16  17
ENDBRANCH   1  16
TORSDOF 9
ENDMDL
MODEL 8
REMARK VINA RESULT:      -7.8      2.905      5.794
REMARK  9 active torsions:
REMARK  status: ('A' for Active; 'I' for Inactive)
REMARK    1  A    between atoms: O1_1  and  C1_2 
REMARK    2  A    between atoms: C3_5  and  N1_6 
REMARK    3  A    between atoms: N1_6  and  C4_7 
REMARK    4  A    between atoms: N1_6  and  N2_14 
REMARK    5  A    between atoms: C4_7  and  C5_8 
REMARK    6  A    between atoms: N2_14  and  C11_15 
REMARK    7  A    between atoms: C12_16  and  C13_17 
REMARK    8  A    between atoms: C12_16  and  C17_21 
REMARK    9  A    between atoms: C15_19  and  C18_22 
ROOT
HETATM    1  N1  UNL     1      24.968   2.082  52.469  1.00  0.00    -0.246 N 
ENDROOT
BRANCH   1   2
HETATM    2  C3  UNL     1      26.189   1.662  53.204  1.00  0.00     0.191 A 
HETATM    3  S1  UNL     1      26.648   0.197  52.084  1.00  0.00    -0.058 SA
HETATM    4  C2  UNL     1      28.160  -0.191  53.146  1.00  0.00     0.111 A 
HETATM    5  C1  UNL     1      28.024   0.878  54.160  1.00  0.00     0.171 A 
HETATM    6  N3  UNL     1      26.975   1.686  53.999  1.00  0.00    -0.198 NA
BRANCH   5   7
HETATM    7  O1  UNL     1      28.827   1.188  55.279  1.00  0.00    -0.344 OA
HETATM    8  H1  UNL     1      28.308   1.237  56.157  1.00  0.00     0.219 HD
ENDBRANCH   5   7
ENDBRANCH   1   2
BRANCH   1   9
HETATM    9  C4  UNL     1      24.163   0.994  52.054  1.00  0.00     0.191 C 
BRANCH   9  10
HETATM   10  C5  UNL     1      23.165   0.486  52.989  1.00  0.00    -0.038 A 
HETATM   11  C6  UNL     1      21.897   1.083  52.969  1.00  0.00     0.009 A 
HETATM   12  C7  UNL     1      20.943   0.616  53.853  1.00  0.00     0.001 A 
HETATM   13  C8  UNL     1      21.151  -0.410  54.768  1.00  0.00     0.000 A 
HETATM   14  C9  UNL     1      22.395  -0.989  54.782  1.00  0.00     0.001 A 
HETATM   15  C10 UNL     1      23.377  -0.534  53.897  1.00  0.00     0.009 A 
ENDBRANCH   9  10
ENDBRANCH   1   9
BRANCH   1  16
HETATM   16  N2  UNL     1      24.505   3.315  52.121  1.00  0.00    -0.197 NA
BRANCH  16  17
HETATM   17  C11 UNL     1      23.918   3.665  51.012  1.00  0.00     0.127 A 
HETATM   18  C12 UNL     1      23.829   3.736  49.440  1.00  0.00     0.024 A 
HETATM   19  C18 UNL     1      24.607   3.321  49.865  1.00  0.00     0.104 A 
HETATM   20 BR1  UNL     1      26.395   4.021  49.597  1.00  0.00    -0.087 Br
BRANCH  18  21
HETATM   21  C13 UNL     1      23.083   2.520  49.024  1.00  0.00     0.034 A 
HETATM   22  C14 UNL     1      22.425   3.053  47.995  1.00  0.00    -0.032 A 
HETATM   23  C15 UNL     1      23.351   3.939  48.735  1.00  0.00     0.006 A 
HETATM   24  C16 UNL     1      23.270   5.254  48.137  1.00  0.00    -0.032 A 
HETATM   25  C17 UNL     1      24.104   5.194  49.191  1.00  0.00     0.034 A 
ENDBRANCH  18  21
ENDBRANCH  16  17
ENDBRANCH   1  16
TORSDOF 9
ENDMDL
MODEL 9
REMARK VINA RESULT:      -7.7      2.304      4.639
REMARK  9 active torsions:
REMARK  status: ('A' for Active; 'I' for Inactive)
REMARK    1  A    between atoms: O1_1  and  C1_2 
REMARK    2  A    between atoms: C3_5  and  N1_6 
REMARK    3  A    between atoms: N1_6  and  C4_7 
REMARK    4  A    between atoms: N1_6  and  N2_14 
REMARK    5  A    between atoms: C4_7  and  C5_8 
REMARK    6  A    between atoms: N2_14  and  C11_15 
REMARK    7  A    between atoms: C12_16  and  C13_17 
REMARK    8  A    between atoms: C12_16  and  C17_21 
REMARK    9  A    between atoms: C15_19  and  C18_22 
ROOT
HETATM    1  N1  UNL     1      25.463   1.721  51.785  1.00  0.00    -0.246 N 
ENDROOT
BRANCH   1   2
HETATM    2  C3  UNL     1      26.300   0.578  52.233  1.00  0.00     0.191 A 
HETATM    3  S1  UNL     1      27.658   1.599  53.085  1.00  0.00    -0.058 SA
HETATM    4  C2  UNL     1      28.591   0.029  53.566  1.00  0.00     0.111 A 
HETATM    5  C1  UNL     1      27.682  -0.981  52.978  1.00  0.00     0.171 A 
HETATM    6  N3  UNL     1      26.605  -0.489  52.363  1.00  0.00    -0.198 NA
BRANCH   5   7
HETATM    7  O1  UNL     1      27.766  -2.390  52.961  1.00  0.00    -0.344 OA
HETATM    8  H1  UNL     1      28.636  -2.746  52.561  1.00  0.00     0.219 HD
ENDBRANCH   5   7
ENDBRANCH   1   2
BRANCH   1   9
HETATM    9  C4  UNL     1      26.087   2.515  50.792  1.00  0.00     0.191 C 
BRANCH   9  10
HETATM   10  C5  UNL     1      25.252   3.437  50.031  1.00  0.00    -0.038 A 
HETATM   11  C6  UNL     1      25.616   4.791  50.032  1.00  0.00     0.009 A 
HETATM   12  C7  UNL     1      24.832   5.678  49.319  1.00  0.00     0.001 A 
HETATM   13  C8  UNL     1      23.699   5.323  48.595  1.00  0.00     0.000 A 
HETATM   14  C9  UNL     1      23.348   3.996  48.599  1.00  0.00     0.001 A 
HETATM   15  C10 UNL     1      24.126   3.080  49.312  1.00  0.00     0.009 A 
ENDBRANCH   9  10
ENDBRANCH   1   9
BRANCH   1  16
HETATM   16  N2  UNL     1      24.224   2.135  52.168  1.00  0.00    -0.197 NA
BRANCH  16  17
HETATM   17  C11 UNL     1      23.399   1.541  52.983  1.00  0.00     0.127 A 
HETATM   18  C12 UNL     1      22.362   0.410  53.343  1.00  0.00     0.024 A 
HETATM   19  C18 UNL     1      22.749   0.446  52.445  1.00  0.00     0.104 A 
HETATM   20 BR1  UNL     1      21.638   0.690  50.876  1.00  0.00    -0.087 Br
BRANCH  18  21
HETATM   21  C13 UNL     1      23.162  -0.698  53.925  1.00  0.00     0.034 A 
HETATM   22  C14 UNL     1      22.250  -1.148  54.787  1.00  0.00    -0.032 A 
HETATM   23  C15 UNL     1      21.864  -0.002  53.933  1.00  0.00     0.006 A 
HETATM   24  C16 UNL     1      20.521   0.387  54.305  1.00  0.00    -0.032 A 
HETATM   25  C17 UNL     1      21.059   1.161  53.345  1.00  0.00     0.034 A 
ENDBRANCH  18  21
ENDBRANCH  16  17
ENDBRANCH   1  16
TORSDOF 9
ENDMDL
