MODEL 1
REMARK VINA RESULT:      -8.3      0.000      0.000
REMARK  3 active torsions:
REMARK  status: ('A' for Active; 'I' for Inactive)
REMARK    1  A    between atoms: O1_2  and  C2_3 
REMARK    2  A    between atoms: C6_9  and  N3_10 
REMARK    3  A    between atoms: C17_21  and  O2_22 
ROOT
HETATM    1  C2  UNL     1      22.151   1.776  51.670  1.00  0.00     0.103 A 
HETATM    2  C3  UNL     1      22.787   2.387  50.610  1.00  0.00     0.072 A 
HETATM    3  C4  UNL     1      24.155   2.503  50.687  1.00  0.00     0.075 A 
HETATM    4  N1  UNL     1      24.874   3.080  49.719  1.00  0.00    -0.241 NA
HETATM    5  C5  UNL     1      26.207   3.183  49.819  1.00  0.00     0.236 A 
HETATM    6  N2  UNL     1      26.865   2.711  50.891  1.00  0.00    -0.224 NA
HETATM    7  C6  UNL     1      26.188   2.111  51.914  1.00  0.00     0.140 A 
HETATM    8  C15 UNL     1      24.830   2.019  51.786  1.00  0.00     0.041 A 
HETATM    9  C16 UNL     1      24.160   1.416  52.823  1.00  0.00     0.057 A 
HETATM   10  C17 UNL     1      22.791   1.285  52.776  1.00  0.00     0.102 A 
ENDROOT
BRANCH   7  11
HETATM   11  N3  UNL     1      27.000   1.640  52.989  1.00  0.00    -0.356 N 
HETATM   12  C7  UNL     1      28.187   2.107  53.811  1.00  0.00     0.159 C 
HETATM   13  C8  UNL     1      28.657   0.731  54.114  1.00  0.00    -0.060 C 
HETATM   14  C9  UNL     1      29.702  -0.051  53.862  1.00  0.00     0.004 C 
HETATM   15  C14 UNL     1      27.353   0.312  54.819  1.00  0.00     0.061 C 
HETATM   16  C10 UNL     1      29.344  -1.376  53.248  1.00  0.00    -0.004 C 
HETATM   17  C11 UNL     1      28.089  -1.688  52.827  1.00  0.00    -0.025 C 
HETATM   18  C12 UNL     1      26.939  -0.812  52.575  1.00  0.00     0.053 C 
HETATM   19  C13 UNL     1      26.591   0.280  53.476  1.00  0.00     0.093 C 
ENDBRANCH   7  11
BRANCH  10  20
HETATM   20  O2  UNL     1      22.025   0.702  53.752  1.00  0.00    -0.353 OA
HETATM   21  C18 UNL     1      22.104  -0.682  54.099  1.00  0.00     0.210 C 
ENDBRANCH  10  20
BRANCH   1  22
HETATM   22  O1  UNL     1      20.765   1.674  51.561  1.00  0.00    -0.353 OA
HETATM   23  C1  UNL     1      20.112   0.778  50.724  1.00  0.00     0.210 C 
ENDBRANCH   1  22
TORSDOF 3
ENDMDL
MODEL 2
REMARK VINA RESULT:      -8.2      1.799      5.790
REMARK  3 active torsions:
REMARK  status: ('A' for Active; 'I' for Inactive)
REMARK    1  A    between atoms: O1_2  and  C2_3 
REMARK    2  A    between atoms: C6_9  and  N3_10 
REMARK    3  A    between atoms: C17_21  and  O2_22 
ROOT
HETATM    1  C2  UNL     1      26.445   0.329  53.198  1.00  0.00     0.103 A 
HETATM    2  C3  UNL     1      27.132   1.150  52.329  1.00  0.00     0.072 A 
HETATM    3  C4  UNL     1      26.395   2.078  51.633  1.00  0.00     0.075 A 
HETATM    4  N1  UNL     1      26.956   2.923  50.763  1.00  0.00    -0.241 NA
HETATM    5  C5  UNL     1      26.214   3.818  50.094  1.00  0.00     0.236 A 
HETATM    6  N2  UNL     1      24.886   3.897  50.276  1.00  0.00    -0.224 NA
HETATM    7  C6  UNL     1      24.251   3.063  51.152  1.00  0.00     0.140 A 
HETATM    8  C15 UNL     1      25.032   2.160  51.819  1.00  0.00     0.041 A 
HETATM    9  C16 UNL     1      24.383   1.323  52.695  1.00  0.00     0.057 A 
HETATM   10  C17 UNL     1      25.093   0.383  53.406  1.00  0.00     0.102 A 
ENDROOT
BRANCH   7  11
HETATM   11  N3  UNL     1      22.842   3.254  51.266  1.00  0.00    -0.356 N 
HETATM   12  C7  UNL     1      21.847   3.849  52.247  1.00  0.00     0.159 C 
HETATM   13  C8  UNL     1      20.732   2.968  51.816  1.00  0.00    -0.060 C 
HETATM   14  C9  UNL     1      19.970   1.999  52.312  1.00  0.00     0.004 C 
HETATM   15  C14 UNL     1      20.753   3.455  50.354  1.00  0.00     0.061 C 
HETATM   16  C10 UNL     1      19.963   0.740  51.489  1.00  0.00    -0.004 C 
HETATM   17  C11 UNL     1      20.790   0.539  50.428  1.00  0.00    -0.025 C 
HETATM   18  C12 UNL     1      22.004   1.263  50.034  1.00  0.00     0.053 C 
HETATM   19  C13 UNL     1      22.084   2.718  50.087  1.00  0.00     0.093 C 
ENDBRANCH   7  11
BRANCH  10  20
HETATM   20  O2  UNL     1      24.548  -0.498  54.303  1.00  0.00    -0.353 OA
HETATM   21  C18 UNL     1      23.165  -0.858  54.318  1.00  0.00     0.210 C 
ENDBRANCH  10  20
BRANCH   1  22
HETATM   22  O1  UNL     1      27.221  -0.601  53.888  1.00  0.00    -0.353 OA
HETATM   23  C1  UNL     1      28.559  -0.413  54.214  1.00  0.00     0.210 C 
ENDBRANCH   1  22
TORSDOF 3
ENDMDL
MODEL 3
REMARK VINA RESULT:      -8.2      2.906      6.678
REMARK  3 active torsions:
REMARK  status: ('A' for Active; 'I' for Inactive)
REMARK    1  A    between atoms: O1_2  and  C2_3 
REMARK    2  A    between atoms: C6_9  and  N3_10 
REMARK    3  A    between atoms: C17_21  and  O2_22 
ROOT
HETATM    1  C2  UNL     1      25.933  -0.388  53.787  1.00  0.00     0.103 A 
HETATM    2  C3  UNL     1      24.973  -0.908  54.630  1.00  0.00     0.072 A 
HETATM    3  C4  UNL     1      23.659  -0.686  54.292  1.00  0.00     0.075 A 
HETATM    4  N1  UNL     1      22.648  -1.142  55.037  1.00  0.00    -0.241 NA
HETATM    5  C5  UNL     1      21.374  -0.910  54.687  1.00  0.00     0.236 A 
HETATM    6  N2  UNL     1      21.071  -0.217  53.577  1.00  0.00    -0.224 NA
HETATM    7  C6  UNL     1      22.059   0.275  52.772  1.00  0.00     0.140 A 
HETATM    8  C15 UNL     1      23.348   0.025  53.154  1.00  0.00     0.041 A 
HETATM    9  C16 UNL     1      24.333   0.528  52.338  1.00  0.00     0.057 A 
HETATM   10  C17 UNL     1      25.658   0.324  52.650  1.00  0.00     0.102 A 
ENDROOT
BRANCH   7  11
HETATM   11  N3  UNL     1      21.609   0.983  51.617  1.00  0.00    -0.356 N 
HETATM   12  C7  UNL     1      21.462   0.752  50.124  1.00  0.00     0.159 C 
HETATM   13  C8  UNL     1      21.598   2.190  49.779  1.00  0.00    -0.060 C 
HETATM   14  C9  UNL     1      22.435   2.990  49.125  1.00  0.00     0.004 C 
HETATM   15  C14 UNL     1      20.379   2.629  50.612  1.00  0.00     0.061 C 
HETATM   16  C10 UNL     1      22.925   4.160  49.934  1.00  0.00    -0.004 C 
HETATM   17  C11 UNL     1      22.678   4.302  51.264  1.00  0.00    -0.025 C 
HETATM   18  C12 UNL     1      22.208   3.314  52.242  1.00  0.00     0.053 C 
HETATM   19  C13 UNL     1      21.139   2.373  51.932  1.00  0.00     0.093 C 
ENDBRANCH   7  11
BRANCH  10  20
HETATM   20  O2  UNL     1      26.717   0.779  51.909  1.00  0.00    -0.353 OA
HETATM   21  C18 UNL     1      27.071   2.159  51.798  1.00  0.00     0.210 C 
ENDBRANCH  10  20
BRANCH   1  22
HETATM   22  O1  UNL     1      27.254  -0.629  54.158  1.00  0.00    -0.353 OA
HETATM   23  C1  UNL     1      28.026   0.248  54.910  1.00  0.00     0.210 C 
ENDBRANCH   1  22
TORSDOF 3
ENDMDL
MODEL 4
REMARK VINA RESULT:      -8.0      2.214      6.204
REMARK  3 active torsions:
REMARK  status: ('A' for Active; 'I' for Inactive)
REMARK    1  A    between atoms: O1_2  and  C2_3 
REMARK    2  A    between atoms: C6_9  and  N3_10 
REMARK    3  A    between atoms: C17_21  and  O2_22 
ROOT
HETATM    1  C2  UNL     1      27.144   0.181  53.710  1.00  0.00     0.103 A 
HETATM    2  C3  UNL     1      27.582   1.142  52.823  1.00  0.00     0.072 A 
HETATM    3  C4  UNL     1      26.632   1.737  52.028  1.00  0.00     0.075 A 
HETATM    4  N1  UNL     1      26.944   2.679  51.133  1.00  0.00    -0.241 NA
HETATM    5  C5  UNL     1      25.999   3.243  50.367  1.00  0.00     0.236 A 
HETATM    6  N2  UNL     1      24.709   2.885  50.475  1.00  0.00    -0.224 NA
HETATM    7  C6  UNL     1      24.324   1.929  51.371  1.00  0.00     0.140 A 
HETATM    8  C15 UNL     1      25.309   1.370  52.138  1.00  0.00     0.041 A 
HETATM    9  C16 UNL     1      24.910   0.407  53.034  1.00  0.00     0.057 A 
HETATM   10  C17 UNL     1      25.838  -0.209  53.843  1.00  0.00     0.102 A 
ENDROOT
BRANCH   7  11
HETATM   11  N3  UNL     1      22.925   1.645  51.399  1.00  0.00    -0.356 N 
HETATM   12  C7  UNL     1      21.928   0.752  50.684  1.00  0.00     0.159 C 
HETATM   13  C8  UNL     1      20.779   1.664  50.918  1.00  0.00    -0.060 C 
HETATM   14  C9  UNL     1      19.938   2.417  50.218  1.00  0.00     0.004 C 
HETATM   15  C14 UNL     1      20.895   1.610  52.453  1.00  0.00     0.061 C 
HETATM   16  C10 UNL     1      19.888   3.855  50.656  1.00  0.00    -0.004 C 
HETATM   17  C11 UNL     1      20.746   4.385  51.568  1.00  0.00    -0.025 C 
HETATM   18  C12 UNL     1      22.019   3.860  52.076  1.00  0.00     0.053 C 
HETATM   19  C13 UNL     1      22.188   2.455  52.425  1.00  0.00     0.093 C 
ENDBRANCH   7  11
BRANCH  10  20
HETATM   20  O2  UNL     1      25.550  -1.178  54.768  1.00  0.00    -0.353 OA
HETATM   21  C18 UNL     1      24.333  -1.224  55.515  1.00  0.00     0.210 C 
ENDBRANCH  10  20
BRANCH   1  22
HETATM   22  O1  UNL     1      28.131  -0.404  54.500  1.00  0.00    -0.353 OA
HETATM   23  C1  UNL     1      29.397  -0.748  54.042  1.00  0.00     0.210 C 
ENDBRANCH   1  22
TORSDOF 3
ENDMDL
MODEL 5
REMARK VINA RESULT:      -8.0      2.826      6.488
REMARK  3 active torsions:
REMARK  status: ('A' for Active; 'I' for Inactive)
REMARK    1  A    between atoms: O1_2  and  C2_3 
REMARK    2  A    between atoms: C6_9  and  N3_10 
REMARK    3  A    between atoms: C17_21  and  O2_22 
ROOT
HETATM    1  C2  UNL     1      26.462   0.386  54.300  1.00  0.00     0.103 A 
HETATM    2  C3  UNL     1      25.399  -0.458  54.059  1.00  0.00     0.072 A 
HETATM    3  C4  UNL     1      24.301   0.085  53.434  1.00  0.00     0.075 A 
HETATM    4  N1  UNL     1      23.213  -0.640  53.153  1.00  0.00    -0.241 NA
HETATM    5  C5  UNL     1      22.154  -0.087  52.545  1.00  0.00     0.236 A 
HETATM    6  N2  UNL     1      22.150   1.210  52.195  1.00  0.00    -0.224 NA
HETATM    7  C6  UNL     1      23.231   2.005  52.453  1.00  0.00     0.140 A 
HETATM    8  C15 UNL     1      24.296   1.415  53.075  1.00  0.00     0.041 A 
HETATM    9  C16 UNL     1      25.376   2.225  53.333  1.00  0.00     0.057 A 
HETATM   10  C17 UNL     1      26.489   1.712  53.958  1.00  0.00     0.102 A 
ENDROOT
BRANCH   7  11
HETATM   11  N3  UNL     1      23.109   3.360  52.022  1.00  0.00    -0.356 N 
HETATM   12  C7  UNL     1      22.318   4.604  52.382  1.00  0.00     0.159 C 
HETATM   13  C8  UNL     1      22.385   5.175  51.012  1.00  0.00    -0.060 C 
HETATM   14  C9  UNL     1      21.565   5.480  50.012  1.00  0.00     0.004 C 
HETATM   15  C14 UNL     1      23.924   5.226  50.980  1.00  0.00     0.061 C 
HETATM   16  C10 UNL     1      21.941   4.855  48.697  1.00  0.00    -0.004 C 
HETATM   17  C11 UNL     1      22.925   3.925  48.568  1.00  0.00    -0.025 C 
HETATM   18  C12 UNL     1      23.594   3.118  49.595  1.00  0.00     0.053 C 
HETATM   19  C13 UNL     1      24.013   3.688  50.870  1.00  0.00     0.093 C 
ENDBRANCH   7  11
BRANCH  10  20
HETATM   20  O2  UNL     1      27.617   2.428  54.261  1.00  0.00    -0.353 OA
HETATM   21  C18 UNL     1      28.700   2.623  53.349  1.00  0.00     0.210 C 
ENDBRANCH  10  20
BRANCH   1  22
HETATM   22  O1  UNL     1      27.559  -0.194  54.935  1.00  0.00    -0.353 OA
HETATM   23  C1  UNL     1      28.661  -0.714  54.269  1.00  0.00     0.210 C 
ENDBRANCH   1  22
TORSDOF 3
ENDMDL
MODEL 6
REMARK VINA RESULT:      -7.9      2.221      5.554
REMARK  3 active torsions:
REMARK  status: ('A' for Active; 'I' for Inactive)
REMARK    1  A    between atoms: O1_2  and  C2_3 
REMARK    2  A    between atoms: C6_9  and  N3_10 
REMARK    3  A    between atoms: C17_21  and  O2_22 
ROOT
HETATM    1  C2  UNL     1      27.388   0.525  53.891  1.00  0.00     0.103 A 
HETATM    2  C3  UNL     1      27.655   1.284  52.771  1.00  0.00     0.072 A 
HETATM    3  C4  UNL     1      26.573   1.750  52.061  1.00  0.00     0.075 A 
HETATM    4  N1  UNL     1      26.714   2.493  50.959  1.00  0.00    -0.241 NA
HETATM    5  C5  UNL     1      25.643   2.932  50.282  1.00  0.00     0.236 A 
HETATM    6  N2  UNL     1      24.395   2.645  50.688  1.00  0.00    -0.224 NA
HETATM    7  C6  UNL     1      24.184   1.890  51.807  1.00  0.00     0.140 A 
HETATM    8  C15 UNL     1      25.293   1.455  52.476  1.00  0.00     0.041 A 
HETATM    9  C16 UNL     1      25.068   0.694  53.598  1.00  0.00     0.057 A 
HETATM   10  C17 UNL     1      26.129   0.212  54.330  1.00  0.00     0.102 A 
ENDROOT
BRANCH   7  11
HETATM   11  N3  UNL     1      22.815   1.664  52.141  1.00  0.00    -0.356 N 
HETATM   12  C7  UNL     1      21.675   2.389  52.834  1.00  0.00     0.159 C 
HETATM   13  C8  UNL     1      20.996   1.138  53.260  1.00  0.00    -0.060 C 
HETATM   14  C9  UNL     1      20.685   0.498  54.382  1.00  0.00     0.004 C 
HETATM   15  C14 UNL     1      20.809   0.610  51.825  1.00  0.00     0.061 C 
HETATM   16  C10 UNL     1      21.170  -0.925  54.431  1.00  0.00    -0.004 C 
HETATM   17  C11 UNL     1      21.998  -1.463  53.496  1.00  0.00    -0.025 C 
HETATM   18  C12 UNL     1      22.822  -0.800  52.479  1.00  0.00     0.053 C 
HETATM   19  C13 UNL     1      22.320   0.320  51.692  1.00  0.00     0.093 C 
ENDBRANCH   7  11
BRANCH  10  20
HETATM   20  O2  UNL     1      26.019  -0.553  55.461  1.00  0.00    -0.353 OA
HETATM   21  C18 UNL     1      24.790  -1.126  55.913  1.00  0.00     0.210 C 
ENDBRANCH  10  20
BRANCH   1  22
HETATM   22  O1  UNL     1      28.505   0.068  54.588  1.00  0.00    -0.353 OA
HETATM   23  C1  UNL     1      29.535  -0.667  54.016  1.00  0.00     0.210 C 
ENDBRANCH   1  22
TORSDOF 3
ENDMDL
MODEL 7
REMARK VINA RESULT:      -7.8      2.820      7.111
REMARK  3 active torsions:
REMARK  status: ('A' for Active; 'I' for Inactive)
REMARK    1  A    between atoms: O1_2  and  C2_3 
REMARK    2  A    between atoms: C6_9  and  N3_10 
REMARK    3  A    between atoms: C17_21  and  O2_22 
ROOT
HETATM    1  C2  UNL     1      26.255  -0.051  53.049  1.00  0.00     0.103 A 
HETATM    2  C3  UNL     1      25.484  -0.753  53.952  1.00  0.00     0.072 A 
HETATM    3  C4  UNL     1      24.140  -0.463  53.983  1.00  0.00     0.075 A 
HETATM    4  N1  UNL     1      23.300  -1.080  54.819  1.00  0.00    -0.241 NA
HETATM    5  C5  UNL     1      21.994  -0.778  54.832  1.00  0.00     0.236 A 
HETATM    6  N2  UNL     1      21.485   0.151  54.006  1.00  0.00    -0.224 NA
HETATM    7  C6  UNL     1      22.291   0.818  53.127  1.00  0.00     0.140 A 
HETATM    8  C15 UNL     1      23.618   0.490  53.136  1.00  0.00     0.041 A 
HETATM    9  C16 UNL     1      24.419   1.169  52.250  1.00  0.00     0.057 A 
HETATM   10  C17 UNL     1      25.768   0.902  52.195  1.00  0.00     0.102 A 
ENDROOT
BRANCH   7  11
HETATM   11  N3  UNL     1      21.630   1.771  52.295  1.00  0.00    -0.356 N 
HETATM   12  C7  UNL     1      21.285   3.248  52.305  1.00  0.00     0.159 C 
HETATM   13  C8  UNL     1      20.087   3.086  51.442  1.00  0.00    -0.060 C 
HETATM   14  C9  UNL     1      18.768   3.230  51.519  1.00  0.00     0.004 C 
HETATM   15  C14 UNL     1      20.873   2.489  50.259  1.00  0.00     0.061 C 
HETATM   16  C10 UNL     1      17.992   2.003  51.123  1.00  0.00    -0.004 C 
HETATM   17  C11 UNL     1      18.576   0.801  50.875  1.00  0.00    -0.025 C 
HETATM   18  C12 UNL     1      19.925   0.326  51.203  1.00  0.00     0.053 C 
HETATM   19  C13 UNL     1      21.102   1.168  51.026  1.00  0.00     0.093 C 
ENDBRANCH   7  11
BRANCH  10  20
HETATM   20  O2  UNL     1      26.655   1.518  51.352  1.00  0.00    -0.353 OA
HETATM   21  C18 UNL     1      26.398   2.767  50.706  1.00  0.00     0.210 C 
ENDBRANCH  10  20
BRANCH   1  22
HETATM   22  O1  UNL     1      27.612  -0.367  53.042  1.00  0.00    -0.353 OA
HETATM   23  C1  UNL     1      28.460  -0.192  54.129  1.00  0.00     0.210 C 
ENDBRANCH   1  22
TORSDOF 3
ENDMDL
MODEL 8
REMARK VINA RESULT:      -7.6      2.105      5.495
REMARK  3 active torsions:
REMARK  status: ('A' for Active; 'I' for Inactive)
REMARK    1  A    between atoms: O1_2  and  C2_3 
REMARK    2  A    between atoms: C6_9  and  N3_10 
REMARK    3  A    between atoms: C17_21  and  O2_22 
ROOT
HETATM    1  C2  UNL     1      22.360   0.279  53.617  1.00  0.00     0.103 A 
HETATM    2  C3  UNL     1      23.674  -0.130  53.528  1.00  0.00     0.072 A 
HETATM    3  C4  UNL     1      24.523   0.658  52.788  1.00  0.00     0.075 A 
HETATM    4  N1  UNL     1      25.816   0.357  52.633  1.00  0.00    -0.241 NA
HETATM    5  C5  UNL     1      26.624   1.141  51.904  1.00  0.00     0.236 A 
HETATM    6  N2  UNL     1      26.165   2.253  51.308  1.00  0.00    -0.224 NA
HETATM    7  C6  UNL     1      24.854   2.617  51.429  1.00  0.00     0.140 A 
HETATM    8  C15 UNL     1      24.053   1.800  52.177  1.00  0.00     0.041 A 
HETATM    9  C16 UNL     1      22.735   2.174  52.289  1.00  0.00     0.057 A 
HETATM   10  C17 UNL     1      21.860   1.406  53.021  1.00  0.00     0.102 A 
ENDROOT
BRANCH   7  11
HETATM   11  N3  UNL     1      24.492   3.826  50.761  1.00  0.00    -0.356 N 
HETATM   12  C7  UNL     1      24.098   5.249  51.112  1.00  0.00     0.159 C 
HETATM   13  C8  UNL     1      23.299   5.447  49.876  1.00  0.00    -0.060 C 
HETATM   14  C9  UNL     1      22.035   5.655  49.521  1.00  0.00     0.004 C 
HETATM   15  C14 UNL     1      24.484   5.191  48.925  1.00  0.00     0.061 C 
HETATM   16  C10 UNL     1      21.510   4.670  48.513  1.00  0.00    -0.004 C 
HETATM   17  C11 UNL     1      22.199   3.564  48.123  1.00  0.00    -0.025 C 
HETATM   18  C12 UNL     1      23.361   2.916  48.741  1.00  0.00     0.053 C 
HETATM   19  C13 UNL     1      24.483   3.684  49.267  1.00  0.00     0.093 C 
ENDBRANCH   7  11
BRANCH  10  20
HETATM   20  O2  UNL     1      20.530   1.687  53.198  1.00  0.00    -0.353 OA
HETATM   21  C18 UNL     1      19.646   2.034  52.130  1.00  0.00     0.210 C 
ENDBRANCH  10  20
BRANCH   1  22
HETATM   22  O1  UNL     1      21.524  -0.540  54.373  1.00  0.00    -0.353 OA
HETATM   23  C1  UNL     1      21.494  -1.926  54.276  1.00  0.00     0.210 C 
ENDBRANCH   1  22
TORSDOF 3
ENDMDL
MODEL 9
REMARK VINA RESULT:      -7.5      7.011      8.938
REMARK  3 active torsions:
REMARK  status: ('A' for Active; 'I' for Inactive)
REMARK    1  A    between atoms: O1_2  and  C2_3 
REMARK    2  A    between atoms: C6_9  and  N3_10 
REMARK    3  A    between atoms: C17_21  and  O2_22 
ROOT
HETATM    1  C2  UNL     1      27.719   6.950  48.618  1.00  0.00     0.103 A 
HETATM    2  C3  UNL     1      28.567   8.037  48.576  1.00  0.00     0.072 A 
HETATM    3  C4  UNL     1      29.891   7.784  48.308  1.00  0.00     0.075 A 
HETATM    4  N1  UNL     1      30.801   8.761  48.245  1.00  0.00    -0.241 NA
HETATM    5  C5  UNL     1      32.088   8.489  47.984  1.00  0.00     0.236 A 
HETATM    6  N2  UNL     1      32.506   7.230  47.775  1.00  0.00    -0.224 NA
HETATM    7  C6  UNL     1      31.626   6.187  47.824  1.00  0.00     0.140 A 
HETATM    8  C15 UNL     1      30.321   6.493  48.093  1.00  0.00     0.041 A 
HETATM    9  C16 UNL     1      29.445   5.435  48.144  1.00  0.00     0.057 A 
HETATM   10  C17 UNL     1      28.113   5.655  48.411  1.00  0.00     0.102 A 
ENDROOT
BRANCH   7  11
HETATM   11  N3  UNL     1      32.189   4.900  47.573  1.00  0.00    -0.356 N 
HETATM   12  C7  UNL     1      32.895   3.795  48.336  1.00  0.00     0.159 C 
HETATM   13  C8  UNL     1      33.636   3.299  47.148  1.00  0.00    -0.060 C 
HETATM   14  C9  UNL     1      34.889   3.198  46.718  1.00  0.00     0.004 C 
HETATM   15  C14 UNL     1      32.364   2.981  46.339  1.00  0.00     0.061 C 
HETATM   16  C10 UNL     1      35.128   3.820  45.369  1.00  0.00    -0.004 C 
HETATM   17  C11 UNL     1      34.198   4.569  44.720  1.00  0.00    -0.025 C 
HETATM   18  C12 UNL     1      32.969   5.188  45.228  1.00  0.00     0.053 C 
HETATM   19  C13 UNL     1      32.071   4.484  46.135  1.00  0.00     0.093 C 
ENDBRANCH   7  11
BRANCH  10  20
HETATM   20  O2  UNL     1      27.156   4.676  48.484  1.00  0.00    -0.353 OA
HETATM   21  C18 UNL     1      26.857   3.949  49.678  1.00  0.00     0.210 C 
ENDBRANCH  10  20
BRANCH   1  22
HETATM   22  O1  UNL     1      26.384   7.238  48.893  1.00  0.00    -0.353 OA
HETATM   23  C1  UNL     1      25.959   8.037  49.947  1.00  0.00     0.210 C 
ENDBRANCH   1  22
TORSDOF 3
ENDMDL
