MODEL 1
REMARK VINA RESULT:      -8.7      0.000      0.000
REMARK  4 active torsions:
REMARK  status: ('A' for Active; 'I' for Inactive)
REMARK    1  A    between atoms: O1_2  and  C2_3 
REMARK    2  A    between atoms: C6_9  and  N3_10 
REMARK    3  A    between atoms: N3_10  and  C7_12 
REMARK    4  A    between atoms: C15_22  and  O2_23 
ROOT
HETATM    1  C2  UNL     1      19.930  -0.371  52.788  1.00  0.00     0.103 A 
HETATM    2  C3  UNL     1      20.401  -1.009  53.917  1.00  0.00     0.072 A 
HETATM    3  C4  UNL     1      21.739  -0.969  54.240  1.00  0.00     0.075 A 
HETATM    4  N1  UNL     1      22.238  -1.563  55.311  1.00  0.00    -0.241 NA
HETATM    5  C5  UNL     1      23.542  -1.518  55.617  1.00  0.00     0.236 A 
HETATM    6  N2  UNL     1      24.390  -0.857  54.830  1.00  0.00    -0.223 NA
HETATM    7  C6  UNL     1      24.010  -0.212  53.713  1.00  0.00     0.154 A 
HETATM    8  C13 UNL     1      22.663  -0.303  53.468  1.00  0.00     0.043 A 
HETATM    9  C14 UNL     1      22.183   0.328  52.346  1.00  0.00     0.057 A 
HETATM   10  C15 UNL     1      20.847   0.293  52.018  1.00  0.00     0.102 A 
ENDROOT
BRANCH   7  11
HETATM   11  N3  UNL     1      24.973   0.466  52.926  1.00  0.00    -0.261 N 
HETATM   12 BR1  UNL     1      25.114   1.839  51.643  1.00  0.00     0.057 Br
BRANCH  11  13
HETATM   13  C7  UNL     1      26.348   0.062  53.109  1.00  0.00     0.049 A 
HETATM   14  C8  UNL     1      26.951  -1.122  52.795  1.00  0.00     0.034 A 
HETATM   15  C9  UNL     1      28.292  -1.325  53.030  1.00  0.00     0.046 A 
HETATM   16  C10 UNL     1      29.097  -0.359  53.586  1.00  0.00     0.138 A 
HETATM   17  F1  UNL     1      30.401  -0.646  53.780  1.00  0.00    -0.204 F 
HETATM   18  C11 UNL     1      28.499   0.855  53.911  1.00  0.00     0.074 A 
HETATM   19 CL1  UNL     1      29.620   2.010  54.613  1.00  0.00    -0.081 Cl
HETATM   20  C12 UNL     1      27.160   1.045  53.673  1.00  0.00     0.057 A 
ENDBRANCH  11  13
ENDBRANCH   7  11
BRANCH  10  21
HETATM   21  O2  UNL     1      20.351   0.931  50.880  1.00  0.00    -0.353 OA
HETATM   22  C16 UNL     1      21.116   0.992  49.702  1.00  0.00     0.210 C 
ENDBRANCH  10  21
BRANCH   1  23
HETATM   23  O1  UNL     1      18.591  -0.397  52.444  1.00  0.00    -0.353 OA
HETATM   24  C1  UNL     1      17.670  -1.302  53.035  1.00  0.00     0.210 C 
ENDBRANCH   1  23
TORSDOF 4
ENDMDL
MODEL 2
REMARK VINA RESULT:      -8.0      4.436      6.790
REMARK  4 active torsions:
REMARK  status: ('A' for Active; 'I' for Inactive)
REMARK    1  A    between atoms: O1_2  and  C2_3 
REMARK    2  A    between atoms: C6_9  and  N3_10 
REMARK    3  A    between atoms: N3_10  and  C7_12 
REMARK    4  A    between atoms: C15_22  and  O2_23 
ROOT
HETATM    1  C2  UNL     1      26.867  -0.239  53.682  1.00  0.00     0.103 A 
HETATM    2  C3  UNL     1      25.678  -0.846  54.027  1.00  0.00     0.072 A 
HETATM    3  C4  UNL     1      24.472  -0.256  53.720  1.00  0.00     0.075 A 
HETATM    4  N1  UNL     1      23.306  -0.799  54.029  1.00  0.00    -0.241 NA
HETATM    5  C5  UNL     1      22.138  -0.216  53.725  1.00  0.00     0.236 A 
HETATM    6  N2  UNL     1      22.121   0.955  53.090  1.00  0.00    -0.223 NA
HETATM    7  C6  UNL     1      23.236   1.610  52.721  1.00  0.00     0.154 A 
HETATM    8  C13 UNL     1      24.389   0.952  53.065  1.00  0.00     0.043 A 
HETATM    9  C14 UNL     1      25.580   1.548  52.727  1.00  0.00     0.057 A 
HETATM   10  C15 UNL     1      26.788   0.963  53.030  1.00  0.00     0.102 A 
ENDROOT
BRANCH   7  11
HETATM   11  N3  UNL     1      23.135   2.854  52.050  1.00  0.00    -0.261 N 
HETATM   12 BR1  UNL     1      23.263   4.707  52.371  1.00  0.00     0.057 Br
BRANCH  11  13
HETATM   13  C7  UNL     1      22.868   2.796  50.632  1.00  0.00     0.049 A 
HETATM   14  C8  UNL     1      22.438   1.746  49.874  1.00  0.00     0.034 A 
HETATM   15  C9  UNL     1      22.221   1.882  48.521  1.00  0.00     0.046 A 
HETATM   16  C10 UNL     1      22.420   3.070  47.859  1.00  0.00     0.138 A 
HETATM   17  F1  UNL     1      22.182   3.112  46.532  1.00  0.00    -0.204 F 
HETATM   18  C11 UNL     1      22.858   4.153  48.617  1.00  0.00     0.074 A 
HETATM   19 CL1  UNL     1      23.078   5.614  47.669  1.00  0.00    -0.081 Cl
HETATM   20  C12 UNL     1      23.072   4.004  49.965  1.00  0.00     0.057 A 
ENDBRANCH  11  13
ENDBRANCH   7  11
BRANCH  10  21
HETATM   21  O2  UNL     1      28.002   1.561  52.689  1.00  0.00    -0.353 OA
HETATM   22  C16 UNL     1      28.610   2.489  53.553  1.00  0.00     0.210 C 
ENDBRANCH  10  21
BRANCH   1  23
HETATM   23  O1  UNL     1      28.088  -0.813  53.979  1.00  0.00    -0.353 OA
HETATM   24  C1  UNL     1      28.706  -1.773  53.134  1.00  0.00     0.210 C 
ENDBRANCH   1  23
TORSDOF 4
ENDMDL
MODEL 3
REMARK VINA RESULT:      -7.8      4.266      6.273
REMARK  4 active torsions:
REMARK  status: ('A' for Active; 'I' for Inactive)
REMARK    1  A    between atoms: O1_2  and  C2_3 
REMARK    2  A    between atoms: C6_9  and  N3_10 
REMARK    3  A    between atoms: N3_10  and  C7_12 
REMARK    4  A    between atoms: C15_22  and  O2_23 
ROOT
HETATM    1  C2  UNL     1      25.970  -0.406  53.821  1.00  0.00     0.103 A 
HETATM    2  C3  UNL     1      24.875  -0.840  54.538  1.00  0.00     0.072 A 
HETATM    3  C4  UNL     1      23.597  -0.559  54.109  1.00  0.00     0.075 A 
HETATM    4  N1  UNL     1      22.516  -0.954  54.760  1.00  0.00    -0.241 NA
HETATM    5  C5  UNL     1      21.276  -0.676  54.333  1.00  0.00     0.236 A 
HETATM    6  N2  UNL     1      21.097   0.025  53.214  1.00  0.00    -0.223 NA
HETATM    7  C6  UNL     1      22.112   0.485  52.461  1.00  0.00     0.154 A 
HETATM    8  C13 UNL     1      23.348   0.160  52.962  1.00  0.00     0.043 A 
HETATM    9  C14 UNL     1      24.445   0.588  52.256  1.00  0.00     0.057 A 
HETATM   10  C15 UNL     1      25.725   0.309  52.680  1.00  0.00     0.102 A 
ENDROOT
BRANCH   7  11
HETATM   11  N3  UNL     1      21.840   1.226  51.285  1.00  0.00    -0.261 N 
HETATM   12 BR1  UNL     1      21.188   1.004  49.531  1.00  0.00     0.057 Br
BRANCH  11  13
HETATM   13  C7  UNL     1      22.090   2.647  51.352  1.00  0.00     0.049 A 
HETATM   14  C8  UNL     1      21.740   3.543  52.320  1.00  0.00     0.034 A 
HETATM   15  C9  UNL     1      22.082   4.873  52.221  1.00  0.00     0.046 A 
HETATM   16  C10 UNL     1      22.789   5.374  51.154  1.00  0.00     0.138 A 
HETATM   17  F1  UNL     1      23.080   6.691  51.139  1.00  0.00    -0.204 F 
HETATM   18  C11 UNL     1      23.156   4.474  50.157  1.00  0.00     0.074 A 
HETATM   19 CL1  UNL     1      24.052   5.223  48.846  1.00  0.00    -0.081 Cl
HETATM   20  C12 UNL     1      22.807   3.151  50.267  1.00  0.00     0.057 A 
ENDBRANCH  11  13
ENDBRANCH   7  11
BRANCH  10  21
HETATM   21  O2  UNL     1      26.846   0.741  51.969  1.00  0.00    -0.353 OA
HETATM   22  C16 UNL     1      27.142   2.111  51.861  1.00  0.00     0.210 C 
ENDBRANCH  10  21
BRANCH   1  23
HETATM   23  O1  UNL     1      27.261  -0.677  54.233  1.00  0.00    -0.353 OA
HETATM   24  C1  UNL     1      28.032   0.249  54.984  1.00  0.00     0.210 C 
ENDBRANCH   1  23
TORSDOF 4
ENDMDL
MODEL 4
REMARK VINA RESULT:      -7.5      4.966      7.724
REMARK  4 active torsions:
REMARK  status: ('A' for Active; 'I' for Inactive)
REMARK    1  A    between atoms: O1_2  and  C2_3 
REMARK    2  A    between atoms: C6_9  and  N3_10 
REMARK    3  A    between atoms: N3_10  and  C7_12 
REMARK    4  A    between atoms: C15_22  and  O2_23 
ROOT
HETATM    1  C2  UNL     1      27.348   0.056  53.684  1.00  0.00     0.103 A 
HETATM    2  C3  UNL     1      27.661   1.032  52.760  1.00  0.00     0.072 A 
HETATM    3  C4  UNL     1      26.669   1.679  52.057  1.00  0.00     0.075 A 
HETATM    4  N1  UNL     1      26.918   2.621  51.163  1.00  0.00    -0.241 NA
HETATM    5  C5  UNL     1      25.945   3.245  50.486  1.00  0.00     0.236 A 
HETATM    6  N2  UNL     1      24.669   2.923  50.699  1.00  0.00    -0.223 NA
HETATM    7  C6  UNL     1      24.284   1.983  51.580  1.00  0.00     0.154 A 
HETATM    8  C13 UNL     1      25.335   1.391  52.235  1.00  0.00     0.043 A 
HETATM    9  C14 UNL     1      25.034   0.417  53.156  1.00  0.00     0.057 A 
HETATM   10  C15 UNL     1      26.022  -0.232  53.862  1.00  0.00     0.102 A 
ENDROOT
BRANCH   7  11
HETATM   11  N3  UNL     1      22.907   1.696  51.749  1.00  0.00    -0.261 N 
HETATM   12 BR1  UNL     1      21.686   1.081  53.047  1.00  0.00     0.057 Br
BRANCH  11  13
HETATM   13  C7  UNL     1      22.057   1.945  50.609  1.00  0.00     0.049 A 
HETATM   14  C8  UNL     1      21.988   1.280  49.419  1.00  0.00     0.034 A 
HETATM   15  C9  UNL     1      21.093   1.655  48.441  1.00  0.00     0.046 A 
HETATM   16  C10 UNL     1      20.224   2.707  48.603  1.00  0.00     0.138 A 
HETATM   17  F1  UNL     1      19.381   3.004  47.591  1.00  0.00    -0.204 F 
HETATM   18  C11 UNL     1      20.279   3.396  49.811  1.00  0.00     0.074 A 
HETATM   19 CL1  UNL     1      19.127   4.718  49.906  1.00  0.00    -0.081 Cl
HETATM   20  C12 UNL     1      21.177   3.013  50.777  1.00  0.00     0.057 A 
ENDBRANCH  11  13
ENDBRANCH   7  11
BRANCH  10  21
HETATM   21  O2  UNL     1      25.725  -1.222  54.800  1.00  0.00    -0.353 OA
HETATM   22  C16 UNL     1      24.490  -1.227  55.470  1.00  0.00     0.210 C 
ENDBRANCH  10  21
BRANCH   1  23
HETATM   23  O1  UNL     1      28.327  -0.606  54.400  1.00  0.00    -0.353 OA
HETATM   24  C1  UNL     1      29.619  -0.861  53.870  1.00  0.00     0.210 C 
ENDBRANCH   1  23
TORSDOF 4
ENDMDL
MODEL 5
REMARK VINA RESULT:      -7.4      4.697      5.654
REMARK  4 active torsions:
REMARK  status: ('A' for Active; 'I' for Inactive)
REMARK    1  A    between atoms: O1_2  and  C2_3 
REMARK    2  A    between atoms: C6_9  and  N3_10 
REMARK    3  A    between atoms: N3_10  and  C7_12 
REMARK    4  A    between atoms: C15_22  and  O2_23 
ROOT
HETATM    1  C2  UNL     1      22.547   0.240  53.678  1.00  0.00     0.103 A 
HETATM    2  C3  UNL     1      23.916   0.077  53.630  1.00  0.00     0.072 A 
HETATM    3  C4  UNL     1      24.676   0.785  52.725  1.00  0.00     0.075 A 
HETATM    4  N1  UNL     1      25.990   0.665  52.642  1.00  0.00    -0.241 NA
HETATM    5  C5  UNL     1      26.721   1.359  51.758  1.00  0.00     0.236 A 
HETATM    6  N2  UNL     1      26.127   2.208  50.920  1.00  0.00    -0.223 NA
HETATM    7  C6  UNL     1      24.800   2.420  50.903  1.00  0.00     0.154 A 
HETATM    8  C13 UNL     1      24.121   1.676  51.836  1.00  0.00     0.043 A 
HETATM    9  C14 UNL     1      22.757   1.829  51.892  1.00  0.00     0.057 A 
HETATM   10  C15 UNL     1      21.991   1.125  52.794  1.00  0.00     0.102 A 
ENDROOT
BRANCH   7  11
HETATM   11  N3  UNL     1      24.242   3.338  49.979  1.00  0.00    -0.261 N 
HETATM   12 BR1  UNL     1      23.009   3.419  48.557  1.00  0.00     0.057 Br
BRANCH  11  13
HETATM   13  C7  UNL     1      24.684   4.708  50.093  1.00  0.00     0.049 A 
HETATM   14  C8  UNL     1      24.243   5.694  50.927  1.00  0.00     0.034 A 
HETATM   15  C9  UNL     1      24.801   6.952  50.905  1.00  0.00     0.046 A 
HETATM   16  C10 UNL     1      25.825   7.290  50.052  1.00  0.00     0.138 A 
HETATM   17  F1  UNL     1      26.310   8.547  50.098  1.00  0.00    -0.204 F 
HETATM   18  C11 UNL     1      26.288   6.296  49.194  1.00  0.00     0.074 A 
HETATM   19 CL1  UNL     1      27.593   6.838  48.151  1.00  0.00    -0.081 Cl
HETATM   20  C12 UNL     1      25.723   5.045  49.225  1.00  0.00     0.057 A 
ENDBRANCH  11  13
ENDBRANCH   7  11
BRANCH  10  21
HETATM   21  O2  UNL     1      20.606   1.275  52.858  1.00  0.00    -0.353 OA
HETATM   22  C16 UNL     1      19.983   2.417  52.323  1.00  0.00     0.210 C 
ENDBRANCH  10  21
BRANCH   1  23
HETATM   23  O1  UNL     1      21.764  -0.459  54.577  1.00  0.00    -0.353 OA
HETATM   24  C1  UNL     1      21.389  -1.813  54.371  1.00  0.00     0.210 C 
ENDBRANCH   1  23
TORSDOF 4
ENDMDL
MODEL 6
REMARK VINA RESULT:      -7.3      4.625      6.015
REMARK  4 active torsions:
REMARK  status: ('A' for Active; 'I' for Inactive)
REMARK    1  A    between atoms: O1_2  and  C2_3 
REMARK    2  A    between atoms: C6_9  and  N3_10 
REMARK    3  A    between atoms: N3_10  and  C7_12 
REMARK    4  A    between atoms: C15_22  and  O2_23 
ROOT
HETATM    1  C2  UNL     1      24.322  -0.028  53.576  1.00  0.00     0.103 A 
HETATM    2  C3  UNL     1      22.987   0.194  53.844  1.00  0.00     0.072 A 
HETATM    3  C4  UNL     1      22.231   1.004  53.025  1.00  0.00     0.075 A 
HETATM    4  N1  UNL     1      20.949   1.246  53.239  1.00  0.00    -0.241 NA
HETATM    5  C5  UNL     1      20.222   2.036  52.435  1.00  0.00     0.236 A 
HETATM    6  N2  UNL     1      20.788   2.612  51.375  1.00  0.00    -0.223 NA
HETATM    7  C6  UNL     1      22.082   2.447  51.049  1.00  0.00     0.154 A 
HETATM    8  C13 UNL     1      22.758   1.626  51.916  1.00  0.00     0.043 A 
HETATM    9  C14 UNL     1      24.088   1.399  51.659  1.00  0.00     0.057 A 
HETATM   10  C15 UNL     1      24.849   0.590  52.473  1.00  0.00     0.102 A 
ENDROOT
BRANCH   7  11
HETATM   11  N3  UNL     1      22.610   3.096  49.906  1.00  0.00    -0.261 N 
HETATM   12 BR1  UNL     1      22.616   2.979  48.025  1.00  0.00     0.057 Br
BRANCH  11  13
HETATM   13  C7  UNL     1      23.413   4.271  50.152  1.00  0.00     0.049 A 
HETATM   14  C8  UNL     1      23.186   5.311  51.007  1.00  0.00     0.034 A 
HETATM   15  C9  UNL     1      24.082   6.350  51.121  1.00  0.00     0.046 A 
HETATM   16  C10 UNL     1      25.245   6.404  50.391  1.00  0.00     0.138 A 
HETATM   17  F1  UNL     1      26.064   7.462  50.567  1.00  0.00    -0.204 F 
HETATM   18  C11 UNL     1      25.493   5.351  49.514  1.00  0.00     0.074 A 
HETATM   19 CL1  UNL     1      27.004   5.526  48.636  1.00  0.00    -0.081 Cl
HETATM   20  C12 UNL     1      24.592   4.321  49.409  1.00  0.00     0.057 A 
ENDBRANCH  11  13
ENDBRANCH   7  11
BRANCH  10  21
HETATM   21  O2  UNL     1      26.201   0.353  52.220  1.00  0.00    -0.353 OA
HETATM   22  C16 UNL     1      27.150   1.378  52.382  1.00  0.00     0.210 C 
ENDBRANCH  10  21
BRANCH   1  23
HETATM   23  O1  UNL     1      25.099  -0.837  54.383  1.00  0.00    -0.353 OA
HETATM   24  C1  UNL     1      24.722  -1.180  55.708  1.00  0.00     0.210 C 
ENDBRANCH   1  23
TORSDOF 4
ENDMDL
MODEL 7
REMARK VINA RESULT:      -7.3      5.222      7.842
REMARK  4 active torsions:
REMARK  status: ('A' for Active; 'I' for Inactive)
REMARK    1  A    between atoms: O1_2  and  C2_3 
REMARK    2  A    between atoms: C6_9  and  N3_10 
REMARK    3  A    between atoms: N3_10  and  C7_12 
REMARK    4  A    between atoms: C15_22  and  O2_23 
ROOT
HETATM    1  C2  UNL     1      26.383   0.524  53.564  1.00  0.00     0.103 A 
HETATM    2  C3  UNL     1      27.076   1.360  52.714  1.00  0.00     0.072 A 
HETATM    3  C4  UNL     1      26.424   2.038  51.708  1.00  0.00     0.075 A 
HETATM    4  N1  UNL     1      27.044   2.851  50.869  1.00  0.00    -0.241 NA
HETATM    5  C5  UNL     1      26.399   3.507  49.894  1.00  0.00     0.236 A 
HETATM    6  N2  UNL     1      25.084   3.351  49.740  1.00  0.00    -0.223 NA
HETATM    7  C6  UNL     1      24.339   2.554  50.526  1.00  0.00     0.154 A 
HETATM    8  C13 UNL     1      25.069   1.919  51.499  1.00  0.00     0.043 A 
HETATM    9  C14 UNL     1      24.388   1.083  52.351  1.00  0.00     0.057 A 
HETATM   10  C15 UNL     1      25.035   0.404  53.359  1.00  0.00     0.102 A 
ENDROOT
BRANCH   7  11
HETATM   11  N3  UNL     1      22.946   2.439  50.297  1.00  0.00    -0.261 N 
HETATM   12 BR1  UNL     1      21.616   1.144  49.968  1.00  0.00     0.057 Br
BRANCH  11  13
HETATM   13  C7  UNL     1      22.189   3.669  50.326  1.00  0.00     0.049 A 
HETATM   14  C8  UNL     1      22.150   4.639  51.285  1.00  0.00     0.034 A 
HETATM   15  C9  UNL     1      21.372   5.764  51.133  1.00  0.00     0.046 A 
HETATM   16  C10 UNL     1      20.597   5.979  50.018  1.00  0.00     0.138 A 
HETATM   17  F1  UNL     1      19.866   7.111  49.953  1.00  0.00    -0.204 F 
HETATM   18  C11 UNL     1      20.626   5.000  49.028  1.00  0.00     0.074 A 
HETATM   19 CL1  UNL     1      19.600   5.378  47.654  1.00  0.00    -0.081 Cl
HETATM   20  C12 UNL     1      21.405   3.882  49.193  1.00  0.00     0.057 A 
ENDBRANCH  11  13
ENDBRANCH   7  11
BRANCH  10  21
HETATM   21  O2  UNL     1      24.351  -0.447  54.229  1.00  0.00    -0.353 OA
HETATM   22  C16 UNL     1      23.017  -0.809  53.975  1.00  0.00     0.210 C 
ENDBRANCH  10  21
BRANCH   1  23
HETATM   23  O1  UNL     1      27.017  -0.165  54.580  1.00  0.00    -0.353 OA
HETATM   24  C1  UNL     1      28.380   0.051  54.914  1.00  0.00     0.210 C 
ENDBRANCH   1  23
TORSDOF 4
ENDMDL
MODEL 8
REMARK VINA RESULT:      -7.2      1.901      2.376
REMARK  4 active torsions:
REMARK  status: ('A' for Active; 'I' for Inactive)
REMARK    1  A    between atoms: O1_2  and  C2_3 
REMARK    2  A    between atoms: C6_9  and  N3_10 
REMARK    3  A    between atoms: N3_10  and  C7_12 
REMARK    4  A    between atoms: C15_22  and  O2_23 
ROOT
HETATM    1  C2  UNL     1      20.945   1.575  51.730  1.00  0.00     0.103 A 
HETATM    2  C3  UNL     1      20.724   1.009  52.968  1.00  0.00     0.072 A 
HETATM    3  C4  UNL     1      21.715   0.290  53.599  1.00  0.00     0.075 A 
HETATM    4  N1  UNL     1      21.552  -0.271  54.786  1.00  0.00    -0.241 NA
HETATM    5  C5  UNL     1      22.523  -0.968  55.391  1.00  0.00     0.236 A 
HETATM    6  N2  UNL     1      23.707  -1.119  54.798  1.00  0.00    -0.223 NA
HETATM    7  C6  UNL     1      23.999  -0.600  53.592  1.00  0.00     0.154 A 
HETATM    8  C13 UNL     1      22.957   0.100  53.038  1.00  0.00     0.043 A 
HETATM    9  C14 UNL     1      23.166   0.668  51.804  1.00  0.00     0.057 A 
HETATM   10  C15 UNL     1      22.179   1.388  51.169  1.00  0.00     0.102 A 
ENDROOT
BRANCH   7  11
HETATM   11  N3  UNL     1      25.281  -0.807  53.026  1.00  0.00    -0.261 N 
HETATM   12 BR1  UNL     1      26.221  -2.018  51.931  1.00  0.00     0.057 Br
BRANCH  11  13
HETATM   13  C7  UNL     1      26.272   0.208  53.299  1.00  0.00     0.049 A 
HETATM   14  C8  UNL     1      26.101   1.532  53.581  1.00  0.00     0.034 A 
HETATM   15  C9  UNL     1      27.176   2.354  53.832  1.00  0.00     0.046 A 
HETATM   16  C10 UNL     1      28.472   1.898  53.817  1.00  0.00     0.138 A 
HETATM   17  F1  UNL     1      29.464   2.775  54.075  1.00  0.00    -0.204 F 
HETATM   18  C11 UNL     1      28.666   0.549  53.532  1.00  0.00     0.074 A 
HETATM   19 CL1  UNL     1      30.358   0.078  53.539  1.00  0.00    -0.081 Cl
HETATM   20  C12 UNL     1      27.585  -0.260  53.282  1.00  0.00     0.057 A 
ENDBRANCH  11  13
ENDBRANCH   7  11
BRANCH  10  21
HETATM   21  O2  UNL     1      22.383   1.968  49.916  1.00  0.00    -0.353 OA
HETATM   22  C16 UNL     1      21.903   1.345  48.751  1.00  0.00     0.210 C 
ENDBRANCH  10  21
BRANCH   1  23
HETATM   23  O1  UNL     1      19.965   2.301  51.079  1.00  0.00    -0.353 OA
HETATM   24  C1  UNL     1      19.247   3.351  51.710  1.00  0.00     0.210 C 
ENDBRANCH   1  23
TORSDOF 4
ENDMDL
MODEL 9
REMARK VINA RESULT:      -7.0      3.076      3.497
REMARK  4 active torsions:
REMARK  status: ('A' for Active; 'I' for Inactive)
REMARK    1  A    between atoms: O1_2  and  C2_3 
REMARK    2  A    between atoms: C6_9  and  N3_10 
REMARK    3  A    between atoms: N3_10  and  C7_12 
REMARK    4  A    between atoms: C15_22  and  O2_23 
ROOT
HETATM    1  C2  UNL     1      19.815  -0.271  52.051  1.00  0.00     0.103 A 
HETATM    2  C3  UNL     1      20.085  -0.825  53.285  1.00  0.00     0.072 A 
HETATM    3  C4  UNL     1      21.368  -0.832  53.787  1.00  0.00     0.075 A 
HETATM    4  N1  UNL     1      21.676  -1.350  54.964  1.00  0.00    -0.241 NA
HETATM    5  C5  UNL     1      22.928  -1.351  55.444  1.00  0.00     0.236 A 
HETATM    6  N2  UNL     1      23.918  -0.818  54.729  1.00  0.00    -0.223 NA
HETATM    7  C6  UNL     1      23.736  -0.261  53.519  1.00  0.00     0.154 A 
HETATM    8  C13 UNL     1      22.431  -0.297  53.096  1.00  0.00     0.043 A 
HETATM    9  C14 UNL     1      22.151   0.252  51.869  1.00  0.00     0.057 A 
HETATM   10  C15 UNL     1      20.871   0.262  51.361  1.00  0.00     0.102 A 
ENDROOT
BRANCH   7  11
HETATM   11  N3  UNL     1      24.841   0.283  52.818  1.00  0.00    -0.261 N 
HETATM   12 BR1  UNL     1      26.535  -0.201  52.150  1.00  0.00     0.057 Br
BRANCH  11  13
HETATM   13  C7  UNL     1      24.724   1.664  52.411  1.00  0.00     0.049 A 
HETATM   14  C8  UNL     1      24.020   2.680  52.990  1.00  0.00     0.034 A 
HETATM   15  C9  UNL     1      24.038   3.952  52.464  1.00  0.00     0.046 A 
HETATM   16  C10 UNL     1      24.759   4.274  51.339  1.00  0.00     0.138 A 
HETATM   17  F1  UNL     1      24.719   5.547  50.893  1.00  0.00    -0.204 F 
HETATM   18  C11 UNL     1      25.485   3.250  50.736  1.00  0.00     0.074 A 
HETATM   19 CL1  UNL     1      26.365   3.774  49.310  1.00  0.00    -0.081 Cl
HETATM   20  C12 UNL     1      25.457   1.985  51.270  1.00  0.00     0.057 A 
ENDBRANCH  11  13
ENDBRANCH   7  11
BRANCH  10  21
HETATM   21  O2  UNL     1      20.578   0.818  50.115  1.00  0.00    -0.353 OA
HETATM   22  C16 UNL     1      21.557   1.532  49.402  1.00  0.00     0.210 C 
ENDBRANCH  10  21
BRANCH   1  23
HETATM   23  O1  UNL     1      18.536  -0.253  51.527  1.00  0.00    -0.353 OA
HETATM   24  C1  UNL     1      17.599   0.766  51.840  1.00  0.00     0.210 C 
ENDBRANCH   1  23
TORSDOF 4
ENDMDL
