MODEL 1
REMARK VINA RESULT:      -8.1      0.000      0.000
REMARK  5 active torsions:
REMARK  status: ('A' for Active; 'I' for Inactive)
REMARK    1  A    between atoms: C6_7  and  N2_8 
REMARK    2  A    between atoms: N2_8  and  C7_9 
REMARK    3  A    between atoms: C10_12  and  O1_13 
REMARK    4  A    between atoms: O1_13  and  C11_14 
REMARK    5  A    between atoms: C11_14  and  C12_15 
ROOT
HETATM    1  N1  UNL     1      29.405   2.114  54.942  1.00  0.00    -0.191 NA
HETATM    2  C1  UNL     1      29.151   1.087  54.470  1.00  0.00     0.101 C 
HETATM    3  C2  UNL     1      28.862  -0.195  53.889  1.00  0.00     0.067 A 
HETATM    4  C3  UNL     1      29.667  -1.218  53.616  1.00  0.00     0.002 A 
HETATM    5  C4  UNL     1      28.894  -2.341  53.011  1.00  0.00     0.058 A 
HETATM    6  C5  UNL     1      27.517  -1.787  52.985  1.00  0.00     0.008 A 
HETATM    7  C6  UNL     1      27.530  -0.574  53.486  1.00  0.00     0.049 A 
ENDROOT
BRANCH   7   8
HETATM    8  N2  UNL     1      26.270   0.078  53.522  1.00  0.00    -0.355 N 
HETATM    9  H5  UNL     1      25.510  -0.259  54.147  1.00  0.00     0.166 HD
BRANCH   8  10
HETATM   10  C7  UNL     1      25.960   1.228  52.713  1.00  0.00     0.032 A 
HETATM   11  C8  UNL     1      26.757   1.684  51.665  1.00  0.00     0.032 A 
HETATM   12  C9  UNL     1      26.341   2.813  50.959  1.00  0.00     0.039 A 
HETATM   13  C10 UNL     1      25.152   3.463  51.303  1.00  0.00     0.069 A 
HETATM   14  C18 UNL     1      24.362   3.012  52.340  1.00  0.00     0.039 A 
HETATM   15  C19 UNL     1      24.777   1.897  53.033  1.00  0.00     0.032 A 
BRANCH  13  16
HETATM   16  O1  UNL     1      24.748   4.566  50.611  1.00  0.00    -0.347 OA
BRANCH  16  17
HETATM   17  C11 UNL     1      24.582   4.667  49.225  1.00  0.00     0.214 C 
BRANCH  17  18
HETATM   18  C12 UNL     1      25.583   5.642  48.712  1.00  0.00    -0.034 A 
HETATM   19  C13 UNL     1      26.947   5.413  48.702  1.00  0.00     0.009 A 
HETATM   20  C14 UNL     1      27.848   6.349  48.215  1.00  0.00     0.001 A 
HETATM   21  C15 UNL     1      27.318   7.531  47.736  1.00  0.00     0.000 A 
HETATM   22  C16 UNL     1      25.963   7.821  47.718  1.00  0.00     0.001 A 
HETATM   23  C17 UNL     1      25.099   6.854  48.217  1.00  0.00     0.009 A 
ENDBRANCH  17  18
ENDBRANCH  16  17
ENDBRANCH  13  16
ENDBRANCH   8  10
ENDBRANCH   7   8
TORSDOF 5
ENDMDL
MODEL 2
REMARK VINA RESULT:      -8.0      2.461      3.481
REMARK  5 active torsions:
REMARK  status: ('A' for Active; 'I' for Inactive)
REMARK    1  A    between atoms: C6_7  and  N2_8 
REMARK    2  A    between atoms: N2_8  and  C7_9 
REMARK    3  A    between atoms: C10_12  and  O1_13 
REMARK    4  A    between atoms: O1_13  and  C11_14 
REMARK    5  A    between atoms: C11_14  and  C12_15 
ROOT
HETATM    1  N1  UNL     1      29.355   2.364  54.663  1.00  0.00    -0.191 NA
HETATM    2  C1  UNL     1      29.205   1.280  54.283  1.00  0.00     0.101 C 
HETATM    3  C2  UNL     1      29.046  -0.069  53.815  1.00  0.00     0.067 A 
HETATM    4  C3  UNL     1      29.954  -1.010  53.575  1.00  0.00     0.002 A 
HETATM    5  C4  UNL     1      29.295  -2.260  53.098  1.00  0.00     0.058 A 
HETATM    6  C5  UNL     1      27.861  -1.874  53.107  1.00  0.00     0.008 A 
HETATM    7  C6  UNL     1      27.752  -0.631  53.516  1.00  0.00     0.049 A 
ENDROOT
BRANCH   7   8
HETATM    8  N2  UNL     1      26.426  -0.130  53.573  1.00  0.00    -0.355 N 
HETATM    9  H5  UNL     1      25.713  -0.569  54.190  1.00  0.00     0.166 HD
BRANCH   8  10
HETATM   10  C7  UNL     1      25.981   1.000  52.797  1.00  0.00     0.032 A 
HETATM   11  C8  UNL     1      26.476   1.324  51.535  1.00  0.00     0.032 A 
HETATM   12  C9  UNL     1      25.958   2.447  50.889  1.00  0.00     0.039 A 
HETATM   13  C10 UNL     1      24.967   3.221  51.502  1.00  0.00     0.069 A 
HETATM   14  C18 UNL     1      24.477   2.899  52.751  1.00  0.00     0.039 A 
HETATM   15  C19 UNL     1      24.991   1.790  53.384  1.00  0.00     0.032 A 
BRANCH  13  16
HETATM   16  O1  UNL     1      24.463   4.317  50.868  1.00  0.00    -0.347 OA
BRANCH  16  17
HETATM   17  C11 UNL     1      23.119   4.559  50.562  1.00  0.00     0.214 C 
BRANCH  17  18
HETATM   18  C12 UNL     1      22.608   3.395  49.788  1.00  0.00    -0.034 A 
HETATM   19  C13 UNL     1      22.946   3.137  48.472  1.00  0.00     0.009 A 
HETATM   20  C14 UNL     1      22.448   2.039  47.784  1.00  0.00     0.001 A 
HETATM   21  C15 UNL     1      21.591   1.208  48.479  1.00  0.00     0.000 A 
HETATM   22  C16 UNL     1      21.214   1.411  49.797  1.00  0.00     0.001 A 
HETATM   23  C17 UNL     1      21.738   2.523  50.444  1.00  0.00     0.009 A 
ENDBRANCH  17  18
ENDBRANCH  16  17
ENDBRANCH  13  16
ENDBRANCH   8  10
ENDBRANCH   7   8
TORSDOF 5
ENDMDL
MODEL 3
REMARK VINA RESULT:      -7.9      4.936      7.629
REMARK  5 active torsions:
REMARK  status: ('A' for Active; 'I' for Inactive)
REMARK    1  A    between atoms: C6_7  and  N2_8 
REMARK    2  A    between atoms: N2_8  and  C7_9 
REMARK    3  A    between atoms: C10_12  and  O1_13 
REMARK    4  A    between atoms: O1_13  and  C11_14 
REMARK    5  A    between atoms: C11_14  and  C12_15 
ROOT
HETATM    1  N1  UNL     1      29.273   1.773  54.964  1.00  0.00    -0.191 NA
HETATM    2  C1  UNL     1      28.895   0.835  54.400  1.00  0.00     0.101 C 
HETATM    3  C2  UNL     1      28.448  -0.343  53.709  1.00  0.00     0.067 A 
HETATM    4  C3  UNL     1      29.034  -1.526  53.554  1.00  0.00     0.002 A 
HETATM    5  C4  UNL     1      28.169  -2.435  52.749  1.00  0.00     0.058 A 
HETATM    6  C5  UNL     1      26.993  -1.572  52.471  1.00  0.00     0.008 A 
HETATM    7  C6  UNL     1      27.179  -0.398  53.025  1.00  0.00     0.049 A 
ENDROOT
BRANCH   7   8
HETATM    8  N2  UNL     1      26.124   0.532  52.835  1.00  0.00    -0.355 N 
HETATM    9  H5  UNL     1      26.312   1.492  52.480  1.00  0.00     0.166 HD
BRANCH   8  10
HETATM   10  C7  UNL     1      24.746   0.222  53.116  1.00  0.00     0.032 A 
HETATM   11  C8  UNL     1      24.331  -0.673  54.100  1.00  0.00     0.032 A 
HETATM   12  C9  UNL     1      22.963  -0.884  54.270  1.00  0.00     0.039 A 
HETATM   13  C10 UNL     1      22.039  -0.210  53.466  1.00  0.00     0.069 A 
HETATM   14  C18 UNL     1      22.449   0.676  52.491  1.00  0.00     0.039 A 
HETATM   15  C19 UNL     1      23.800   0.881  52.329  1.00  0.00     0.032 A 
BRANCH  13  16
HETATM   16  O1  UNL     1      20.702  -0.418  53.634  1.00  0.00    -0.347 OA
BRANCH  16  17
HETATM   17  C11 UNL     1      19.667   0.176  52.904  1.00  0.00     0.214 C 
BRANCH  17  18
HETATM   18  C12 UNL     1      18.517  -0.768  52.884  1.00  0.00    -0.034 A 
HETATM   19  C13 UNL     1      17.344  -0.539  52.188  1.00  0.00     0.009 A 
HETATM   20  C14 UNL     1      16.294  -1.446  52.194  1.00  0.00     0.001 A 
HETATM   21  C15 UNL     1      16.473  -2.599  52.934  1.00  0.00     0.000 A 
HETATM   22  C16 UNL     1      17.622  -2.887  53.652  1.00  0.00     0.001 A 
HETATM   23  C17 UNL     1      18.647  -1.949  53.616  1.00  0.00     0.009 A 
ENDBRANCH  17  18
ENDBRANCH  16  17
ENDBRANCH  13  16
ENDBRANCH   8  10
ENDBRANCH   7   8
TORSDOF 5
ENDMDL
MODEL 4
REMARK VINA RESULT:      -7.8      2.345      7.607
REMARK  5 active torsions:
REMARK  status: ('A' for Active; 'I' for Inactive)
REMARK    1  A    between atoms: C6_7  and  N2_8 
REMARK    2  A    between atoms: N2_8  and  C7_9 
REMARK    3  A    between atoms: C10_12  and  O1_13 
REMARK    4  A    between atoms: O1_13  and  C11_14 
REMARK    5  A    between atoms: C11_14  and  C12_15 
ROOT
HETATM    1  N1  UNL     1      28.485   4.900  48.546  1.00  0.00    -0.191 NA
HETATM    2  C1  UNL     1      27.402   5.307  48.599  1.00  0.00     0.101 C 
HETATM    3  C2  UNL     1      26.067   5.836  48.655  1.00  0.00     0.067 A 
HETATM    4  C3  UNL     1      25.611   7.056  48.386  1.00  0.00     0.002 A 
HETATM    5  C4  UNL     1      24.136   7.118  48.592  1.00  0.00     0.058 A 
HETATM    6  C5  UNL     1      23.827   5.730  49.022  1.00  0.00     0.008 A 
HETATM    7  C6  UNL     1      24.937   5.030  49.048  1.00  0.00     0.049 A 
ENDROOT
BRANCH   7   8
HETATM    8  N2  UNL     1      24.786   3.676  49.445  1.00  0.00    -0.355 N 
HETATM    9  H5  UNL     1      24.294   2.991  48.837  1.00  0.00     0.166 HD
BRANCH   8  10
HETATM   10  C7  UNL     1      25.293   3.164  50.692  1.00  0.00     0.032 A 
HETATM   11  C8  UNL     1      26.595   2.703  50.876  1.00  0.00     0.032 A 
HETATM   12  C9  UNL     1      26.959   2.232  52.137  1.00  0.00     0.039 A 
HETATM   13  C10 UNL     1      26.033   2.225  53.184  1.00  0.00     0.069 A 
HETATM   14  C18 UNL     1      24.743   2.682  53.003  1.00  0.00     0.039 A 
HETATM   15  C19 UNL     1      24.389   3.146  51.756  1.00  0.00     0.032 A 
BRANCH  13  16
HETATM   16  O1  UNL     1      26.392   1.764  54.416  1.00  0.00    -0.347 OA
BRANCH  16  17
HETATM   17  C11 UNL     1      26.258   0.453  54.887  1.00  0.00     0.214 C 
BRANCH  17  18
HETATM   18  C12 UNL     1      27.285  -0.385  54.209  1.00  0.00    -0.034 A 
HETATM   19  C13 UNL     1      26.986  -1.389  53.305  1.00  0.00     0.009 A 
HETATM   20  C14 UNL     1      27.974  -2.148  52.695  1.00  0.00     0.001 A 
HETATM   21  C15 UNL     1      29.281  -1.855  53.032  1.00  0.00     0.000 A 
HETATM   22  C16 UNL     1      29.645  -0.864  53.929  1.00  0.00     0.001 A 
HETATM   23  C17 UNL     1      28.622  -0.129  54.515  1.00  0.00     0.009 A 
ENDBRANCH  17  18
ENDBRANCH  16  17
ENDBRANCH  13  16
ENDBRANCH   8  10
ENDBRANCH   7   8
TORSDOF 5
ENDMDL
MODEL 5
REMARK VINA RESULT:      -7.6      1.670      2.823
REMARK  5 active torsions:
REMARK  status: ('A' for Active; 'I' for Inactive)
REMARK    1  A    between atoms: C6_7  and  N2_8 
REMARK    2  A    between atoms: N2_8  and  C7_9 
REMARK    3  A    between atoms: C10_12  and  O1_13 
REMARK    4  A    between atoms: O1_13  and  C11_14 
REMARK    5  A    between atoms: C11_14  and  C12_15 
ROOT
HETATM    1  N1  UNL     1      26.701  -2.769  51.960  1.00  0.00    -0.191 NA
HETATM    2  C1  UNL     1      27.371  -2.019  52.534  1.00  0.00     0.101 C 
HETATM    3  C2  UNL     1      28.224  -1.098  53.233  1.00  0.00     0.067 A 
HETATM    4  C3  UNL     1      29.549  -0.976  53.227  1.00  0.00     0.002 A 
HETATM    5  C4  UNL     1      29.973   0.139  54.122  1.00  0.00     0.058 A 
HETATM    6  C5  UNL     1      28.670   0.630  54.639  1.00  0.00     0.008 A 
HETATM    7  C6  UNL     1      27.702  -0.088  54.120  1.00  0.00     0.049 A 
ENDROOT
BRANCH   7   8
HETATM    8  N2  UNL     1      26.394   0.277  54.532  1.00  0.00    -0.355 N 
HETATM    9  H5  UNL     1      26.019  -0.024  55.454  1.00  0.00     0.166 HD
BRANCH   8  10
HETATM   10  C7  UNL     1      25.509   1.072  53.719  1.00  0.00     0.032 A 
HETATM   11  C8  UNL     1      25.507   2.466  53.702  1.00  0.00     0.032 A 
HETATM   12  C9  UNL     1      24.597   3.116  52.868  1.00  0.00     0.039 A 
HETATM   13  C10 UNL     1      23.714   2.379  52.074  1.00  0.00     0.069 A 
HETATM   14  C18 UNL     1      23.716   0.999  52.091  1.00  0.00     0.039 A 
HETATM   15  C19 UNL     1      24.616   0.362  52.915  1.00  0.00     0.032 A 
BRANCH  13  16
HETATM   16  O1  UNL     1      22.826   3.017  51.260  1.00  0.00    -0.347 OA
BRANCH  16  17
HETATM   17  C11 UNL     1      22.947   3.204  49.878  1.00  0.00     0.214 C 
BRANCH  17  18
HETATM   18  C12 UNL     1      24.166   4.021  49.630  1.00  0.00    -0.034 A 
HETATM   19  C13 UNL     1      24.172   5.404  49.599  1.00  0.00     0.009 A 
HETATM   20  C14 UNL     1      25.331   6.130  49.365  1.00  0.00     0.001 A 
HETATM   21  C15 UNL     1      26.489   5.405  49.161  1.00  0.00     0.000 A 
HETATM   22  C16 UNL     1      26.548   4.021  49.179  1.00  0.00     0.001 A 
HETATM   23  C17 UNL     1      25.363   3.336  49.418  1.00  0.00     0.009 A 
ENDBRANCH  17  18
ENDBRANCH  16  17
ENDBRANCH  13  16
ENDBRANCH   8  10
ENDBRANCH   7   8
TORSDOF 5
ENDMDL
MODEL 6
REMARK VINA RESULT:      -7.5      4.548      6.979
REMARK  5 active torsions:
REMARK  status: ('A' for Active; 'I' for Inactive)
REMARK    1  A    between atoms: C6_7  and  N2_8 
REMARK    2  A    between atoms: N2_8  and  C7_9 
REMARK    3  A    between atoms: C10_12  and  O1_13 
REMARK    4  A    between atoms: O1_13  and  C11_14 
REMARK    5  A    between atoms: C11_14  and  C12_15 
ROOT
HETATM    1  N1  UNL     1      26.598   3.022  50.665  1.00  0.00    -0.191 NA
HETATM    2  C1  UNL     1      27.061   2.524  51.602  1.00  0.00     0.101 C 
HETATM    3  C2  UNL     1      27.650   1.927  52.769  1.00  0.00     0.067 A 
HETATM    4  C3  UNL     1      28.609   2.375  53.575  1.00  0.00     0.002 A 
HETATM    5  C4  UNL     1      28.879   1.389  54.660  1.00  0.00     0.058 A 
HETATM    6  C5  UNL     1      27.916   0.306  54.339  1.00  0.00     0.008 A 
HETATM    7  C6  UNL     1      27.236   0.638  53.266  1.00  0.00     0.049 A 
ENDROOT
BRANCH   7   8
HETATM    8  N2  UNL     1      26.273  -0.315  52.844  1.00  0.00    -0.355 N 
HETATM    9  H5  UNL     1      26.556  -1.167  52.320  1.00  0.00     0.166 HD
BRANCH   8  10
HETATM   10  C7  UNL     1      24.863  -0.173  53.105  1.00  0.00     0.032 A 
HETATM   11  C8  UNL     1      24.184  -0.851  54.115  1.00  0.00     0.032 A 
HETATM   12  C9  UNL     1      22.816  -0.623  54.262  1.00  0.00     0.039 A 
HETATM   13  C10 UNL     1      22.152   0.266  53.411  1.00  0.00     0.069 A 
HETATM   14  C18 UNL     1      22.824   0.938  52.411  1.00  0.00     0.039 A 
HETATM   15  C19 UNL     1      24.175   0.709  52.271  1.00  0.00     0.032 A 
BRANCH  13  16
HETATM   16  O1  UNL     1      20.814   0.487  53.557  1.00  0.00    -0.347 OA
BRANCH  16  17
HETATM   17  C11 UNL     1      19.810  -0.486  53.616  1.00  0.00     0.214 C 
BRANCH  17  18
HETATM   18  C12 UNL     1      18.910  -0.288  52.447  1.00  0.00    -0.034 A 
HETATM   19  C13 UNL     1      19.274   0.397  51.301  1.00  0.00     0.009 A 
HETATM   20  C14 UNL     1      18.405   0.560  50.232  1.00  0.00     0.001 A 
HETATM   21  C15 UNL     1      17.147   0.003  50.363  1.00  0.00     0.000 A 
HETATM   22  C16 UNL     1      16.722  -0.693  51.483  1.00  0.00     0.001 A 
HETATM   23  C17 UNL     1      17.627  -0.831  52.528  1.00  0.00     0.009 A 
ENDBRANCH  17  18
ENDBRANCH  16  17
ENDBRANCH  13  16
ENDBRANCH   8  10
ENDBRANCH   7   8
TORSDOF 5
ENDMDL
MODEL 7
REMARK VINA RESULT:      -7.5      5.227      8.387
REMARK  5 active torsions:
REMARK  status: ('A' for Active; 'I' for Inactive)
REMARK    1  A    between atoms: C6_7  and  N2_8 
REMARK    2  A    between atoms: N2_8  and  C7_9 
REMARK    3  A    between atoms: C10_12  and  O1_13 
REMARK    4  A    between atoms: O1_13  and  C11_14 
REMARK    5  A    between atoms: C11_14  and  C12_15 
ROOT
HETATM    1  N1  UNL     1      19.517   3.900  50.091  1.00  0.00    -0.191 NA
HETATM    2  C1  UNL     1      19.207   2.858  50.490  1.00  0.00     0.101 C 
HETATM    3  C2  UNL     1      18.808   1.561  50.964  1.00  0.00     0.067 A 
HETATM    4  C3  UNL     1      17.946   0.686  50.454  1.00  0.00     0.002 A 
HETATM    5  C4  UNL     1      17.869  -0.530  51.314  1.00  0.00     0.058 A 
HETATM    6  C5  UNL     1      18.830  -0.201  52.398  1.00  0.00     0.008 A 
HETATM    7  C6  UNL     1      19.344   0.985  52.172  1.00  0.00     0.049 A 
ENDROOT
BRANCH   7   8
HETATM    8  N2  UNL     1      20.285   1.428  53.138  1.00  0.00    -0.355 N 
HETATM    9  H5  UNL     1      20.098   2.266  53.724  1.00  0.00     0.166 HD
BRANCH   8  10
HETATM   10  C7  UNL     1      21.541   0.761  53.371  1.00  0.00     0.032 A 
HETATM   11  C8  UNL     1      21.723  -0.256  54.306  1.00  0.00     0.032 A 
HETATM   12  C9  UNL     1      22.993  -0.819  54.433  1.00  0.00     0.039 A 
HETATM   13  C10 UNL     1      24.050  -0.366  53.638  1.00  0.00     0.069 A 
HETATM   14  C18 UNL     1      23.869   0.641  52.711  1.00  0.00     0.039 A 
HETATM   15  C19 UNL     1      22.614   1.192  52.590  1.00  0.00     0.032 A 
BRANCH  13  16
HETATM   16  O1  UNL     1      25.290  -0.918  53.764  1.00  0.00    -0.347 OA
BRANCH  16  17
HETATM   17  C11 UNL     1      26.151  -1.282  52.722  1.00  0.00     0.214 C 
BRANCH  17  18
HETATM   18  C12 UNL     1      27.513  -0.787  53.058  1.00  0.00    -0.034 A 
HETATM   19  C13 UNL     1      27.812   0.543  53.296  1.00  0.00     0.009 A 
HETATM   20  C14 UNL     1      29.097   0.965  53.607  1.00  0.00     0.001 A 
HETATM   21  C15 UNL     1      30.074  -0.010  53.668  1.00  0.00     0.000 A 
HETATM   22  C16 UNL     1      29.839  -1.357  53.440  1.00  0.00     0.001 A 
HETATM   23  C17 UNL     1      28.537  -1.732  53.133  1.00  0.00     0.009 A 
ENDBRANCH  17  18
ENDBRANCH  16  17
ENDBRANCH  13  16
ENDBRANCH   8  10
ENDBRANCH   7   8
TORSDOF 5
ENDMDL
MODEL 8
REMARK VINA RESULT:      -7.4      2.016      2.636
REMARK  5 active torsions:
REMARK  status: ('A' for Active; 'I' for Inactive)
REMARK    1  A    between atoms: C6_7  and  N2_8 
REMARK    2  A    between atoms: N2_8  and  C7_9 
REMARK    3  A    between atoms: C10_12  and  O1_13 
REMARK    4  A    between atoms: O1_13  and  C11_14 
REMARK    5  A    between atoms: C11_14  and  C12_15 
ROOT
HETATM    1  N1  UNL     1      28.620   2.487  54.218  1.00  0.00    -0.191 NA
HETATM    2  C1  UNL     1      28.638   1.365  53.933  1.00  0.00     0.101 C 
HETATM    3  C2  UNL     1      28.686  -0.029  53.587  1.00  0.00     0.067 A 
HETATM    4  C3  UNL     1      29.712  -0.875  53.561  1.00  0.00     0.002 A 
HETATM    5  C4  UNL     1      29.259  -2.229  53.132  1.00  0.00     0.058 A 
HETATM    6  C5  UNL     1      27.805  -2.013  52.918  1.00  0.00     0.008 A 
HETATM    7  C6  UNL     1      27.512  -0.762  53.182  1.00  0.00     0.049 A 
ENDROOT
BRANCH   7   8
HETATM    8  N2  UNL     1      26.146  -0.415  53.018  1.00  0.00    -0.355 N 
HETATM    9  H5  UNL     1      25.389  -1.083  53.270  1.00  0.00     0.166 HD
BRANCH   8  10
HETATM   10  C7  UNL     1      25.717   0.859  52.500  1.00  0.00     0.032 A 
HETATM   11  C8  UNL     1      26.237   1.450  51.351  1.00  0.00     0.032 A 
HETATM   12  C9  UNL     1      25.733   2.689  50.957  1.00  0.00     0.039 A 
HETATM   13  C10 UNL     1      24.731   3.315  51.704  1.00  0.00     0.069 A 
HETATM   14  C18 UNL     1      24.215   2.729  52.842  1.00  0.00     0.039 A 
HETATM   15  C19 UNL     1      24.716   1.506  53.226  1.00  0.00     0.032 A 
BRANCH  13  16
HETATM   16  O1  UNL     1      24.240   4.526  51.317  1.00  0.00    -0.347 OA
BRANCH  16  17
HETATM   17  C11 UNL     1      23.120   5.179  51.845  1.00  0.00     0.214 C 
BRANCH  17  18
HETATM   18  C12 UNL     1      22.872   6.398  51.028  1.00  0.00    -0.034 A 
HETATM   19  C13 UNL     1      21.612   6.852  50.683  1.00  0.00     0.009 A 
HETATM   20  C14 UNL     1      21.423   7.995  49.920  1.00  0.00     0.001 A 
HETATM   21  C15 UNL     1      22.560   8.666  49.514  1.00  0.00     0.000 A 
HETATM   22  C16 UNL     1      23.849   8.264  49.826  1.00  0.00     0.001 A 
HETATM   23  C17 UNL     1      23.989   7.114  50.593  1.00  0.00     0.009 A 
ENDBRANCH  17  18
ENDBRANCH  16  17
ENDBRANCH  13  16
ENDBRANCH   8  10
ENDBRANCH   7   8
TORSDOF 5
ENDMDL
MODEL 9
REMARK VINA RESULT:      -7.4      5.564      8.874
REMARK  5 active torsions:
REMARK  status: ('A' for Active; 'I' for Inactive)
REMARK    1  A    between atoms: C6_7  and  N2_8 
REMARK    2  A    between atoms: N2_8  and  C7_9 
REMARK    3  A    between atoms: C10_12  and  O1_13 
REMARK    4  A    between atoms: O1_13  and  C11_14 
REMARK    5  A    between atoms: C11_14  and  C12_15 
ROOT
HETATM    1  N1  UNL     1      16.681   1.305  51.437  1.00  0.00    -0.191 NA
HETATM    2  C1  UNL     1      16.935   0.295  51.943  1.00  0.00     0.101 C 
HETATM    3  C2  UNL     1      17.231  -0.970  52.555  1.00  0.00     0.067 A 
HETATM    4  C3  UNL     1      16.656  -2.159  52.398  1.00  0.00     0.002 A 
HETATM    5  C4  UNL     1      17.323  -3.178  53.259  1.00  0.00     0.058 A 
HETATM    6  C5  UNL     1      18.373  -2.372  53.932  1.00  0.00     0.008 A 
HETATM    7  C6  UNL     1      18.296  -1.130  53.515  1.00  0.00     0.049 A 
ENDROOT
BRANCH   7   8
HETATM    8  N2  UNL     1      19.248  -0.243  54.082  1.00  0.00    -0.355 N 
HETATM    9  H5  UNL     1      18.949   0.551  54.684  1.00  0.00     0.166 HD
BRANCH   8  10
HETATM   10  C7  UNL     1      20.667  -0.376  53.871  1.00  0.00     0.032 A 
HETATM   11  C8  UNL     1      21.559  -0.846  54.833  1.00  0.00     0.032 A 
HETATM   12  C9  UNL     1      22.911  -0.926  54.499  1.00  0.00     0.039 A 
HETATM   13  C10 UNL     1      23.349  -0.543  53.228  1.00  0.00     0.069 A 
HETATM   14  C18 UNL     1      22.466  -0.078  52.275  1.00  0.00     0.039 A 
HETATM   15  C19 UNL     1      21.133  -0.001  52.610  1.00  0.00     0.032 A 
BRANCH  13  16
HETATM   16  O1  UNL     1      24.671  -0.622  52.904  1.00  0.00    -0.347 OA
BRANCH  16  17
HETATM   17  C11 UNL     1      25.549   0.451  52.713  1.00  0.00     0.214 C 
BRANCH  17  18
HETATM   18  C12 UNL     1      26.909   0.011  53.127  1.00  0.00    -0.034 A 
HETATM   19  C13 UNL     1      27.789   0.800  53.846  1.00  0.00     0.009 A 
HETATM   20  C14 UNL     1      29.050   0.353  54.213  1.00  0.00     0.001 A 
HETATM   21  C15 UNL     1      29.391  -0.929  53.826  1.00  0.00     0.000 A 
HETATM   22  C16 UNL     1      28.557  -1.768  53.106  1.00  0.00     0.001 A 
HETATM   23  C17 UNL     1      27.304  -1.277  52.761  1.00  0.00     0.009 A 
ENDBRANCH  17  18
ENDBRANCH  16  17
ENDBRANCH  13  16
ENDBRANCH   8  10
ENDBRANCH   7   8
TORSDOF 5
ENDMDL
