MODEL 1
REMARK VINA RESULT:      -7.3      0.000      0.000
REMARK  8 active torsions:
REMARK  status: ('A' for Active; 'I' for Inactive)
REMARK    1  A    between atoms: C3_3  and  C4_5 
REMARK    2  A    between atoms: C5_6  and  C6_7 
REMARK    3  A    between atoms: C5_6  and  N2_15 
REMARK    4  A    between atoms: C6_7  and  C7_8 
REMARK    5  A    between atoms: N2_15  and  C13_16 
REMARK    6  A    between atoms: C13_16  and  C14_17 
REMARK    7  A    between atoms: C14_17  and  C15_18 
REMARK    8  A    between atoms: C15_18  and  N3_19 
ROOT
HETATM    1  C4  UNL     1      26.793   3.468  49.554  1.00  0.00     0.067 C 
HETATM    2  C5  UNL     1      26.211   2.969  50.633  1.00  0.00     0.012 C 
ENDROOT
BRANCH   2   3
HETATM    3  C6  UNL     1      26.312   1.615  51.170  1.00  0.00     0.095 C 
BRANCH   3   4
HETATM    4  C7  UNL     1      26.908   1.473  52.494  1.00  0.00    -0.054 C 
HETATM    5  C8  UNL     1      26.347   0.624  53.368  1.00  0.00    -0.018 C 
HETATM    6  C9  UNL     1      26.707   0.258  54.773  1.00  0.00     0.049 C 
HETATM    7  C10 UNL     1      28.200   0.107  54.932  1.00  0.00     0.153 C 
HETATM    8  N1  UNL     1      28.916   1.330  54.707  1.00  0.00    -0.287 NA
HETATM    9  C11 UNL     1      28.841   2.303  53.935  1.00  0.00     0.079 C 
HETATM   10  C12 UNL     1      28.095   2.245  52.844  1.00  0.00     0.040 C 
ENDBRANCH   3   4
ENDBRANCH   2   3
BRANCH   2  11
HETATM   11  N2  UNL     1      25.353   3.799  51.439  1.00  0.00    -0.393 N 
HETATM   12  H14 UNL     1      25.857   4.501  52.034  1.00  0.00     0.159 HD
BRANCH  11  13
HETATM   13  C13 UNL     1      23.941   3.583  51.343  1.00  0.00     0.121 C 
BRANCH  13  14
HETATM   14  C14 UNL     1      23.300   3.168  52.659  1.00  0.00     0.050 C 
BRANCH  14  15
HETATM   15  C15 UNL     1      22.069   2.356  52.272  1.00  0.00     0.274 C 
BRANCH  15  16
HETATM   16  N3  UNL     1      22.386   0.976  51.968  1.00  0.00     0.092 N 
HETATM   17  C16 UNL     1      22.551   0.274  53.226  1.00  0.00     0.298 C 
HETATM   18  C17 UNL     1      21.285   0.253  54.032  1.00  0.00     0.198 C 
HETATM   19  O1  UNL     1      20.239  -0.311  53.327  1.00  0.00    -0.388 OA
HETATM   20  C18 UNL     1      20.039   0.282  52.083  1.00  0.00     0.198 C 
HETATM   21  C19 UNL     1      21.316   0.309  51.271  1.00  0.00     0.298 C 
ENDBRANCH  15  16
ENDBRANCH  14  15
ENDBRANCH  13  14
ENDBRANCH  11  13
ENDBRANCH   2  11
BRANCH   1  22
HETATM   22  C3  UNL     1      26.760   4.802  48.930  1.00  0.00     0.114 C 
HETATM   23  C2  UNL     1      27.866   5.437  48.575  1.00  0.00     0.011 C 
HETATM   24  C1  UNL     1      27.486   6.753  47.978  1.00  0.00     0.039 C 
HETATM   25  F1  UNL     1      25.519   5.266  48.776  1.00  0.00    -0.206 F 
ENDBRANCH   1  22
TORSDOF 8
ENDMDL
MODEL 2
REMARK VINA RESULT:      -7.1      2.098      2.728
REMARK  8 active torsions:
REMARK  status: ('A' for Active; 'I' for Inactive)
REMARK    1  A    between atoms: C3_3  and  C4_5 
REMARK    2  A    between atoms: C5_6  and  C6_7 
REMARK    3  A    between atoms: C5_6  and  N2_15 
REMARK    4  A    between atoms: C6_7  and  C7_8 
REMARK    5  A    between atoms: N2_15  and  C13_16 
REMARK    6  A    between atoms: C13_16  and  C14_17 
REMARK    7  A    between atoms: C14_17  and  C15_18 
REMARK    8  A    between atoms: C15_18  and  N3_19 
ROOT
HETATM    1  C4  UNL     1      26.375   3.215  49.901  1.00  0.00     0.067 C 
HETATM    2  C5  UNL     1      25.661   2.920  50.977  1.00  0.00     0.012 C 
ENDROOT
BRANCH   2   3
HETATM    3  C6  UNL     1      25.501   1.623  51.627  1.00  0.00     0.095 C 
BRANCH   3   4
HETATM    4  C7  UNL     1      26.658   1.095  52.342  1.00  0.00    -0.054 C 
HETATM    5  C8  UNL     1      27.506   1.957  52.924  1.00  0.00    -0.018 C 
HETATM    6  C9  UNL     1      28.758   1.742  53.714  1.00  0.00     0.049 C 
HETATM    7  C10 UNL     1      28.609   0.582  54.667  1.00  0.00     0.153 C 
HETATM    8  N1  UNL     1      28.412  -0.673  53.999  1.00  0.00    -0.287 NA
HETATM    9  C11 UNL     1      27.800  -1.088  52.998  1.00  0.00     0.079 C 
HETATM   10  C12 UNL     1      26.872  -0.346  52.416  1.00  0.00     0.040 C 
ENDBRANCH   3   4
ENDBRANCH   2   3
BRANCH   2  11
HETATM   11  N2  UNL     1      24.918   3.951  51.654  1.00  0.00    -0.393 N 
HETATM   12  H14 UNL     1      25.242   4.928  51.450  1.00  0.00     0.159 HD
BRANCH  11  13
HETATM   13  C13 UNL     1      23.845   3.543  52.509  1.00  0.00     0.121 C 
BRANCH  13  14
HETATM   14  C14 UNL     1      22.479   4.028  52.043  1.00  0.00     0.050 C 
BRANCH  14  15
HETATM   15  C15 UNL     1      21.889   2.872  51.245  1.00  0.00     0.274 C 
BRANCH  15  16
HETATM   16  N3  UNL     1      21.110   3.320  50.109  1.00  0.00     0.092 N 
HETATM   17  C16 UNL     1      22.037   3.789  49.097  1.00  0.00     0.298 C 
HETATM   18  C17 UNL     1      22.929   2.691  48.595  1.00  0.00     0.198 C 
HETATM   19  O1  UNL     1      22.201   1.629  48.093  1.00  0.00    -0.388 OA
HETATM   20  C18 UNL     1      21.255   1.144  48.992  1.00  0.00     0.198 C 
HETATM   21  C19 UNL     1      20.358   2.251  49.503  1.00  0.00     0.298 C 
ENDBRANCH  15  16
ENDBRANCH  14  15
ENDBRANCH  13  14
ENDBRANCH  11  13
ENDBRANCH   2  11
BRANCH   1  22
HETATM   22  C3  UNL     1      26.603   4.473  49.170  1.00  0.00     0.114 C 
HETATM   23  C2  UNL     1      27.818   4.882  48.843  1.00  0.00     0.011 C 
HETATM   24  C1  UNL     1      27.701   6.182  48.116  1.00  0.00     0.039 C 
HETATM   25  F1  UNL     1      25.469   5.119  48.893  1.00  0.00    -0.206 F 
ENDBRANCH   1  22
TORSDOF 8
ENDMDL
MODEL 3
REMARK VINA RESULT:      -6.7      2.818      6.159
REMARK  8 active torsions:
REMARK  status: ('A' for Active; 'I' for Inactive)
REMARK    1  A    between atoms: C3_3  and  C4_5 
REMARK    2  A    between atoms: C5_6  and  C6_7 
REMARK    3  A    between atoms: C5_6  and  N2_15 
REMARK    4  A    between atoms: C6_7  and  C7_8 
REMARK    5  A    between atoms: N2_15  and  C13_16 
REMARK    6  A    between atoms: C13_16  and  C14_17 
REMARK    7  A    between atoms: C14_17  and  C15_18 
REMARK    8  A    between atoms: C15_18  and  N3_19 
ROOT
HETATM    1  C4  UNL     1      26.652   1.234  53.730  1.00  0.00     0.067 C 
HETATM    2  C5  UNL     1      26.035   2.158  53.009  1.00  0.00     0.012 C 
ENDROOT
BRANCH   2   3
HETATM    3  C6  UNL     1      24.635   2.568  53.073  1.00  0.00     0.095 C 
BRANCH   3   4
HETATM    4  C7  UNL     1      23.650   1.638  52.533  1.00  0.00    -0.054 C 
HETATM    5  C8  UNL     1      23.307   0.564  53.262  1.00  0.00    -0.018 C 
HETATM    6  C9  UNL     1      22.349  -0.554  52.998  1.00  0.00     0.049 C 
HETATM    7  C10 UNL     1      21.077  -0.045  52.366  1.00  0.00     0.153 C 
HETATM    8  N1  UNL     1      21.286   0.534  51.069  1.00  0.00    -0.287 NA
HETATM    9  C11 UNL     1      22.146   1.241  50.513  1.00  0.00     0.079 C 
HETATM   10  C12 UNL     1      23.055   1.887  51.225  1.00  0.00     0.040 C 
ENDBRANCH   3   4
ENDBRANCH   2   3
BRANCH   2  11
HETATM   11  N2  UNL     1      26.763   2.900  52.013  1.00  0.00    -0.393 N 
HETATM   12  H14 UNL     1      27.355   3.679  52.394  1.00  0.00     0.159 HD
BRANCH  11  13
HETATM   13  C13 UNL     1      26.606   2.506  50.645  1.00  0.00     0.121 C 
BRANCH  13  14
HETATM   14  C14 UNL     1      26.688   3.669  49.666  1.00  0.00     0.050 C 
BRANCH  14  15
HETATM   15  C15 UNL     1      25.270   4.221  49.574  1.00  0.00     0.274 C 
BRANCH  15  16
HETATM   16  N3  UNL     1      25.121   5.489  50.258  1.00  0.00     0.092 N 
HETATM   17  C16 UNL     1      25.184   6.538  49.260  1.00  0.00     0.298 C 
HETATM   18  C17 UNL     1      24.054   6.450  48.276  1.00  0.00     0.198 C 
HETATM   19  O1  UNL     1      22.824   6.489  48.903  1.00  0.00    -0.388 OA
HETATM   20  C18 UNL     1      22.696   5.534  49.909  1.00  0.00     0.198 C 
HETATM   21  C19 UNL     1      23.838   5.618  50.900  1.00  0.00     0.298 C 
ENDBRANCH  15  16
ENDBRANCH  14  15
ENDBRANCH  13  14
ENDBRANCH  11  13
ENDBRANCH   2  11
BRANCH   1  22
HETATM   22  C3  UNL     1      28.041   0.746  53.747  1.00  0.00     0.114 C 
HETATM   23  C2  UNL     1      28.355  -0.486  53.381  1.00  0.00     0.011 C 
HETATM   24  C1  UNL     1      29.834  -0.659  53.515  1.00  0.00     0.039 C 
HETATM   25  F1  UNL     1      28.906   1.672  54.165  1.00  0.00    -0.206 F 
ENDBRANCH   1  22
TORSDOF 8
ENDMDL
MODEL 4
REMARK VINA RESULT:      -6.7      3.389      5.287
REMARK  8 active torsions:
REMARK  status: ('A' for Active; 'I' for Inactive)
REMARK    1  A    between atoms: C3_3  and  C4_5 
REMARK    2  A    between atoms: C5_6  and  C6_7 
REMARK    3  A    between atoms: C5_6  and  N2_15 
REMARK    4  A    between atoms: C6_7  and  C7_8 
REMARK    5  A    between atoms: N2_15  and  C13_16 
REMARK    6  A    between atoms: C13_16  and  C14_17 
REMARK    7  A    between atoms: C14_17  and  C15_18 
REMARK    8  A    between atoms: C15_18  and  N3_19 
ROOT
HETATM    1  C4  UNL     1      23.859  -0.537  53.481  1.00  0.00     0.067 C 
HETATM    2  C5  UNL     1      24.326   0.551  52.889  1.00  0.00     0.012 C 
ENDROOT
BRANCH   2   3
HETATM    3  C6  UNL     1      25.661   0.781  52.344  1.00  0.00     0.095 C 
BRANCH   3   4
HETATM    4  C7  UNL     1      26.767   0.084  52.991  1.00  0.00    -0.054 C 
HETATM    5  C8  UNL     1      27.135  -1.119  52.525  1.00  0.00    -0.018 C 
HETATM    6  C9  UNL     1      28.206  -2.070  52.957  1.00  0.00     0.049 C 
HETATM    7  C10 UNL     1      29.480  -1.338  53.299  1.00  0.00     0.153 C 
HETATM    8  N1  UNL     1      29.338  -0.456  54.422  1.00  0.00    -0.287 NA
HETATM    9  C11 UNL     1      28.474   0.319  54.871  1.00  0.00     0.079 C 
HETATM   10  C12 UNL     1      27.453   0.701  54.121  1.00  0.00     0.040 C 
ENDBRANCH   3   4
ENDBRANCH   2   3
BRANCH   2  11
HETATM   11  N2  UNL     1      23.477   1.702  52.721  1.00  0.00    -0.393 N 
HETATM   12  H14 UNL     1      22.450   1.502  52.801  1.00  0.00     0.159 HD
BRANCH  11  13
HETATM   13  C13 UNL     1      24.108   2.962  52.470  1.00  0.00     0.121 C 
BRANCH  13  14
HETATM   14  C14 UNL     1      23.247   3.921  51.661  1.00  0.00     0.050 C 
BRANCH  14  15
HETATM   15  C15 UNL     1      23.090   3.268  50.292  1.00  0.00     0.274 C 
BRANCH  15  16
HETATM   16  N3  UNL     1      21.738   3.364  49.782  1.00  0.00     0.092 N 
HETATM   17  C16 UNL     1      21.809   3.316  48.335  1.00  0.00     0.298 C 
HETATM   18  C17 UNL     1      22.360   2.010  47.840  1.00  0.00     0.198 C 
HETATM   19  O1  UNL     1      21.621   0.936  48.298  1.00  0.00    -0.388 OA
HETATM   20  C18 UNL     1      21.470   0.931  49.682  1.00  0.00     0.198 C 
HETATM   21  C19 UNL     1      20.920   2.248  50.184  1.00  0.00     0.298 C 
ENDBRANCH  15  16
ENDBRANCH  14  15
ENDBRANCH  13  14
ENDBRANCH  11  13
ENDBRANCH   2  11
BRANCH   1  22
HETATM   22  C3  UNL     1      22.547  -0.871  54.062  1.00  0.00     0.114 C 
HETATM   23  C2  UNL     1      21.483  -1.092  53.307  1.00  0.00     0.011 C 
HETATM   24  C1  UNL     1      20.325  -1.402  54.199  1.00  0.00     0.039 C 
HETATM   25  F1  UNL     1      22.573  -0.917  55.395  1.00  0.00    -0.206 F 
ENDBRANCH   1  22
TORSDOF 8
ENDMDL
MODEL 5
REMARK VINA RESULT:      -6.7      2.841      3.832
REMARK  8 active torsions:
REMARK  status: ('A' for Active; 'I' for Inactive)
REMARK    1  A    between atoms: C3_3  and  C4_5 
REMARK    2  A    between atoms: C5_6  and  C6_7 
REMARK    3  A    between atoms: C5_6  and  N2_15 
REMARK    4  A    between atoms: C6_7  and  C7_8 
REMARK    5  A    between atoms: N2_15  and  C13_16 
REMARK    6  A    between atoms: C13_16  and  C14_17 
REMARK    7  A    between atoms: C14_17  and  C15_18 
REMARK    8  A    between atoms: C15_18  and  N3_19 
ROOT
HETATM    1  C4  UNL     1      26.596   3.211  49.826  1.00  0.00     0.067 C 
HETATM    2  C5  UNL     1      25.834   2.934  50.872  1.00  0.00     0.012 C 
ENDROOT
BRANCH   2   3
HETATM    3  C6  UNL     1      25.620   1.642  51.517  1.00  0.00     0.095 C 
BRANCH   3   4
HETATM    4  C7  UNL     1      26.732   1.097  52.288  1.00  0.00    -0.054 C 
HETATM    5  C8  UNL     1      27.559   1.945  52.918  1.00  0.00    -0.018 C 
HETATM    6  C9  UNL     1      28.765   1.710  53.771  1.00  0.00     0.049 C 
HETATM    7  C10 UNL     1      28.553   0.547  54.709  1.00  0.00     0.153 C 
HETATM    8  N1  UNL     1      28.375  -0.702  54.024  1.00  0.00    -0.287 NA
HETATM    9  C11 UNL     1      27.811  -1.104  52.990  1.00  0.00     0.079 C 
HETATM   10  C12 UNL     1      26.924  -0.347  52.366  1.00  0.00     0.040 C 
ENDBRANCH   3   4
ENDBRANCH   2   3
BRANCH   2  11
HETATM   11  N2  UNL     1      25.087   3.982  51.519  1.00  0.00    -0.393 N 
HETATM   12  H14 UNL     1      25.432   4.953  51.316  1.00  0.00     0.159 HD
BRANCH  11  13
HETATM   13  C13 UNL     1      23.984   3.598  52.346  1.00  0.00     0.121 C 
BRANCH  13  14
HETATM   14  C14 UNL     1      23.050   4.750  52.686  1.00  0.00     0.050 C 
BRANCH  14  15
HETATM   15  C15 UNL     1      23.103   5.683  51.481  1.00  0.00     0.274 C 
BRANCH  15  16
HETATM   16  N3  UNL     1      21.817   6.279  51.182  1.00  0.00     0.092 N 
HETATM   17  C16 UNL     1      22.043   7.376  50.262  1.00  0.00     0.298 C 
HETATM   18  C17 UNL     1      22.610   6.908  48.953  1.00  0.00     0.198 C 
HETATM   19  O1  UNL     1      21.798   5.966  48.351  1.00  0.00    -0.388 OA
HETATM   20  C18 UNL     1      21.497   4.893  49.187  1.00  0.00     0.198 C 
HETATM   21  C19 UNL     1      20.931   5.364  50.510  1.00  0.00     0.298 C 
ENDBRANCH  15  16
ENDBRANCH  14  15
ENDBRANCH  13  14
ENDBRANCH  11  13
ENDBRANCH   2  11
BRANCH   1  22
HETATM   22  C3  UNL     1      26.880   4.463  49.103  1.00  0.00     0.114 C 
HETATM   23  C2  UNL     1      26.049   5.492  49.130  1.00  0.00     0.011 C 
HETATM   24  C1  UNL     1      26.628   6.592  48.301  1.00  0.00     0.039 C 
HETATM   25  F1  UNL     1      28.039   4.423  48.443  1.00  0.00    -0.206 F 
ENDBRANCH   1  22
TORSDOF 8
ENDMDL
MODEL 6
REMARK VINA RESULT:      -6.7      2.007      5.111
REMARK  8 active torsions:
REMARK  status: ('A' for Active; 'I' for Inactive)
REMARK    1  A    between atoms: C3_3  and  C4_5 
REMARK    2  A    between atoms: C5_6  and  C6_7 
REMARK    3  A    between atoms: C5_6  and  N2_15 
REMARK    4  A    between atoms: C6_7  and  C7_8 
REMARK    5  A    between atoms: N2_15  and  C13_16 
REMARK    6  A    between atoms: C13_16  and  C14_17 
REMARK    7  A    between atoms: C14_17  and  C15_18 
REMARK    8  A    between atoms: C15_18  and  N3_19 
ROOT
HETATM    1  C4  UNL     1      26.682   2.074  51.155  1.00  0.00     0.067 C 
HETATM    2  C5  UNL     1      25.690   2.941  51.023  1.00  0.00     0.012 C 
ENDROOT
BRANCH   2   3
HETATM    3  C6  UNL     1      25.298   3.690  49.832  1.00  0.00     0.095 C 
BRANCH   3   4
HETATM    4  C7  UNL     1      26.056   4.900  49.534  1.00  0.00    -0.054 C 
HETATM    5  C8  UNL     1      27.189   4.794  48.823  1.00  0.00    -0.018 C 
HETATM    6  C9  UNL     1      28.174   5.820  48.359  1.00  0.00     0.049 C 
HETATM    7  C10 UNL     1      27.475   7.063  47.865  1.00  0.00     0.153 C 
HETATM    8  N1  UNL     1      26.738   7.741  48.893  1.00  0.00    -0.287 NA
HETATM    9  C11 UNL     1      26.035   7.427  49.871  1.00  0.00     0.079 C 
HETATM   10  C12 UNL     1      25.575   6.193  50.005  1.00  0.00     0.040 C 
ENDBRANCH   3   4
ENDBRANCH   2   3
BRANCH   2  11
HETATM   11  N2  UNL     1      24.842   3.244  52.146  1.00  0.00    -0.393 N 
HETATM   12  H14 UNL     1      25.297   3.824  52.894  1.00  0.00     0.159 HD
BRANCH  11  13
HETATM   13  C13 UNL     1      23.504   2.734  52.124  1.00  0.00     0.121 C 
BRANCH  13  14
HETATM   14  C14 UNL     1      23.428   1.223  52.290  1.00  0.00     0.050 C 
BRANCH  14  15
HETATM   15  C15 UNL     1      21.985   0.853  51.966  1.00  0.00     0.274 C 
BRANCH  15  16
HETATM   16  N3  UNL     1      21.038   1.447  52.888  1.00  0.00     0.092 N 
HETATM   17  C16 UNL     1      19.773   1.581  52.194  1.00  0.00     0.298 C 
HETATM   18  C17 UNL     1      19.203   0.250  51.795  1.00  0.00     0.198 C 
HETATM   19  O1  UNL     1      19.041  -0.584  52.884  1.00  0.00    -0.388 OA
HETATM   20  C18 UNL     1      20.205  -0.734  53.632  1.00  0.00     0.198 C 
HETATM   21  C19 UNL     1      20.785   0.606  54.031  1.00  0.00     0.298 C 
ENDBRANCH  15  16
ENDBRANCH  14  15
ENDBRANCH  13  14
ENDBRANCH  11  13
ENDBRANCH   2  11
BRANCH   1  22
HETATM   22  C3  UNL     1      27.160   1.273  52.295  1.00  0.00     0.114 C 
HETATM   23  C2  UNL     1      27.880   1.803  53.271  1.00  0.00     0.011 C 
HETATM   24  C1  UNL     1      28.201   0.731  54.261  1.00  0.00     0.039 C 
HETATM   25  F1  UNL     1      26.788  -0.006  52.217  1.00  0.00    -0.206 F 
ENDBRANCH   1  22
TORSDOF 8
ENDMDL
MODEL 7
REMARK VINA RESULT:      -6.7      3.205      5.997
REMARK  8 active torsions:
REMARK  status: ('A' for Active; 'I' for Inactive)
REMARK    1  A    between atoms: C3_3  and  C4_5 
REMARK    2  A    between atoms: C5_6  and  C6_7 
REMARK    3  A    between atoms: C5_6  and  N2_15 
REMARK    4  A    between atoms: C6_7  and  C7_8 
REMARK    5  A    between atoms: N2_15  and  C13_16 
REMARK    6  A    between atoms: C13_16  and  C14_17 
REMARK    7  A    between atoms: C14_17  and  C15_18 
REMARK    8  A    between atoms: C15_18  and  N3_19 
ROOT
HETATM    1  C4  UNL     1      23.852  -0.043  52.553  1.00  0.00     0.067 C 
HETATM    2  C5  UNL     1      24.311   1.184  52.363  1.00  0.00     0.012 C 
ENDROOT
BRANCH   2   3
HETATM    3  C6  UNL     1      25.613   1.591  51.841  1.00  0.00     0.095 C 
BRANCH   3   4
HETATM    4  C7  UNL     1      26.791   1.074  52.530  1.00  0.00    -0.054 C 
HETATM    5  C8  UNL     1      27.597   1.936  53.167  1.00  0.00    -0.018 C 
HETATM    6  C9  UNL     1      28.855   1.730  53.950  1.00  0.00     0.049 C 
HETATM    7  C10 UNL     1      28.756   0.509  54.831  1.00  0.00     0.153 C 
HETATM    8  N1  UNL     1      28.617  -0.711  54.088  1.00  0.00    -0.287 NA
HETATM    9  C11 UNL     1      28.028  -1.092  53.060  1.00  0.00     0.079 C 
HETATM   10  C12 UNL     1      27.069  -0.358  52.519  1.00  0.00     0.040 C 
ENDBRANCH   3   4
ENDBRANCH   2   3
BRANCH   2  11
HETATM   11  N2  UNL     1      23.487   2.321  52.685  1.00  0.00    -0.393 N 
HETATM   12  H14 UNL     1      22.455   2.135  52.654  1.00  0.00     0.159 HD
BRANCH  11  13
HETATM   13  C13 UNL     1      24.148   3.550  53.004  1.00  0.00     0.121 C 
BRANCH  13  14
HETATM   14  C14 UNL     1      23.357   4.786  52.600  1.00  0.00     0.050 C 
BRANCH  14  15
HETATM   15  C15 UNL     1      23.951   5.230  51.268  1.00  0.00     0.274 C 
BRANCH  15  16
HETATM   16  N3  UNL     1      24.204   6.656  51.220  1.00  0.00     0.092 N 
HETATM   17  C16 UNL     1      25.331   6.873  50.335  1.00  0.00     0.298 C 
HETATM   18  C17 UNL     1      25.035   6.444  48.927  1.00  0.00     0.198 C 
HETATM   19  O1  UNL     1      23.923   7.089  48.419  1.00  0.00    -0.388 OA
HETATM   20  C18 UNL     1      22.802   6.963  49.234  1.00  0.00     0.198 C 
HETATM   21  C19 UNL     1      23.100   7.390  50.656  1.00  0.00     0.298 C 
ENDBRANCH  15  16
ENDBRANCH  14  15
ENDBRANCH  13  14
ENDBRANCH  11  13
ENDBRANCH   2  11
BRANCH   1  22
HETATM   22  C3  UNL     1      22.572  -0.560  53.066  1.00  0.00     0.114 C 
HETATM   23  C2  UNL     1      22.458  -1.064  54.285  1.00  0.00     0.011 C 
HETATM   24  C1  UNL     1      21.043  -1.495  54.490  1.00  0.00     0.039 C 
HETATM   25  F1  UNL     1      21.583  -0.458  52.177  1.00  0.00    -0.206 F 
ENDBRANCH   1  22
TORSDOF 8
ENDMDL
MODEL 8
REMARK VINA RESULT:      -6.5      3.090      4.885
REMARK  8 active torsions:
REMARK  status: ('A' for Active; 'I' for Inactive)
REMARK    1  A    between atoms: C3_3  and  C4_5 
REMARK    2  A    between atoms: C5_6  and  C6_7 
REMARK    3  A    between atoms: C5_6  and  N2_15 
REMARK    4  A    between atoms: C6_7  and  C7_8 
REMARK    5  A    between atoms: N2_15  and  C13_16 
REMARK    6  A    between atoms: C13_16  and  C14_17 
REMARK    7  A    between atoms: C14_17  and  C15_18 
REMARK    8  A    between atoms: C15_18  and  N3_19 
ROOT
HETATM    1  C4  UNL     1      23.812   0.439  53.070  1.00  0.00     0.067 C 
HETATM    2  C5  UNL     1      24.140   1.359  52.177  1.00  0.00     0.012 C 
ENDROOT
BRANCH   2   3
HETATM    3  C6  UNL     1      25.474   1.742  51.723  1.00  0.00     0.095 C 
BRANCH   3   4
HETATM    4  C7  UNL     1      26.606   1.139  52.417  1.00  0.00    -0.054 C 
HETATM    5  C8  UNL     1      27.450   1.935  53.091  1.00  0.00    -0.018 C 
HETATM    6  C9  UNL     1      28.679   1.635  53.889  1.00  0.00     0.049 C 
HETATM    7  C10 UNL     1      28.493   0.399  54.735  1.00  0.00     0.153 C 
HETATM    8  N1  UNL     1      28.296  -0.791  53.956  1.00  0.00    -0.287 NA
HETATM    9  C11 UNL     1      27.705  -1.109  52.909  1.00  0.00     0.079 C 
HETATM   10  C12 UNL     1      26.800  -0.306  52.372  1.00  0.00     0.040 C 
ENDBRANCH   3   4
ENDBRANCH   2   3
BRANCH   2  11
HETATM   11  N2  UNL     1      23.113   2.128  51.523  1.00  0.00    -0.393 N 
HETATM   12  H14 UNL     1      22.622   2.818  52.142  1.00  0.00     0.159 HD
BRANCH  11  13
HETATM   13  C13 UNL     1      22.877   1.873  50.134  1.00  0.00     0.121 C 
BRANCH  13  14
HETATM   14  C14 UNL     1      21.735   0.900  49.880  1.00  0.00     0.050 C 
BRANCH  14  15
HETATM   15  C15 UNL     1      20.467   1.656  50.262  1.00  0.00     0.274 C 
BRANCH  15  16
HETATM   16  N3  UNL     1      19.840   1.126  51.454  1.00  0.00     0.092 N 
HETATM   17  C16 UNL     1      19.277   2.241  52.189  1.00  0.00     0.298 C 
HETATM   18  C17 UNL     1      18.197   2.940  51.415  1.00  0.00     0.198 C 
HETATM   19  O1  UNL     1      17.184   2.074  51.052  1.00  0.00    -0.388 OA
HETATM   20  C18 UNL     1      17.648   0.950  50.373  1.00  0.00     0.198 C 
HETATM   21  C19 UNL     1      18.740   0.245  51.150  1.00  0.00     0.298 C 
ENDBRANCH  15  16
ENDBRANCH  14  15
ENDBRANCH  13  14
ENDBRANCH  11  13
ENDBRANCH   2  11
BRANCH   1  22
HETATM   22  C3  UNL     1      22.516  -0.023  53.596  1.00  0.00     0.114 C 
HETATM   23  C2  UNL     1      22.158  -1.296  53.560  1.00  0.00     0.011 C 
HETATM   24  C1  UNL     1      20.799  -1.425  54.167  1.00  0.00     0.039 C 
HETATM   25  F1  UNL     1      21.780   0.973  54.093  1.00  0.00    -0.206 F 
ENDBRANCH   1  22
TORSDOF 8
ENDMDL
MODEL 9
REMARK VINA RESULT:      -6.5      2.782      6.380
REMARK  8 active torsions:
REMARK  status: ('A' for Active; 'I' for Inactive)
REMARK    1  A    between atoms: C3_3  and  C4_5 
REMARK    2  A    between atoms: C5_6  and  C6_7 
REMARK    3  A    between atoms: C5_6  and  N2_15 
REMARK    4  A    between atoms: C6_7  and  C7_8 
REMARK    5  A    between atoms: N2_15  and  C13_16 
REMARK    6  A    between atoms: C13_16  and  C14_17 
REMARK    7  A    between atoms: C14_17  and  C15_18 
REMARK    8  A    between atoms: C15_18  and  N3_19 
ROOT
HETATM    1  C4  UNL     1      21.974   0.695  51.190  1.00  0.00     0.067 C 
HETATM    2  C5  UNL     1      22.610   1.844  51.024  1.00  0.00     0.012 C 
ENDROOT
BRANCH   2   3
HETATM    3  C6  UNL     1      23.032   2.471  49.775  1.00  0.00     0.095 C 
BRANCH   3   4
HETATM    4  C7  UNL     1      24.146   3.410  49.852  1.00  0.00    -0.054 C 
HETATM    5  C8  UNL     1      25.397   2.940  49.740  1.00  0.00    -0.018 C 
HETATM    6  C9  UNL     1      26.726   3.627  49.775  1.00  0.00     0.049 C 
HETATM    7  C10 UNL     1      26.689   4.926  49.009  1.00  0.00     0.153 C 
HETATM    8  N1  UNL     1      25.795   5.891  49.581  1.00  0.00    -0.287 NA
HETATM    9  C11 UNL     1      24.677   5.889  50.128  1.00  0.00     0.079 C 
HETATM   10  C12 UNL     1      23.884   4.832  50.043  1.00  0.00     0.040 C 
ENDBRANCH   3   4
ENDBRANCH   2   3
BRANCH   2  11
HETATM   11  N2  UNL     1      22.970   2.641  52.169  1.00  0.00    -0.393 N 
HETATM   12  H14 UNL     1      22.544   3.600  52.184  1.00  0.00     0.159 HD
BRANCH  11  13
HETATM   13  C13 UNL     1      23.846   2.055  53.137  1.00  0.00     0.121 C 
BRANCH  13  14
HETATM   14  C14 UNL     1      25.127   2.847  53.354  1.00  0.00     0.050 C 
BRANCH  14  15
HETATM   15  C15 UNL     1      26.151   1.834  53.853  1.00  0.00     0.274 C 
BRANCH  15  16
HETATM   16  N3  UNL     1      27.122   1.479  52.839  1.00  0.00     0.092 N 
HETATM   17  C16 UNL     1      28.389   1.249  53.505  1.00  0.00     0.298 C 
HETATM   18  C17 UNL     1      28.325   0.091  54.458  1.00  0.00     0.198 C 
HETATM   19  O1  UNL     1      27.923  -1.070  53.827  1.00  0.00    -0.388 OA
HETATM   20  C18 UNL     1      26.729  -0.923  53.127  1.00  0.00     0.198 C 
HETATM   21  C19 UNL     1      26.789   0.248  52.168  1.00  0.00     0.298 C 
ENDBRANCH  15  16
ENDBRANCH  14  15
ENDBRANCH  13  14
ENDBRANCH  11  13
ENDBRANCH   2  11
BRANCH   1  22
HETATM   22  C3  UNL     1      21.507  -0.022  52.389  1.00  0.00     0.114 C 
HETATM   23  C2  UNL     1      22.226  -0.976  52.960  1.00  0.00     0.011 C 
HETATM   24  C1  UNL     1      21.473  -1.494  54.142  1.00  0.00     0.039 C 
HETATM   25  F1  UNL     1      20.311   0.398  52.805  1.00  0.00    -0.206 F 
ENDBRANCH   1  22
TORSDOF 8
ENDMDL
