MODEL 1
REMARK VINA RESULT:      -8.8      0.000      0.000
REMARK  4 active torsions:
REMARK  status: ('A' for Active; 'I' for Inactive)
REMARK       I    between atoms: C1_2  and  N1_3 
REMARK       I    between atoms: C1_2  and  N3_12 
REMARK    1  A    between atoms: N1_3  and  C2_4 
REMARK    2  A    between atoms: C2_4  and  C3_5 
REMARK    3  A    between atoms: C3_5  and  N2_6 
REMARK    4  A    between atoms: N3_12  and  C8_13 
ROOT
HETATM    1  C8  UNL     1      25.345   3.467  49.892  1.00  0.00     0.046 A 
HETATM    2  C9  UNL     1      24.253   4.119  49.397  1.00  0.00     0.032 A 
HETATM    3  C10 UNL     1      23.024   3.762  49.898  1.00  0.00     0.035 A 
HETATM    4  C11 UNL     1      22.935   2.763  50.879  1.00  0.00     0.073 A 
HETATM    5  N4  UNL     1      21.648   2.589  51.240  1.00  0.00    -0.241 NA
HETATM    6  C12 UNL     1      21.304   1.707  52.172  1.00  0.00     0.235 A 
HETATM    7  N5  UNL     1      22.358   1.050  52.674  1.00  0.00    -0.224 NA
HETATM    8  C13 UNL     1      23.644   1.225  52.311  1.00  0.00     0.138 A 
HETATM    9  C14 UNL     1      24.034   2.094  51.388  1.00  0.00     0.050 A 
HETATM   10  C15 UNL     1      25.238   2.486  50.857  1.00  0.00     0.019 A 
HETATM   11  C16 UNL     1      26.598   1.991  51.209  1.00  0.00     0.210 C 
HETATM   12  F1  UNL     1      27.248   2.888  52.011  1.00  0.00    -0.244 F 
HETATM   13  C17 UNL     1      26.427   0.684  51.746  1.00  0.00     0.069 C 
HETATM   14  C18 UNL     1      27.171  -0.282  52.485  1.00  0.00    -0.026 C 
HETATM   15  C19 UNL     1      26.553  -0.848  53.579  1.00  0.00    -0.011 C 
HETATM   16  C20 UNL     1      25.132  -0.505  53.985  1.00  0.00     0.148 C 
HETATM   17  N6  UNL     1      24.367   0.294  53.124  1.00  0.00    -0.371 N 
HETATM   18  H25 UNL     1      24.103  -0.619  52.606  1.00  0.00     0.161 HD
ENDROOT
BRANCH   1  19
HETATM   19  N3  UNL     1      26.596   3.864  49.348  1.00  0.00    -0.308 N 
HETATM   20  C1  UNL     1      27.062   5.151  49.111  1.00  0.00     0.320 C 
HETATM   21  O1  UNL     1      26.387   6.160  49.350  1.00  0.00    -0.247 OA
HETATM   22  N1  UNL     1      28.327   5.507  48.579  1.00  0.00    -0.341 N 
HETATM   23  H1  UNL     1      28.993   4.730  48.325  1.00  0.00     0.164 HD
HETATM   24  H14 UNL     1      27.366   3.189  49.072  1.00  0.00     0.170 HD
BRANCH  22  25
HETATM   25  C2  UNL     1      28.765   6.864  48.363  1.00  0.00     0.154 C 
BRANCH  25  26
HETATM   26  C3  UNL     1      29.665   7.029  47.177  1.00  0.00     0.292 C 
BRANCH  26  27
HETATM   27  N2  UNL     1      31.063   7.164  47.597  1.00  0.00     0.094 N 
HETATM   28  C4  UNL     1      31.227   7.194  49.018  1.00  0.00     0.298 C 
HETATM   29  C5  UNL     1      32.189   6.094  49.459  1.00  0.00     0.198 C 
HETATM   30  O2  UNL     1      31.647   4.885  48.993  1.00  0.00    -0.388 OA
HETATM   31  C6  UNL     1      31.729   4.813  47.614  1.00  0.00     0.198 C 
HETATM   32  C7  UNL     1      31.837   6.150  46.956  1.00  0.00     0.298 C 
ENDBRANCH  26  27
ENDBRANCH  25  26
ENDBRANCH  22  25
ENDBRANCH   1  19
TORSDOF 4
ENDMDL
MODEL 2
REMARK VINA RESULT:      -8.7      2.856      4.291
REMARK  4 active torsions:
REMARK  status: ('A' for Active; 'I' for Inactive)
REMARK       I    between atoms: C1_2  and  N1_3 
REMARK       I    between atoms: C1_2  and  N3_12 
REMARK    1  A    between atoms: N1_3  and  C2_4 
REMARK    2  A    between atoms: C2_4  and  C3_5 
REMARK    3  A    between atoms: C3_5  and  N2_6 
REMARK    4  A    between atoms: N3_12  and  C8_13 
ROOT
HETATM    1  C8  UNL     1      23.798   1.319  51.627  1.00  0.00     0.046 A 
HETATM    2  C9  UNL     1      22.507   0.915  51.805  1.00  0.00     0.032 A 
HETATM    3  C10 UNL     1      22.245   0.097  52.878  1.00  0.00     0.035 A 
HETATM    4  C11 UNL     1      23.288  -0.286  53.735  1.00  0.00     0.073 A 
HETATM    5  N4  UNL     1      22.806  -1.064  54.725  1.00  0.00    -0.241 NA
HETATM    6  C12 UNL     1      23.599  -1.540  55.678  1.00  0.00     0.235 A 
HETATM    7  N5  UNL     1      24.875  -1.160  55.525  1.00  0.00    -0.224 NA
HETATM    8  C13 UNL     1      25.354  -0.382  54.536  1.00  0.00     0.138 A 
HETATM    9  C14 UNL     1      24.601   0.117  53.564  1.00  0.00     0.050 A 
HETATM   10  C15 UNL     1      24.812   0.932  52.480  1.00  0.00     0.019 A 
HETATM   11  C16 UNL     1      26.091   1.557  52.041  1.00  0.00     0.210 C 
HETATM   12  F1  UNL     1      26.128   2.879  52.389  1.00  0.00    -0.244 F 
HETATM   13  C17 UNL     1      27.139   0.745  52.560  1.00  0.00     0.069 C 
HETATM   14  C18 UNL     1      28.547   0.808  52.767  1.00  0.00    -0.026 C 
HETATM   15  C19 UNL     1      29.016   0.443  54.010  1.00  0.00    -0.011 C 
HETATM   16  C20 UNL     1      28.102  -0.042  55.120  1.00  0.00     0.148 C 
HETATM   17  N6  UNL     1      26.754  -0.280  54.818  1.00  0.00    -0.371 N 
HETATM   18  H25 UNL     1      27.061  -1.269  54.503  1.00  0.00     0.161 HD
ENDROOT
BRANCH   1  19
HETATM   19  N3  UNL     1      24.029   2.162  50.506  1.00  0.00    -0.308 N 
HETATM   20  C1  UNL     1      23.800   3.527  50.396  1.00  0.00     0.320 C 
HETATM   21  O1  UNL     1      23.325   4.202  51.318  1.00  0.00    -0.247 OA
HETATM   22  N1  UNL     1      24.058   4.338  49.262  1.00  0.00    -0.341 N 
HETATM   23  H1  UNL     1      24.457   3.874  48.403  1.00  0.00     0.164 HD
HETATM   24  H14 UNL     1      24.447   1.832  49.590  1.00  0.00     0.170 HD
BRANCH  22  25
HETATM   25  C2  UNL     1      23.811   5.758  49.204  1.00  0.00     0.154 C 
BRANCH  25  26
HETATM   26  C3  UNL     1      24.855   6.525  48.453  1.00  0.00     0.292 C 
BRANCH  26  27
HETATM   27  N2  UNL     1      26.066   6.690  49.263  1.00  0.00     0.094 N 
HETATM   28  C4  UNL     1      27.229   6.992  48.487  1.00  0.00     0.298 C 
HETATM   29  C5  UNL     1      27.864   8.290  48.977  1.00  0.00     0.198 C 
HETATM   30  O2  UNL     1      26.870   9.277  48.884  1.00  0.00    -0.388 OA
HETATM   31  C6  UNL     1      25.879   9.061  49.825  1.00  0.00     0.198 C 
HETATM   32  C7  UNL     1      25.805   7.644  50.293  1.00  0.00     0.298 C 
ENDBRANCH  26  27
ENDBRANCH  25  26
ENDBRANCH  22  25
ENDBRANCH   1  19
TORSDOF 4
ENDMDL
MODEL 3
REMARK VINA RESULT:      -8.7      3.931      5.416
REMARK  4 active torsions:
REMARK  status: ('A' for Active; 'I' for Inactive)
REMARK       I    between atoms: C1_2  and  N1_3 
REMARK       I    between atoms: C1_2  and  N3_12 
REMARK    1  A    between atoms: N1_3  and  C2_4 
REMARK    2  A    between atoms: C2_4  and  C3_5 
REMARK    3  A    between atoms: C3_5  and  N2_6 
REMARK    4  A    between atoms: N3_12  and  C8_13 
ROOT
HETATM    1  C8  UNL     1      22.782   0.860  51.963  1.00  0.00     0.046 A 
HETATM    2  C9  UNL     1      21.598   0.312  52.363  1.00  0.00     0.032 A 
HETATM    3  C10 UNL     1      21.618  -0.485  53.483  1.00  0.00     0.035 A 
HETATM    4  C11 UNL     1      22.827  -0.704  54.161  1.00  0.00     0.073 A 
HETATM    5  N4  UNL     1      22.613  -1.492  55.234  1.00  0.00    -0.241 NA
HETATM    6  C12 UNL     1      23.605  -1.829  56.051  1.00  0.00     0.235 A 
HETATM    7  N5  UNL     1      24.781  -1.306  55.680  1.00  0.00    -0.224 NA
HETATM    8  C13 UNL     1      24.991  -0.519  54.607  1.00  0.00     0.138 A 
HETATM    9  C14 UNL     1      24.033  -0.154  53.765  1.00  0.00     0.050 A 
HETATM   10  C15 UNL     1      23.962   0.634  52.643  1.00  0.00     0.019 A 
HETATM   11  C16 UNL     1      25.063   1.387  51.983  1.00  0.00     0.210 C 
HETATM   12  F1  UNL     1      24.992   2.718  52.291  1.00  0.00    -0.244 F 
HETATM   13  C17 UNL     1      26.275   0.729  52.337  1.00  0.00     0.069 C 
HETATM   14  C18 UNL     1      27.680   0.969  52.304  1.00  0.00    -0.026 C 
HETATM   15  C19 UNL     1      28.387   0.715  53.459  1.00  0.00    -0.011 C 
HETATM   16  C20 UNL     1      27.734   0.172  54.717  1.00  0.00     0.148 C 
HETATM   17  N6  UNL     1      26.395  -0.238  54.649  1.00  0.00    -0.371 N 
HETATM   18  H25 UNL     1      26.767  -1.197  54.309  1.00  0.00     0.161 HD
ENDROOT
BRANCH   1  19
HETATM   19  N3  UNL     1      22.720   1.677  50.802  1.00  0.00    -0.308 N 
HETATM   20  C1  UNL     1      22.158   2.939  50.667  1.00  0.00     0.320 C 
HETATM   21  O1  UNL     1      21.601   3.525  51.604  1.00  0.00    -0.247 OA
HETATM   22  N1  UNL     1      22.130   3.731  49.491  1.00  0.00    -0.341 N 
HETATM   23  H1  UNL     1      22.567   3.334  48.618  1.00  0.00     0.164 HD
HETATM   24  H14 UNL     1      23.139   1.412  49.865  1.00  0.00     0.170 HD
BRANCH  22  25
HETATM   25  C2  UNL     1      21.541   5.045  49.410  1.00  0.00     0.154 C 
BRANCH  25  26
HETATM   26  C3  UNL     1      22.192   5.939  48.401  1.00  0.00     0.292 C 
BRANCH  26  27
HETATM   27  N2  UNL     1      23.081   6.905  49.055  1.00  0.00     0.094 N 
HETATM   28  C4  UNL     1      22.991   6.880  50.482  1.00  0.00     0.298 C 
HETATM   29  C5  UNL     1      24.368   6.631  51.090  1.00  0.00     0.198 C 
HETATM   30  O2  UNL     1      24.827   5.420  50.547  1.00  0.00    -0.388 OA
HETATM   31  C6  UNL     1      25.121   5.569  49.204  1.00  0.00     0.198 C 
HETATM   32  C7  UNL     1      24.408   6.716  48.565  1.00  0.00     0.298 C 
ENDBRANCH  26  27
ENDBRANCH  25  26
ENDBRANCH  22  25
ENDBRANCH   1  19
TORSDOF 4
ENDMDL
MODEL 4
REMARK VINA RESULT:      -8.7      3.998      5.455
REMARK  4 active torsions:
REMARK  status: ('A' for Active; 'I' for Inactive)
REMARK       I    between atoms: C1_2  and  N1_3 
REMARK       I    between atoms: C1_2  and  N3_12 
REMARK    1  A    between atoms: N1_3  and  C2_4 
REMARK    2  A    between atoms: C2_4  and  C3_5 
REMARK    3  A    between atoms: C3_5  and  N2_6 
REMARK    4  A    between atoms: N3_12  and  C8_13 
ROOT
HETATM    1  C8  UNL     1      24.548   2.433  51.149  1.00  0.00     0.046 A 
HETATM    2  C9  UNL     1      25.868   2.662  50.894  1.00  0.00     0.032 A 
HETATM    3  C10 UNL     1      26.785   1.914  51.593  1.00  0.00     0.035 A 
HETATM    4  C11 UNL     1      26.342   0.961  52.524  1.00  0.00     0.073 A 
HETATM    5  N4  UNL     1      27.401   0.332  53.074  1.00  0.00    -0.241 NA
HETATM    6  C12 UNL     1      27.240  -0.630  53.975  1.00  0.00     0.235 A 
HETATM    7  N5  UNL     1      25.951  -0.875  54.246  1.00  0.00    -0.224 NA
HETATM    8  C13 UNL     1      24.896  -0.245  53.695  1.00  0.00     0.138 A 
HETATM    9  C14 UNL     1      25.006   0.720  52.791  1.00  0.00     0.050 A 
HETATM   10  C15 UNL     1      24.130   1.491  52.068  1.00  0.00     0.019 A 
HETATM   11  C16 UNL     1      22.642   1.456  52.097  1.00  0.00     0.210 C 
HETATM   12  F1  UNL     1      22.152   0.794  51.005  1.00  0.00    -0.244 F 
HETATM   13  C17 UNL     1      22.273   0.926  53.365  1.00  0.00     0.069 C 
HETATM   14  C18 UNL     1      21.122   0.391  54.015  1.00  0.00    -0.026 C 
HETATM   15  C19 UNL     1      21.281  -0.797  54.694  1.00  0.00    -0.011 C 
HETATM   16  C20 UNL     1      22.615  -1.512  54.793  1.00  0.00     0.148 C 
HETATM   17  N6  UNL     1      23.759  -0.858  54.315  1.00  0.00    -0.371 N 
HETATM   18  H25 UNL     1      23.827  -0.388  55.288  1.00  0.00     0.161 HD
ENDROOT
BRANCH   1  19
HETATM   19  N3  UNL     1      23.632   3.227  50.406  1.00  0.00    -0.308 N 
HETATM   20  C1  UNL     1      23.163   4.500  50.700  1.00  0.00     0.320 C 
HETATM   21  O1  UNL     1      23.503   5.119  51.716  1.00  0.00    -0.247 OA
HETATM   22  N1  UNL     1      22.258   5.267  49.924  1.00  0.00    -0.341 N 
HETATM   23  H1  UNL     1      21.888   4.842  49.033  1.00  0.00     0.164 HD
HETATM   24  H14 UNL     1      23.201   2.932  49.483  1.00  0.00     0.170 HD
BRANCH  22  25
HETATM   25  C2  UNL     1      21.811   6.594  50.271  1.00  0.00     0.154 C 
BRANCH  25  26
HETATM   26  C3  UNL     1      21.859   7.567  49.135  1.00  0.00     0.292 C 
BRANCH  26  27
HETATM   27  N2  UNL     1      23.040   8.432  49.237  1.00  0.00     0.094 N 
HETATM   28  C4  UNL     1      23.822   8.186  50.410  1.00  0.00     0.298 C 
HETATM   29  C5  UNL     1      25.262   7.862  50.022  1.00  0.00     0.198 C 
HETATM   30  O2  UNL     1      25.200   6.756  49.160  1.00  0.00    -0.388 OA
HETATM   31  C6  UNL     1      24.643   7.114  47.946  1.00  0.00     0.198 C 
HETATM   32  C7  UNL     1      23.788   8.336  48.024  1.00  0.00     0.298 C 
ENDBRANCH  26  27
ENDBRANCH  25  26
ENDBRANCH  22  25
ENDBRANCH   1  19
TORSDOF 4
ENDMDL
MODEL 5
REMARK VINA RESULT:      -8.7      3.799      5.843
REMARK  4 active torsions:
REMARK  status: ('A' for Active; 'I' for Inactive)
REMARK       I    between atoms: C1_2  and  N1_3 
REMARK       I    between atoms: C1_2  and  N3_12 
REMARK    1  A    between atoms: N1_3  and  C2_4 
REMARK    2  A    between atoms: C2_4  and  C3_5 
REMARK    3  A    between atoms: C3_5  and  N2_6 
REMARK    4  A    between atoms: N3_12  and  C8_13 
ROOT
HETATM    1  C8  UNL     1      23.204   1.231  51.526  1.00  0.00     0.046 A 
HETATM    2  C9  UNL     1      24.459   1.261  52.057  1.00  0.00     0.032 A 
HETATM    3  C10 UNL     1      24.676   0.539  53.206  1.00  0.00     0.035 A 
HETATM    4  C11 UNL     1      23.622  -0.189  53.781  1.00  0.00     0.073 A 
HETATM    5  N4  UNL     1      24.059  -0.836  54.880  1.00  0.00    -0.241 NA
HETATM    6  C12 UNL     1      23.249  -1.611  55.593  1.00  0.00     0.235 A 
HETATM    7  N5  UNL     1      22.006  -1.657  55.093  1.00  0.00    -0.224 NA
HETATM    8  C13 UNL     1      21.573  -1.010  53.994  1.00  0.00     0.138 A 
HETATM    9  C14 UNL     1      22.345  -0.227  53.251  1.00  0.00     0.050 A 
HETATM   10  C15 UNL     1      22.179   0.510  52.104  1.00  0.00     0.019 A 
HETATM   11  C16 UNL     1      20.948   0.652  51.278  1.00  0.00     0.210 C 
HETATM   12  F1  UNL     1      21.028  -0.121  50.153  1.00  0.00    -0.244 F 
HETATM   13  C17 UNL     1      19.847   0.385  52.141  1.00  0.00     0.069 C 
HETATM   14  C18 UNL     1      18.453   0.101  52.050  1.00  0.00    -0.026 C 
HETATM   15  C19 UNL     1      17.982  -0.968  52.780  1.00  0.00    -0.011 C 
HETATM   16  C20 UNL     1      18.876  -1.806  53.676  1.00  0.00     0.148 C 
HETATM   17  N6  UNL     1      20.192  -1.377  53.893  1.00  0.00    -0.371 N 
HETATM   18  H25 UNL     1      19.798  -0.763  54.694  1.00  0.00     0.161 HD
ENDROOT
BRANCH   1  19
HETATM   19  N3  UNL     1      23.021   1.992  50.339  1.00  0.00    -0.308 N 
HETATM   20  C1  UNL     1      22.712   3.340  50.220  1.00  0.00     0.320 C 
HETATM   21  O1  UNL     1      22.538   4.074  51.201  1.00  0.00    -0.247 OA
HETATM   22  N1  UNL     1      22.552   4.068  49.014  1.00  0.00    -0.341 N 
HETATM   23  H1  UNL     1      22.668   3.547  48.105  1.00  0.00     0.164 HD
HETATM   24  H14 UNL     1      23.130   1.601  49.359  1.00  0.00     0.170 HD
BRANCH  22  25
HETATM   25  C2  UNL     1      22.242   5.475  48.948  1.00  0.00     0.154 C 
BRANCH  25  26
HETATM   26  C3  UNL     1      23.028   6.221  47.916  1.00  0.00     0.292 C 
BRANCH  26  27
HETATM   27  N2  UNL     1      23.938   7.183  48.547  1.00  0.00     0.094 N 
HETATM   28  C4  UNL     1      23.775   7.269  49.966  1.00  0.00     0.298 C 
HETATM   29  C5  UNL     1      25.103   6.990  50.665  1.00  0.00     0.198 C 
HETATM   30  O2  UNL     1      25.517   5.720  50.234  1.00  0.00    -0.388 OA
HETATM   31  C6  UNL     1      25.887   5.752  48.902  1.00  0.00     0.198 C 
HETATM   32  C7  UNL     1      25.275   6.886  48.145  1.00  0.00     0.298 C 
ENDBRANCH  26  27
ENDBRANCH  25  26
ENDBRANCH  22  25
ENDBRANCH   1  19
TORSDOF 4
ENDMDL
MODEL 6
REMARK VINA RESULT:      -8.4      4.360      7.457
REMARK  4 active torsions:
REMARK  status: ('A' for Active; 'I' for Inactive)
REMARK       I    between atoms: C1_2  and  N1_3 
REMARK       I    between atoms: C1_2  and  N3_12 
REMARK    1  A    between atoms: N1_3  and  C2_4 
REMARK    2  A    between atoms: C2_4  and  C3_5 
REMARK    3  A    between atoms: C3_5  and  N2_6 
REMARK    4  A    between atoms: N3_12  and  C8_13 
ROOT
HETATM    1  C8  UNL     1      24.969   2.411  51.204  1.00  0.00     0.046 A 
HETATM    2  C9  UNL     1      26.287   2.742  51.090  1.00  0.00     0.032 A 
HETATM    3  C10 UNL     1      27.163   2.157  51.974  1.00  0.00     0.035 A 
HETATM    4  C11 UNL     1      26.683   1.259  52.940  1.00  0.00     0.073 A 
HETATM    5  N4  UNL     1      27.708   0.792  53.680  1.00  0.00    -0.241 NA
HETATM    6  C12 UNL     1      27.512  -0.091  54.652  1.00  0.00     0.235 A 
HETATM    7  N5  UNL     1      26.223  -0.433  54.787  1.00  0.00    -0.224 NA
HETATM    8  C13 UNL     1      25.201   0.036  54.046  1.00  0.00     0.138 A 
HETATM    9  C14 UNL     1      25.348   0.915  53.064  1.00  0.00     0.050 A 
HETATM   10  C15 UNL     1      24.514   1.525  52.160  1.00  0.00     0.019 A 
HETATM   11  C16 UNL     1      23.043   1.348  52.009  1.00  0.00     0.210 C 
HETATM   12  F1  UNL     1      22.760   0.541  50.942  1.00  0.00    -0.244 F 
HETATM   13  C17 UNL     1      22.556   0.908  53.272  1.00  0.00     0.069 C 
HETATM   14  C18 UNL     1      21.378   0.328  53.828  1.00  0.00    -0.026 C 
HETATM   15  C19 UNL     1      21.545  -0.768  54.645  1.00  0.00    -0.011 C 
HETATM   16  C20 UNL     1      22.910  -1.337  54.984  1.00  0.00     0.148 C 
HETATM   17  N6  UNL     1      24.048  -0.624  54.583  1.00  0.00    -0.371 N 
HETATM   18  H25 UNL     1      23.946  -0.059  55.501  1.00  0.00     0.161 HD
ENDROOT
BRANCH   1  19
HETATM   19  N3  UNL     1      24.096   3.037  50.273  1.00  0.00    -0.308 N 
HETATM   20  C1  UNL     1      23.363   4.205  50.434  1.00  0.00     0.320 C 
HETATM   21  O1  UNL     1      23.380   4.866  51.480  1.00  0.00    -0.247 OA
HETATM   22  N1  UNL     1      22.512   4.808  49.473  1.00  0.00    -0.341 N 
HETATM   23  H1  UNL     1      22.407   4.331  48.538  1.00  0.00     0.164 HD
HETATM   24  H14 UNL     1      23.916   2.679  49.291  1.00  0.00     0.170 HD
BRANCH  22  25
HETATM   25  C2  UNL     1      21.780   6.032  49.689  1.00  0.00     0.154 C 
BRANCH  25  26
HETATM   26  C3  UNL     1      20.390   5.824  50.204  1.00  0.00     0.292 C 
BRANCH  26  27
HETATM   27  N2  UNL     1      20.033   4.401  50.185  1.00  0.00     0.094 N 
HETATM   28  C4  UNL     1      19.733   3.876  51.482  1.00  0.00     0.298 C 
HETATM   29  C5  UNL     1      18.339   3.254  51.486  1.00  0.00     0.198 C 
HETATM   30  O2  UNL     1      17.454   4.266  51.085  1.00  0.00    -0.388 OA
HETATM   31  C6  UNL     1      17.635   4.571  49.748  1.00  0.00     0.198 C 
HETATM   32  C7  UNL     1      18.988   4.200  49.234  1.00  0.00     0.298 C 
ENDBRANCH  26  27
ENDBRANCH  25  26
ENDBRANCH  22  25
ENDBRANCH   1  19
TORSDOF 4
ENDMDL
MODEL 7
REMARK VINA RESULT:      -8.2      4.638     10.169
REMARK  4 active torsions:
REMARK  status: ('A' for Active; 'I' for Inactive)
REMARK       I    between atoms: C1_2  and  N1_3 
REMARK       I    between atoms: C1_2  and  N3_12 
REMARK    1  A    between atoms: N1_3  and  C2_4 
REMARK    2  A    between atoms: C2_4  and  C3_5 
REMARK    3  A    between atoms: C3_5  and  N2_6 
REMARK    4  A    between atoms: N3_12  and  C8_13 
ROOT
HETATM    1  C8  UNL     1      22.120   1.160  52.884  1.00  0.00     0.046 A 
HETATM    2  C9  UNL     1      22.151   0.065  53.696  1.00  0.00     0.032 A 
HETATM    3  C10 UNL     1      23.359  -0.571  53.852  1.00  0.00     0.035 A 
HETATM    4  C11 UNL     1      24.495  -0.082  53.187  1.00  0.00     0.073 A 
HETATM    5  N4  UNL     1      25.567  -0.838  53.497  1.00  0.00    -0.241 NA
HETATM    6  C12 UNL     1      26.770  -0.565  53.004  1.00  0.00     0.235 A 
HETATM    7  N5  UNL     1      26.768   0.507  52.200  1.00  0.00    -0.224 NA
HETATM    8  C13 UNL     1      25.694   1.260  51.892  1.00  0.00     0.138 A 
HETATM    9  C14 UNL     1      24.475   1.027  52.361  1.00  0.00     0.050 A 
HETATM   10  C15 UNL     1      23.246   1.627  52.237  1.00  0.00     0.019 A 
HETATM   11  C16 UNL     1      22.897   2.846  51.456  1.00  0.00     0.210 C 
HETATM   12  F1  UNL     1      22.767   3.929  52.280  1.00  0.00    -0.244 F 
HETATM   13  C17 UNL     1      23.873   2.960  50.425  1.00  0.00     0.069 C 
HETATM   14  C18 UNL     1      24.337   3.926  49.485  1.00  0.00    -0.026 C 
HETATM   15  C19 UNL     1      25.698   4.121  49.405  1.00  0.00    -0.011 C 
HETATM   16  C20 UNL     1      26.689   3.335  50.243  1.00  0.00     0.148 C 
HETATM   17  N6  UNL     1      26.211   2.260  51.007  1.00  0.00    -0.371 N 
HETATM   18  H25 UNL     1      26.330   1.653  50.119  1.00  0.00     0.161 HD
ENDROOT
BRANCH   1  19
HETATM   19  N3  UNL     1      20.852   1.788  52.748  1.00  0.00    -0.308 N 
HETATM   20  C1  UNL     1      19.771   1.385  51.975  1.00  0.00     0.320 C 
HETATM   21  O1  UNL     1      19.799   0.374  51.263  1.00  0.00    -0.247 OA
HETATM   22  N1  UNL     1      18.513   2.033  51.878  1.00  0.00    -0.341 N 
HETATM   23  H1  UNL     1      18.368   2.916  52.435  1.00  0.00     0.164 HD
HETATM   24  H14 UNL     1      20.564   2.667  53.267  1.00  0.00     0.170 HD
BRANCH  22  25
HETATM   25  C2  UNL     1      17.417   1.563  51.066  1.00  0.00     0.154 C 
BRANCH  25  26
HETATM   26  C3  UNL     1      16.067   1.837  51.653  1.00  0.00     0.292 C 
BRANCH  26  27
HETATM   27  N2  UNL     1      15.526   3.103  51.150  1.00  0.00     0.094 N 
HETATM   28  C4  UNL     1      14.143   3.025  50.790  1.00  0.00     0.298 C 
HETATM   29  C5  UNL     1      13.342   4.076  51.553  1.00  0.00     0.198 C 
HETATM   30  O2  UNL     1      13.570   3.834  52.917  1.00  0.00    -0.388 OA
HETATM   31  C6  UNL     1      14.873   4.153  53.258  1.00  0.00     0.198 C 
HETATM   32  C7  UNL     1      15.810   4.135  52.094  1.00  0.00     0.298 C 
ENDBRANCH  26  27
ENDBRANCH  25  26
ENDBRANCH  22  25
ENDBRANCH   1  19
TORSDOF 4
ENDMDL
MODEL 8
REMARK VINA RESULT:      -8.2      4.418      6.900
REMARK  4 active torsions:
REMARK  status: ('A' for Active; 'I' for Inactive)
REMARK       I    between atoms: C1_2  and  N1_3 
REMARK       I    between atoms: C1_2  and  N3_12 
REMARK    1  A    between atoms: N1_3  and  C2_4 
REMARK    2  A    between atoms: C2_4  and  C3_5 
REMARK    3  A    between atoms: C3_5  and  N2_6 
REMARK    4  A    between atoms: N3_12  and  C8_13 
ROOT
HETATM    1  C8  UNL     1      24.532   2.528  51.058  1.00  0.00     0.046 A 
HETATM    2  C9  UNL     1      25.837   2.808  50.778  1.00  0.00     0.032 A 
HETATM    3  C10 UNL     1      26.795   2.114  51.478  1.00  0.00     0.035 A 
HETATM    4  C11 UNL     1      26.407   1.163  52.435  1.00  0.00     0.073 A 
HETATM    5  N4  UNL     1      27.500   0.592  52.981  1.00  0.00    -0.241 NA
HETATM    6  C12 UNL     1      27.394  -0.358  53.903  1.00  0.00     0.235 A 
HETATM    7  N5  UNL     1      26.121  -0.652  54.199  1.00  0.00    -0.224 NA
HETATM    8  C13 UNL     1      25.031  -0.079  53.651  1.00  0.00     0.138 A 
HETATM    9  C14 UNL     1      25.087   0.870  52.727  1.00  0.00     0.050 A 
HETATM   10  C15 UNL     1      24.168   1.589  52.002  1.00  0.00     0.019 A 
HETATM   11  C16 UNL     1      22.684   1.491  52.054  1.00  0.00     0.210 C 
HETATM   12  F1  UNL     1      22.207   0.786  50.983  1.00  0.00    -0.244 F 
HETATM   13  C17 UNL     1      22.356   0.971  53.339  1.00  0.00     0.069 C 
HETATM   14  C18 UNL     1      21.239   0.401  54.016  1.00  0.00    -0.026 C 
HETATM   15  C19 UNL     1      21.458  -0.765  54.717  1.00  0.00    -0.011 C 
HETATM   16  C20 UNL     1      22.824  -1.420  54.810  1.00  0.00     0.148 C 
HETATM   17  N6  UNL     1      23.932  -0.728  54.301  1.00  0.00    -0.371 N 
HETATM   18  H25 UNL     1      23.992  -0.235  55.263  1.00  0.00     0.161 HD
ENDROOT
BRANCH   1  19
HETATM   19  N3  UNL     1      23.572   3.266  50.314  1.00  0.00    -0.308 N 
HETATM   20  C1  UNL     1      23.074   4.536  50.573  1.00  0.00     0.320 C 
HETATM   21  O1  UNL     1      23.425   5.203  51.554  1.00  0.00    -0.247 OA
HETATM   22  N1  UNL     1      22.126   5.247  49.796  1.00  0.00    -0.341 N 
HETATM   23  H1  UNL     1      21.742   4.778  48.933  1.00  0.00     0.164 HD
HETATM   24  H14 UNL     1      23.124   2.925  49.416  1.00  0.00     0.170 HD
BRANCH  22  25
HETATM   25  C2  UNL     1      21.650   6.573  50.106  1.00  0.00     0.154 C 
BRANCH  25  26
HETATM   26  C3  UNL     1      21.843   7.562  48.998  1.00  0.00     0.292 C 
BRANCH  26  27
HETATM   27  N2  UNL     1      20.553   8.078  48.529  1.00  0.00     0.094 N 
HETATM   28  C4  UNL     1      19.612   8.295  49.584  1.00  0.00     0.298 C 
HETATM   29  C5  UNL     1      19.127   9.742  49.566  1.00  0.00     0.198 C 
HETATM   30  O2  UNL     1      20.274  10.544  49.678  1.00  0.00    -0.388 OA
HETATM   31  C6  UNL     1      21.033  10.475  48.525  1.00  0.00     0.198 C 
HETATM   32  C7  UNL     1      20.785   9.236  47.726  1.00  0.00     0.298 C 
ENDBRANCH  26  27
ENDBRANCH  25  26
ENDBRANCH  22  25
ENDBRANCH   1  19
TORSDOF 4
ENDMDL
MODEL 9
REMARK VINA RESULT:      -8.1      2.618      4.365
REMARK  4 active torsions:
REMARK  status: ('A' for Active; 'I' for Inactive)
REMARK       I    between atoms: C1_2  and  N1_3 
REMARK       I    between atoms: C1_2  and  N3_12 
REMARK    1  A    between atoms: N1_3  and  C2_4 
REMARK    2  A    between atoms: C2_4  and  C3_5 
REMARK    3  A    between atoms: C3_5  and  N2_6 
REMARK    4  A    between atoms: N3_12  and  C8_13 
ROOT
HETATM    1  C8  UNL     1      25.049   2.437  50.799  1.00  0.00     0.046 A 
HETATM    2  C9  UNL     1      26.363   2.315  51.143  1.00  0.00     0.032 A 
HETATM    3  C10 UNL     1      26.666   1.477  52.190  1.00  0.00     0.035 A 
HETATM    4  C11 UNL     1      25.636   0.791  52.853  1.00  0.00     0.073 A 
HETATM    5  N4  UNL     1      26.157   0.015  53.825  1.00  0.00    -0.241 NA
HETATM    6  C12 UNL     1      25.382  -0.751  54.586  1.00  0.00     0.235 A 
HETATM    7  N5  UNL     1      24.085  -0.648  54.270  1.00  0.00    -0.224 NA
HETATM    8  C13 UNL     1      23.568   0.129  53.298  1.00  0.00     0.138 A 
HETATM    9  C14 UNL     1      24.301   0.907  52.513  1.00  0.00     0.050 A 
HETATM   10  C15 UNL     1      24.050   1.755  51.462  1.00  0.00     0.019 A 
HETATM   11  C16 UNL     1      22.736   2.072  50.837  1.00  0.00     0.210 C 
HETATM   12  F1  UNL     1      22.587   1.399  49.656  1.00  0.00    -0.244 F 
HETATM   13  C17 UNL     1      21.744   1.822  51.827  1.00  0.00     0.069 C 
HETATM   14  C18 UNL     1      20.331   1.665  51.918  1.00  0.00    -0.026 C 
HETATM   15  C19 UNL     1      19.864   0.577  52.624  1.00  0.00    -0.011 C 
HETATM   16  C20 UNL     1      20.789  -0.409  53.314  1.00  0.00     0.148 C 
HETATM   17  N6  UNL     1      22.158  -0.112  53.371  1.00  0.00    -0.371 N 
HETATM   18  H25 UNL     1      21.937   0.459  54.265  1.00  0.00     0.161 HD
ENDROOT
BRANCH   1  19
HETATM   19  N3  UNL     1      24.778   3.313  49.712  1.00  0.00    -0.308 N 
HETATM   20  C1  UNL     1      24.728   4.700  49.718  1.00  0.00     0.320 C 
HETATM   21  O1  UNL     1      24.913   5.371  50.741  1.00  0.00    -0.247 OA
HETATM   22  N1  UNL     1      24.468   5.541  48.607  1.00  0.00    -0.341 N 
HETATM   23  H1  UNL     1      24.284   5.085  47.674  1.00  0.00     0.164 HD
HETATM   24  H14 UNL     1      24.599   2.991  48.718  1.00  0.00     0.170 HD
BRANCH  22  25
HETATM   25  C2  UNL     1      24.438   6.982  48.667  1.00  0.00     0.154 C 
BRANCH  25  26
HETATM   26  C3  UNL     1      25.648   7.638  48.077  1.00  0.00     0.292 C 
BRANCH  26  27
HETATM   27  N2  UNL     1      26.825   7.425  48.926  1.00  0.00     0.094 N 
HETATM   28  C4  UNL     1      28.052   7.381  48.192  1.00  0.00     0.298 C 
HETATM   29  C5  UNL     1      29.025   8.424  48.733  1.00  0.00     0.198 C 
HETATM   30  O2  UNL     1      28.370   9.662  48.636  1.00  0.00    -0.388 OA
HETATM   31  C6  UNL     1      27.327   9.735  49.542  1.00  0.00     0.198 C 
HETATM   32  C7  UNL     1      26.822   8.397  49.971  1.00  0.00     0.298 C 
ENDBRANCH  26  27
ENDBRANCH  25  26
ENDBRANCH  22  25
ENDBRANCH   1  19
TORSDOF 4
ENDMDL
