MODEL 1
REMARK VINA RESULT:      -7.2      0.000      0.000
REMARK  7 active torsions:
REMARK  status: ('A' for Active; 'I' for Inactive)
REMARK    1  A    between atoms: C3_3  and  C4_5 
REMARK    2  A    between atoms: C4_5  and  C5_6 
REMARK    3  A    between atoms: C5_6  and  C6_7 
REMARK    4  A    between atoms: C6_7  and  N1_8 
REMARK    5  A    between atoms: N1_8  and  C7_9 
REMARK    6  A    between atoms: C12_18  and  C13_19 
REMARK    7  A    between atoms: C14_20  and  C16_22 
ROOT
HETATM    1  C7  UNL     1      24.005   2.611  51.490  1.00  0.00     0.220 A 
HETATM    2  C8  UNL     1      22.959   3.616  51.229  1.00  0.00     0.471 A 
HETATM    3  N2  UNL     1      21.962   4.427  50.936  1.00  0.00     0.239 N 
HETATM    4  C9  UNL     1      21.916   5.782  51.335  1.00  0.00     0.539 A 
HETATM    5  N3  UNL     1      22.114   4.479  51.035  1.00  0.00     0.239 N 
HETATM    6  C10 UNL     1      22.995   3.583  51.239  1.00  0.00     0.470 A 
HETATM    7  O1  UNL     1      22.165   2.655  50.231  1.00  0.00     0.000 OA
HETATM    8  C11 UNL     1      22.037   1.476  49.607  1.00  0.00     0.132 C 
HETATM    9  N4  UNL     1      21.465   0.600  50.519  1.00  0.00    -0.271 NA
HETATM   10  C12 UNL     1      21.097   1.141  51.907  1.00  0.00     0.228 C 
HETATM   11  N5  UNL     1      21.588   2.590  51.862  1.00  0.00    -0.335 N 
HETATM   12  H19 UNL     1      20.636   2.815  52.458  1.00  0.00     0.160 HD
ENDROOT
BRANCH   1  13
HETATM   13  N1  UNL     1      25.217   3.056  52.222  1.00  0.00    -0.401 N 
HETATM   14  H9  UNL     1      25.590   4.029  52.042  1.00  0.00     0.154 HD
BRANCH  13  15
HETATM   15  C6  UNL     1      25.589   1.985  53.069  1.00  0.00     0.124 C 
BRANCH  15  16
HETATM   16  C5  UNL     1      25.554   0.631  52.348  1.00  0.00     0.036 C 
BRANCH  16  17
HETATM   17  C4  UNL     1      26.752   0.052  52.681  1.00  0.00     0.004 C 
BRANCH  17  18
HETATM   18  C3  UNL     1      27.975  -0.627  53.074  1.00  0.00     0.026 C 
HETATM   19  C2  UNL     1      28.863  -1.683  53.252  1.00  0.00    -0.008 C 
HETATM   20  C1  UNL     1      30.099  -0.918  53.705  1.00  0.00     0.038 C 
HETATM   21 CL1  UNL     1      28.904   0.839  53.498  1.00  0.00    -0.085 Cl
ENDBRANCH  17  18
ENDBRANCH  16  17
ENDBRANCH  15  16
ENDBRANCH  13  15
ENDBRANCH   1  13
BRANCH  10  22
HETATM   22  C13 UNL     1      21.919   0.489  52.910  1.00  0.00     0.025 C 
HETATM   23  C14 UNL     1      22.196  -0.285  53.881  1.00  0.00    -0.056 C 
HETATM   24  C15 UNL     1      22.665  -1.175  55.045  1.00  0.00     0.046 C 
BRANCH  23  25
HETATM   25  C16 UNL     1      20.747  -0.765  53.917  1.00  0.00     0.256 C 
HETATM   26  F1  UNL     1      20.684  -1.969  54.638  1.00  0.00    -0.251 F 
ENDBRANCH  23  25
ENDBRANCH  10  22
TORSDOF 7
ENDMDL
MODEL 2
REMARK VINA RESULT:      -7.0      3.765      6.312
REMARK  7 active torsions:
REMARK  status: ('A' for Active; 'I' for Inactive)
REMARK    1  A    between atoms: C3_3  and  C4_5 
REMARK    2  A    between atoms: C4_5  and  C5_6 
REMARK    3  A    between atoms: C5_6  and  C6_7 
REMARK    4  A    between atoms: C6_7  and  N1_8 
REMARK    5  A    between atoms: N1_8  and  C7_9 
REMARK    6  A    between atoms: C12_18  and  C13_19 
REMARK    7  A    between atoms: C14_20  and  C16_22 
ROOT
HETATM    1  C7  UNL     1      27.106   1.447  53.640  1.00  0.00     0.220 A 
HETATM    2  C8  UNL     1      28.009   0.286  53.747  1.00  0.00     0.471 A 
HETATM    3  N2  UNL     1      28.743  -0.793  53.934  1.00  0.00     0.239 N 
HETATM    4  C9  UNL     1      29.893  -1.094  53.170  1.00  0.00     0.539 A 
HETATM    5  N3  UNL     1      28.780  -0.662  53.803  1.00  0.00     0.239 N 
HETATM    6  C10 UNL     1      27.979   0.326  53.742  1.00  0.00     0.470 A 
HETATM    7  O1  UNL     1      27.313  -0.239  55.086  1.00  0.00     0.000 OA
HETATM    8  C11 UNL     1      26.377  -0.113  56.036  1.00  0.00     0.132 C 
HETATM    9  N4  UNL     1      25.201  -0.628  55.511  1.00  0.00    -0.271 NA
HETATM   10  C12 UNL     1      25.239  -1.217  54.095  1.00  0.00     0.228 C 
HETATM   11  N5  UNL     1      26.679  -0.961  53.646  1.00  0.00    -0.335 N 
HETATM   12  H19 UNL     1      26.592  -1.992  53.154  1.00  0.00     0.160 HD
ENDROOT
BRANCH   1  13
HETATM   13  N1  UNL     1      27.448   2.492  52.642  1.00  0.00    -0.401 N 
HETATM   14  H9  UNL     1      28.423   2.900  52.649  1.00  0.00     0.154 HD
BRANCH  13  15
HETATM   15  C6  UNL     1      26.291   2.679  51.848  1.00  0.00     0.124 C 
BRANCH  15  16
HETATM   16  C5  UNL     1      26.556   2.417  50.360  1.00  0.00     0.036 C 
BRANCH  16  17
HETATM   17  C4  UNL     1      26.442   3.656  49.784  1.00  0.00     0.004 C 
BRANCH  17  18
HETATM   18  C3  UNL     1      26.409   4.968  49.158  1.00  0.00     0.026 C 
HETATM   19  C2  UNL     1      25.914   6.223  48.820  1.00  0.00    -0.008 C 
HETATM   20  C1  UNL     1      27.126   6.804  48.105  1.00  0.00     0.038 C 
HETATM   21 CL1  UNL     1      28.079   4.940  48.523  1.00  0.00    -0.085 Cl
ENDBRANCH  17  18
ENDBRANCH  16  17
ENDBRANCH  15  16
ENDBRANCH  13  15
ENDBRANCH   1  13
BRANCH  10  22
HETATM   22  C13 UNL     1      24.414  -0.408  53.216  1.00  0.00     0.025 C 
HETATM   23  C14 UNL     1      23.347   0.038  52.686  1.00  0.00    -0.056 C 
HETATM   24  C15 UNL     1      22.138   0.660  51.966  1.00  0.00     0.046 C 
BRANCH  23  25
HETATM   25  C16 UNL     1      22.514  -0.868  53.591  1.00  0.00     0.256 C 
HETATM   26  F1  UNL     1      21.505  -0.103  54.198  1.00  0.00    -0.251 F 
ENDBRANCH  23  25
ENDBRANCH  10  22
TORSDOF 7
ENDMDL
MODEL 3
REMARK VINA RESULT:      -6.9      3.752      5.936
REMARK  7 active torsions:
REMARK  status: ('A' for Active; 'I' for Inactive)
REMARK    1  A    between atoms: C3_3  and  C4_5 
REMARK    2  A    between atoms: C4_5  and  C5_6 
REMARK    3  A    between atoms: C5_6  and  C6_7 
REMARK    4  A    between atoms: C6_7  and  N1_8 
REMARK    5  A    between atoms: N1_8  and  C7_9 
REMARK    6  A    between atoms: C12_18  and  C13_19 
REMARK    7  A    between atoms: C14_20  and  C16_22 
ROOT
HETATM    1  C7  UNL     1      25.026   2.309  51.493  1.00  0.00     0.220 A 
HETATM    2  C8  UNL     1      23.648   2.146  50.994  1.00  0.00     0.471 A 
HETATM    3  N2  UNL     1      22.401   2.120  50.566  1.00  0.00     0.239 N 
HETATM    4  C9  UNL     1      21.766   0.952  50.088  1.00  0.00     0.539 A 
HETATM    5  N3  UNL     1      22.514   1.969  50.571  1.00  0.00     0.239 N 
HETATM    6  C10 UNL     1      23.695   2.149  51.010  1.00  0.00     0.470 A 
HETATM    7  O1  UNL     1      23.226   3.625  51.425  1.00  0.00     0.000 OA
HETATM    8  C11 UNL     1      23.534   4.811  51.966  1.00  0.00     0.132 C 
HETATM    9  N4  UNL     1      24.182   5.544  50.981  1.00  0.00    -0.271 NA
HETATM   10  C12 UNL     1      24.349   4.904  49.597  1.00  0.00     0.228 C 
HETATM   11  N5  UNL     1      23.755   3.506  49.781  1.00  0.00    -0.335 N 
HETATM   12  H19 UNL     1      23.347   3.660  48.721  1.00  0.00     0.160 HD
ENDROOT
BRANCH   1  13
HETATM   13  N1  UNL     1      25.876   1.095  51.571  1.00  0.00    -0.401 N 
HETATM   14  H9  UNL     1      26.013   0.514  50.699  1.00  0.00     0.154 HD
BRANCH  13  15
HETATM   15  C6  UNL     1      26.352   1.025  52.902  1.00  0.00     0.124 C 
BRANCH  15  16
HETATM   16  C5  UNL     1      26.183  -0.374  53.510  1.00  0.00     0.036 C 
BRANCH  16  17
HETATM   17  C4  UNL     1      24.824  -0.520  53.618  1.00  0.00     0.004 C 
BRANCH  17  18
HETATM   18  C3  UNL     1      23.380  -0.595  53.773  1.00  0.00     0.026 C 
HETATM   19  C2  UNL     1      22.039  -0.514  53.414  1.00  0.00    -0.008 C 
HETATM   20  C1  UNL     1      21.393  -1.108  54.657  1.00  0.00     0.038 C 
HETATM   21 CL1  UNL     1      23.381  -1.323  55.404  1.00  0.00    -0.085 Cl
ENDBRANCH  17  18
ENDBRANCH  16  17
ENDBRANCH  15  16
ENDBRANCH  13  15
ENDBRANCH   1  13
BRANCH  10  22
HETATM   22  C13 UNL     1      25.760   4.690  49.334  1.00  0.00     0.025 C 
HETATM   23  C14 UNL     1      26.933   4.957  48.920  1.00  0.00    -0.056 C 
HETATM   24  C15 UNL     1      28.390   5.153  48.466  1.00  0.00     0.046 C 
BRANCH  23  25
HETATM   25  C16 UNL     1      26.465   6.340  48.474  1.00  0.00     0.256 C 
HETATM   26  F1  UNL     1      27.249   7.315  49.110  1.00  0.00    -0.251 F 
ENDBRANCH  23  25
ENDBRANCH  10  22
TORSDOF 7
ENDMDL
MODEL 4
REMARK VINA RESULT:      -6.8      3.041      5.241
REMARK  7 active torsions:
REMARK  status: ('A' for Active; 'I' for Inactive)
REMARK    1  A    between atoms: C3_3  and  C4_5 
REMARK    2  A    between atoms: C4_5  and  C5_6 
REMARK    3  A    between atoms: C5_6  and  C6_7 
REMARK    4  A    between atoms: C6_7  and  N1_8 
REMARK    5  A    between atoms: N1_8  and  C7_9 
REMARK    6  A    between atoms: C12_18  and  C13_19 
REMARK    7  A    between atoms: C14_20  and  C16_22 
ROOT
HETATM    1  C7  UNL     1      25.031   1.176  54.018  1.00  0.00     0.220 A 
HETATM    2  C8  UNL     1      25.614  -0.061  53.466  1.00  0.00     0.471 A 
HETATM    3  N2  UNL     1      26.061  -1.229  53.049  1.00  0.00     0.239 N 
HETATM    4  C9  UNL     1      27.038  -1.373  52.038  1.00  0.00     0.539 A 
HETATM    5  N3  UNL     1      26.121  -1.063  52.981  1.00  0.00     0.239 N 
HETATM    6  C10 UNL     1      25.595  -0.018  53.484  1.00  0.00     0.470 A 
HETATM    7  O1  UNL     1      24.907  -0.984  54.561  1.00  0.00     0.000 OA
HETATM    8  C11 UNL     1      24.105  -1.118  55.626  1.00  0.00     0.132 C 
HETATM    9  N4  UNL     1      22.802  -1.100  55.152  1.00  0.00    -0.271 NA
HETATM   10  C12 UNL     1      22.586  -0.984  53.637  1.00  0.00     0.228 C 
HETATM   11  N5  UNL     1      24.007  -0.841  53.089  1.00  0.00    -0.335 N 
HETATM   12  H19 UNL     1      23.625  -1.502  52.234  1.00  0.00     0.160 HD
ENDROOT
BRANCH   1  13
HETATM   13  N1  UNL     1      25.554   2.468  53.508  1.00  0.00    -0.401 N 
HETATM   14  H9  UNL     1      26.601   2.598  53.434  1.00  0.00     0.154 HD
BRANCH  13  15
HETATM   15  C6  UNL     1      24.425   3.262  53.198  1.00  0.00     0.124 C 
BRANCH  15  16
HETATM   16  C5  UNL     1      23.901   3.003  51.779  1.00  0.00     0.036 C 
BRANCH  16  17
HETATM   17  C4  UNL     1      24.753   3.720  50.980  1.00  0.00     0.004 C 
BRANCH  17  18
HETATM   18  C3  UNL     1      25.617   4.443  50.061  1.00  0.00     0.026 C 
HETATM   19  C2  UNL     1      26.155   5.533  49.385  1.00  0.00    -0.008 C 
HETATM   20  C1  UNL     1      27.326   4.861  48.683  1.00  0.00     0.038 C 
HETATM   21 CL1  UNL     1      26.666   3.064  49.628  1.00  0.00    -0.085 Cl
ENDBRANCH  17  18
ENDBRANCH  16  17
ENDBRANCH  15  16
ENDBRANCH  13  15
ENDBRANCH   1  13
BRANCH  10  22
HETATM   22  C13 UNL     1      21.932   0.278  53.341  1.00  0.00     0.025 C 
HETATM   23  C14 UNL     1      21.012   1.060  52.941  1.00  0.00    -0.056 C 
HETATM   24  C15 UNL     1      19.984   2.113  52.491  1.00  0.00     0.046 C 
BRANCH  23  25
HETATM   25  C16 UNL     1      20.122  -0.140  52.629  1.00  0.00     0.256 C 
HETATM   26  F1  UNL     1      19.415  -0.498  53.788  1.00  0.00    -0.251 F 
ENDBRANCH  23  25
ENDBRANCH  10  22
TORSDOF 7
ENDMDL
MODEL 5
REMARK VINA RESULT:      -6.6      3.700      5.502
REMARK  7 active torsions:
REMARK  status: ('A' for Active; 'I' for Inactive)
REMARK    1  A    between atoms: C3_3  and  C4_5 
REMARK    2  A    between atoms: C4_5  and  C5_6 
REMARK    3  A    between atoms: C5_6  and  C6_7 
REMARK    4  A    between atoms: C6_7  and  N1_8 
REMARK    5  A    between atoms: N1_8  and  C7_9 
REMARK    6  A    between atoms: C12_18  and  C13_19 
REMARK    7  A    between atoms: C14_20  and  C16_22 
ROOT
HETATM    1  C7  UNL     1      23.237   3.022  52.396  1.00  0.00     0.220 A 
HETATM    2  C8  UNL     1      23.455   1.602  52.726  1.00  0.00     0.471 A 
HETATM    3  N2  UNL     1      23.527   0.319  53.022  1.00  0.00     0.239 N 
HETATM    4  C9  UNL     1      24.747  -0.378  53.171  1.00  0.00     0.539 A 
HETATM    5  N3  UNL     1      23.678   0.430  52.995  1.00  0.00     0.239 N 
HETATM    6  C10 UNL     1      23.449   1.650  52.714  1.00  0.00     0.470 A 
HETATM    7  O1  UNL     1      21.907   1.347  53.028  1.00  0.00     0.000 OA
HETATM    8  C11 UNL     1      20.647   1.795  53.098  1.00  0.00     0.132 C 
HETATM    9  N4  UNL     1      20.146   1.785  51.804  1.00  0.00    -0.271 NA
HETATM   10  C12 UNL     1      21.055   1.266  50.681  1.00  0.00     0.228 C 
HETATM   11  N5  UNL     1      22.369   0.963  51.404  1.00  0.00    -0.335 N 
HETATM   12  H19 UNL     1      22.417   0.057  50.704  1.00  0.00     0.160 HD
ENDROOT
BRANCH   1  13
HETATM   13  N1  UNL     1      24.437   3.884  52.246  1.00  0.00    -0.401 N 
HETATM   14  H9  UNL     1      25.103   3.972  53.063  1.00  0.00     0.154 HD
BRANCH  13  15
HETATM   15  C6  UNL     1      24.399   4.396  50.928  1.00  0.00     0.124 C 
BRANCH  15  16
HETATM   16  C5  UNL     1      25.081   3.462  49.919  1.00  0.00     0.036 C 
BRANCH  16  17
HETATM   17  C4  UNL     1      26.138   4.202  49.453  1.00  0.00     0.004 C 
BRANCH  17  18
HETATM   18  C3  UNL     1      27.229   4.969  48.874  1.00  0.00     0.026 C 
HETATM   19  C2  UNL     1      28.504   5.226  48.380  1.00  0.00    -0.008 C 
HETATM   20  C1  UNL     1      28.298   6.630  47.829  1.00  0.00     0.038 C 
HETATM   21 CL1  UNL     1      26.284   6.441  48.514  1.00  0.00    -0.085 Cl
ENDBRANCH  17  18
ENDBRANCH  16  17
ENDBRANCH  15  16
ENDBRANCH  13  15
ENDBRANCH   1  13
BRANCH  10  22
HETATM   22  C13 UNL     1      21.361   2.353  49.769  1.00  0.00     0.025 C 
HETATM   23  C14 UNL     1      21.725   2.911  48.686  1.00  0.00    -0.056 C 
HETATM   24  C15 UNL     1      22.145   3.711  47.441  1.00  0.00     0.046 C 
BRANCH  23  25
HETATM   25  C16 UNL     1      21.908   1.542  48.037  1.00  0.00     0.256 C 
HETATM   26  F1  UNL     1      22.970   1.610  47.120  1.00  0.00    -0.251 F 
ENDBRANCH  23  25
ENDBRANCH  10  22
TORSDOF 7
ENDMDL
MODEL 6
REMARK VINA RESULT:      -6.6      3.444      5.742
REMARK  7 active torsions:
REMARK  status: ('A' for Active; 'I' for Inactive)
REMARK    1  A    between atoms: C3_3  and  C4_5 
REMARK    2  A    between atoms: C4_5  and  C5_6 
REMARK    3  A    between atoms: C5_6  and  C6_7 
REMARK    4  A    between atoms: C6_7  and  N1_8 
REMARK    5  A    between atoms: N1_8  and  C7_9 
REMARK    6  A    between atoms: C12_18  and  C13_19 
REMARK    7  A    between atoms: C14_20  and  C16_22 
ROOT
HETATM    1  C7  UNL     1      23.401   3.317  49.796  1.00  0.00     0.220 A 
HETATM    2  C8  UNL     1      24.763   3.880  49.829  1.00  0.00     0.471 A 
HETATM    3  N2  UNL     1      25.948   4.443  49.963  1.00  0.00     0.239 N 
HETATM    4  C9  UNL     1      27.025   4.211  49.077  1.00  0.00     0.539 A 
HETATM    5  N3  UNL     1      25.903   4.323  49.824  1.00  0.00     0.239 N 
HETATM    6  C10 UNL     1      24.718   3.860  49.827  1.00  0.00     0.470 A 
HETATM    7  O1  UNL     1      24.404   4.899  51.007  1.00  0.00     0.000 OA
HETATM    8  C11 UNL     1      23.522   5.402  51.880  1.00  0.00     0.132 C 
HETATM    9  N4  UNL     1      23.476   4.524  52.954  1.00  0.00    -0.271 NA
HETATM   10  C12 UNL     1      24.399   3.298  52.925  1.00  0.00     0.228 C 
HETATM   11  N5  UNL     1      25.088   3.409  51.563  1.00  0.00    -0.335 N 
HETATM   12  H19 UNL     1      26.013   3.031  52.125  1.00  0.00     0.160 HD
ENDROOT
BRANCH   1  13
HETATM   13  N1  UNL     1      23.056   2.423  48.662  1.00  0.00    -0.401 N 
HETATM   14  H9  UNL     1      23.687   2.413  47.813  1.00  0.00     0.154 HD
BRANCH  13  15
HETATM   15  C6  UNL     1      21.883   1.729  49.042  1.00  0.00     0.124 C 
BRANCH  15  16
HETATM   16  C5  UNL     1      21.038   2.520  50.050  1.00  0.00     0.036 C 
BRANCH  16  17
HETATM   17  C4  UNL     1      20.352   1.549  50.734  1.00  0.00     0.004 C 
BRANCH  17  18
HETATM   18  C3  UNL     1      19.559   0.580  51.472  1.00  0.00     0.026 C 
HETATM   19  C2  UNL     1      19.180  -0.235  52.533  1.00  0.00    -0.008 C 
HETATM   20  C1  UNL     1      17.834  -0.730  52.021  1.00  0.00     0.038 C 
HETATM   21 CL1  UNL     1      18.221   0.463  50.294  1.00  0.00    -0.085 Cl
ENDBRANCH  17  18
ENDBRANCH  16  17
ENDBRANCH  15  16
ENDBRANCH  13  15
ENDBRANCH   1  13
BRANCH  10  22
HETATM   22  C13 UNL     1      23.593   2.093  52.851  1.00  0.00     0.025 C 
HETATM   23  C14 UNL     1      23.317   0.855  52.952  1.00  0.00    -0.056 C 
HETATM   24  C15 UNL     1      22.854  -0.610  53.028  1.00  0.00     0.046 C 
BRANCH  23  25
HETATM   25  C16 UNL     1      24.721   0.582  53.488  1.00  0.00     0.256 C 
HETATM   26  F1  UNL     1      24.754  -0.707  54.045  1.00  0.00    -0.251 F 
ENDBRANCH  23  25
ENDBRANCH  10  22
TORSDOF 7
ENDMDL
MODEL 7
REMARK VINA RESULT:      -6.4      4.806      6.834
REMARK  7 active torsions:
REMARK  status: ('A' for Active; 'I' for Inactive)
REMARK    1  A    between atoms: C3_3  and  C4_5 
REMARK    2  A    between atoms: C4_5  and  C5_6 
REMARK    3  A    between atoms: C5_6  and  C6_7 
REMARK    4  A    between atoms: C6_7  and  N1_8 
REMARK    5  A    between atoms: N1_8  and  C7_9 
REMARK    6  A    between atoms: C12_18  and  C13_19 
REMARK    7  A    between atoms: C14_20  and  C16_22 
ROOT
HETATM    1  C7  UNL     1      25.791   3.753  50.415  1.00  0.00     0.220 A 
HETATM    2  C8  UNL     1      24.491   3.886  49.732  1.00  0.00     0.471 A 
HETATM    3  N2  UNL     1      23.333   4.126  49.150  1.00  0.00     0.239 N 
HETATM    4  C9  UNL     1      22.579   3.137  48.478  1.00  0.00     0.539 A 
HETATM    5  N3  UNL     1      23.416   3.956  49.153  1.00  0.00     0.239 N 
HETATM    6  C10 UNL     1      24.535   3.880  49.754  1.00  0.00     0.470 A 
HETATM    7  O1  UNL     1      24.274   5.380  50.255  1.00  0.00     0.000 OA
HETATM    8  C11 UNL     1      24.703   6.443  50.948  1.00  0.00     0.132 C 
HETATM    9  N4  UNL     1      25.601   7.117  50.134  1.00  0.00    -0.271 NA
HETATM   10  C12 UNL     1      25.851   6.567  48.723  1.00  0.00     0.228 C 
HETATM   11  N5  UNL     1      25.004   5.293  48.687  1.00  0.00    -0.335 N 
HETATM   12  H19 UNL     1      24.784   5.602  47.606  1.00  0.00     0.160 HD
ENDROOT
BRANCH   1  13
HETATM   13  N1  UNL     1      26.398   2.399  50.476  1.00  0.00    -0.401 N 
HETATM   14  H9  UNL     1      26.452   1.827  49.588  1.00  0.00     0.154 HD
BRANCH  13  15
HETATM   15  C6  UNL     1      26.810   2.205  51.816  1.00  0.00     0.124 C 
BRANCH  15  16
HETATM   16  C5  UNL     1      26.826   0.723  52.212  1.00  0.00     0.036 C 
BRANCH  16  17
HETATM   17  C4  UNL     1      25.535   0.475  52.602  1.00  0.00     0.004 C 
BRANCH  17  18
HETATM   18  C3  UNL     1      24.190   0.127  53.029  1.00  0.00     0.026 C 
HETATM   19  C2  UNL     1      23.194  -0.446  53.814  1.00  0.00    -0.008 C 
HETATM   20  C1  UNL     1      21.960   0.171  53.171  1.00  0.00     0.038 C 
HETATM   21 CL1  UNL     1      23.322   1.154  51.853  1.00  0.00    -0.085 Cl
ENDBRANCH  17  18
ENDBRANCH  16  17
ENDBRANCH  15  16
ENDBRANCH  13  15
ENDBRANCH   1  13
BRANCH  10  22
HETATM   22  C13 UNL     1      27.227   6.116  48.620  1.00  0.00     0.025 C 
HETATM   23  C14 UNL     1      28.441   6.124  48.243  1.00  0.00    -0.056 C 
HETATM   24  C15 UNL     1      29.929   6.016  47.863  1.00  0.00     0.046 C 
BRANCH  23  25
HETATM   25  C16 UNL     1      28.194   7.410  47.458  1.00  0.00     0.256 C 
HETATM   26  F1  UNL     1      28.488   8.510  48.281  1.00  0.00    -0.251 F 
ENDBRANCH  23  25
ENDBRANCH  10  22
TORSDOF 7
ENDMDL
MODEL 8
REMARK VINA RESULT:      -6.4      3.915      4.390
REMARK  7 active torsions:
REMARK  status: ('A' for Active; 'I' for Inactive)
REMARK    1  A    between atoms: C3_3  and  C4_5 
REMARK    2  A    between atoms: C4_5  and  C5_6 
REMARK    3  A    between atoms: C5_6  and  C6_7 
REMARK    4  A    between atoms: C6_7  and  N1_8 
REMARK    5  A    between atoms: N1_8  and  C7_9 
REMARK    6  A    between atoms: C12_18  and  C13_19 
REMARK    7  A    between atoms: C14_20  and  C16_22 
ROOT
HETATM    1  C7  UNL     1      24.551   3.392  50.545  1.00  0.00     0.220 A 
HETATM    2  C8  UNL     1      23.349   4.240  50.640  1.00  0.00     0.471 A 
HETATM    3  N2  UNL     1      22.208   4.900  50.686  1.00  0.00     0.239 N 
HETATM    4  C9  UNL     1      22.104   6.246  51.104  1.00  0.00     0.539 A 
HETATM    5  N3  UNL     1      22.375   4.974  50.734  1.00  0.00     0.239 N 
HETATM    6  C10 UNL     1      23.390   4.212  50.637  1.00  0.00     0.470 A 
HETATM    7  O1  UNL     1      22.423   3.155  49.920  1.00  0.00     0.000 OA
HETATM    8  C11 UNL     1      22.272   1.954  49.345  1.00  0.00     0.132 C 
HETATM    9  N4  UNL     1      22.136   1.032  50.373  1.00  0.00    -0.271 NA
HETATM   10  C12 UNL     1      22.146   1.553  51.817  1.00  0.00     0.228 C 
HETATM   11  N5  UNL     1      22.396   3.053  51.648  1.00  0.00    -0.335 N 
HETATM   12  H19 UNL     1      21.654   3.162  52.515  1.00  0.00     0.160 HD
ENDROOT
BRANCH   1  13
HETATM   13  N1  UNL     1      25.858   4.016  50.873  1.00  0.00    -0.401 N 
HETATM   14  H9  UNL     1      26.015   4.381  51.853  1.00  0.00     0.154 HD
BRANCH  13  15
HETATM   15  C6  UNL     1      26.643   3.940  49.698  1.00  0.00     0.124 C 
BRANCH  15  16
HETATM   16  C5  UNL     1      26.547   5.213  48.847  1.00  0.00     0.036 C 
BRANCH  16  17
HETATM   17  C4  UNL     1      27.851   5.491  48.526  1.00  0.00     0.004 C 
BRANCH  17  18
HETATM   18  C3  UNL     1      29.229   5.719  48.126  1.00  0.00     0.026 C 
HETATM   19  C2  UNL     1      30.586   5.455  47.968  1.00  0.00    -0.008 C 
HETATM   20  C1  UNL     1      30.985   6.631  47.087  1.00  0.00     0.038 C 
HETATM   21 CL1  UNL     1      28.936   7.218  47.201  1.00  0.00    -0.085 Cl
ENDBRANCH  17  18
ENDBRANCH  16  17
ENDBRANCH  15  16
ENDBRANCH  13  15
ENDBRANCH   1  13
BRANCH  10  22
HETATM   22  C13 UNL     1      23.319   1.043  52.503  1.00  0.00     0.025 C 
HETATM   23  C14 UNL     1      24.004   0.268  53.242  1.00  0.00    -0.056 C 
HETATM   24  C15 UNL     1      24.945  -0.588  54.109  1.00  0.00     0.046 C 
BRANCH  23  25
HETATM   25  C16 UNL     1      22.774  -0.607  53.471  1.00  0.00     0.256 C 
HETATM   26  F1  UNL     1      22.174  -0.241  54.687  1.00  0.00    -0.251 F 
ENDBRANCH  23  25
ENDBRANCH  10  22
TORSDOF 7
ENDMDL
MODEL 9
REMARK VINA RESULT:      -6.4     10.976     12.812
REMARK  7 active torsions:
REMARK  status: ('A' for Active; 'I' for Inactive)
REMARK    1  A    between atoms: C3_3  and  C4_5 
REMARK    2  A    between atoms: C4_5  and  C5_6 
REMARK    3  A    between atoms: C5_6  and  C6_7 
REMARK    4  A    between atoms: C6_7  and  N1_8 
REMARK    5  A    between atoms: N1_8  and  C7_9 
REMARK    6  A    between atoms: C12_18  and  C13_19 
REMARK    7  A    between atoms: C14_20  and  C16_22 
ROOT
HETATM    1  C7  UNL     1      33.247   4.414  45.624  1.00  0.00     0.220 A 
HETATM    2  C8  UNL     1      33.057   3.222  46.470  1.00  0.00     0.471 A 
HETATM    3  N2  UNL     1      32.933   2.222  47.321  1.00  0.00     0.239 N 
HETATM    4  C9  UNL     1      32.387   0.966  46.972  1.00  0.00     0.539 A 
HETATM    5  N3  UNL     1      32.881   2.214  47.140  1.00  0.00     0.239 N 
HETATM    6  C10 UNL     1      33.062   3.262  46.440  1.00  0.00     0.470 A 
HETATM    7  O1  UNL     1      33.866   3.857  47.693  1.00  0.00     0.000 OA
HETATM    8  C11 UNL     1      34.550   4.875  48.230  1.00  0.00     0.132 C 
HETATM    9  N4  UNL     1      33.613   5.789  48.691  1.00  0.00    -0.271 NA
HETATM   10  C12 UNL     1      32.127   5.441  48.535  1.00  0.00     0.228 C 
HETATM   11  N5  UNL     1      32.155   4.106  47.789  1.00  0.00    -0.335 N 
HETATM   12  H19 UNL     1      31.273   3.834  48.468  1.00  0.00     0.160 HD
ENDROOT
BRANCH   1  13
HETATM   13  N1  UNL     1      32.878   4.303  44.190  1.00  0.00    -0.401 N 
HETATM   14  H9  UNL     1      31.977   3.812  43.934  1.00  0.00     0.154 HD
BRANCH  13  15
HETATM   15  C6  UNL     1      33.898   4.960  43.462  1.00  0.00     0.124 C 
BRANCH  15  16
HETATM   16  C5  UNL     1      33.394   5.519  42.125  1.00  0.00     0.036 C 
BRANCH  16  17
HETATM   17  C4  UNL     1      33.089   4.398  41.397  1.00  0.00     0.004 C 
BRANCH  17  18
HETATM   18  C3  UNL     1      32.839   3.169  40.661  1.00  0.00     0.026 C 
HETATM   19  C2  UNL     1      32.103   2.155  40.057  1.00  0.00    -0.008 C 
HETATM   20  C1  UNL     1      33.220   1.392  39.360  1.00  0.00     0.038 C 
HETATM   21 CL1  UNL     1      34.534   2.853  40.195  1.00  0.00    -0.085 Cl
ENDBRANCH  17  18
ENDBRANCH  16  17
ENDBRANCH  15  16
ENDBRANCH  13  15
ENDBRANCH   1  13
BRANCH  10  22
HETATM   22  C13 UNL     1      31.507   6.380  47.618  1.00  0.00     0.025 C 
HETATM   23  C14 UNL     1      30.589   7.107  47.123  1.00  0.00    -0.056 C 
HETATM   24  C15 UNL     1      29.572   8.027  46.425  1.00  0.00     0.046 C 
BRANCH  23  25
HETATM   25  C16 UNL     1      29.636   6.666  48.231  1.00  0.00     0.256 C 
HETATM   26  F1  UNL     1      28.899   5.557  47.783  1.00  0.00    -0.251 F 
ENDBRANCH  23  25
ENDBRANCH  10  22
TORSDOF 7
ENDMDL
