MODEL 1
REMARK VINA RESULT:      -7.6      0.000      0.000
REMARK  4 active torsions:
REMARK  status: ('A' for Active; 'I' for Inactive)
REMARK    1  A    between atoms: C5_8  and  C6_9 
REMARK    2  A    between atoms: C13_16  and  N2_17 
REMARK    3  A    between atoms: N2_17  and  N3_18 
REMARK    4  A    between atoms: C14_19  and  C15_20 
ROOT
HETATM    1  C6  UNL     1      26.289   0.078  52.314  1.00  0.00     0.032 C 
HETATM    2  C7  UNL     1      26.082   1.111  51.137  1.00  0.00     0.024 C 
HETATM    3  C8  UNL     1      25.091   1.948  52.153  1.00  0.00     0.011 A 
HETATM    4  C9  UNL     1      24.862   1.193  53.529  1.00  0.00     0.020 A 
HETATM    5  C10 UNL     1      24.767   2.112  52.733  1.00  0.00     0.024 A 
HETATM    6  C11 UNL     1      24.072   3.257  53.125  1.00  0.00    -0.014 A 
HETATM    7  C12 UNL     1      24.204   3.995  51.980  1.00  0.00     0.004 A 
HETATM    8  C13 UNL     1      24.955   3.007  51.294  1.00  0.00     0.086 A 
HETATM    9  O1  UNL     1      25.205   0.797  53.164  1.00  0.00     0.000 OA
ENDROOT
BRANCH   1  10
HETATM   10  C5  UNL     1      27.541   0.188  52.913  1.00  0.00    -0.007 A 
HETATM   11  C1  UNL     1      28.559   0.935  53.444  1.00  0.00     0.059 A 
HETATM   12 CL1  UNL     1      28.119   2.618  53.513  1.00  0.00    -0.082 Cl
HETATM   13  C2  UNL     1      29.789   0.587  53.931  1.00  0.00     0.140 A 
HETATM   14  N1  UNL     1      30.106  -0.715  53.906  1.00  0.00    -0.270 NA
HETATM   15  C3  UNL     1      29.201  -1.611  53.407  1.00  0.00     0.140 A 
HETATM   16  C4  UNL     1      27.947  -1.165  52.922  1.00  0.00     0.059 A 
HETATM   17 CL2  UNL     1      27.140  -2.664  52.402  1.00  0.00    -0.082 Cl
ENDBRANCH   1  10
BRANCH   8  18
HETATM   18  N2  UNL     1      25.385   3.288  49.935  1.00  0.00    -0.298 N 
HETATM   19  H9  UNL     1      25.047   2.442  49.397  1.00  0.00     0.183 HD
BRANCH  18  20
HETATM   20  N3  UNL     1      26.034   4.522  49.932  1.00  0.00    -0.189 NA
HETATM   21  C14 UNL     1      25.952   5.344  48.967  1.00  0.00     0.169 C 
BRANCH  21  22
HETATM   22  C15 UNL     1      26.692   6.583  49.124  1.00  0.00     0.067 A 
HETATM   23  C16 UNL     1      27.563   7.430  48.465  1.00  0.00     0.119 A 
HETATM   24  N4  UNL     1      27.143   7.748  49.783  1.00  0.00    -0.361 N 
HETATM   25  H12 UNL     1      27.048   8.273  50.702  1.00  0.00     0.165 HD
ENDBRANCH  21  22
ENDBRANCH  18  20
ENDBRANCH   8  18
TORSDOF 4
ENDMDL
MODEL 2
REMARK VINA RESULT:      -7.5      3.126      6.566
REMARK  4 active torsions:
REMARK  status: ('A' for Active; 'I' for Inactive)
REMARK    1  A    between atoms: C5_8  and  C6_9 
REMARK    2  A    between atoms: C13_16  and  N2_17 
REMARK    3  A    between atoms: N2_17  and  N3_18 
REMARK    4  A    between atoms: C14_19  and  C15_20 
ROOT
HETATM    1  C6  UNL     1      26.485   2.333  50.953  1.00  0.00     0.032 C 
HETATM    2  C7  UNL     1      25.953   0.938  51.473  1.00  0.00     0.024 C 
HETATM    3  C8  UNL     1      26.932   1.146  52.783  1.00  0.00     0.011 A 
HETATM    4  C9  UNL     1      27.835   2.444  52.662  1.00  0.00     0.020 A 
HETATM    5  C10 UNL     1      27.370   1.458  53.207  1.00  0.00     0.024 A 
HETATM    6  C11 UNL     1      27.777   1.168  54.510  1.00  0.00    -0.014 A 
HETATM    7  C12 UNL     1      27.045   0.031  54.720  1.00  0.00     0.004 A 
HETATM    8  C13 UNL     1      26.439   0.047  53.439  1.00  0.00     0.086 A 
HETATM    9  O1  UNL     1      27.524   2.391  52.107  1.00  0.00     0.000 OA
ENDROOT
BRANCH   1  10
HETATM   10  C5  UNL     1      25.543   3.350  51.083  1.00  0.00    -0.007 A 
HETATM   11  C1  UNL     1      24.425   3.887  51.664  1.00  0.00     0.059 A 
HETATM   12 CL1  UNL     1      23.867   2.885  52.974  1.00  0.00    -0.082 Cl
HETATM   13  C2  UNL     1      23.729   5.037  51.414  1.00  0.00     0.140 A 
HETATM   14  N1  UNL     1      24.185   5.821  50.427  1.00  0.00    -0.270 NA
HETATM   15  C3  UNL     1      25.301   5.437  49.735  1.00  0.00     0.140 A 
HETATM   16  C4  UNL     1      25.963   4.227  50.059  1.00  0.00     0.059 A 
HETATM   17 CL2  UNL     1      27.327   4.175  48.917  1.00  0.00    -0.082 Cl
ENDBRANCH   1  10
BRANCH   8  18
HETATM   18  N2  UNL     1      25.507  -1.014  53.103  1.00  0.00    -0.298 N 
HETATM   19  H9  UNL     1      26.077  -1.647  52.477  1.00  0.00     0.183 HD
BRANCH  18  20
HETATM   20  N3  UNL     1      24.296  -0.746  53.742  1.00  0.00    -0.189 NA
HETATM   21  C14 UNL     1      23.177  -0.773  53.142  1.00  0.00     0.169 C 
BRANCH  21  22
HETATM   22  C15 UNL     1      22.014  -0.468  53.955  1.00  0.00     0.067 A 
HETATM   23  C16 UNL     1      21.032   0.485  54.148  1.00  0.00     0.119 A 
HETATM   24  N4  UNL     1      21.045  -0.678  54.961  1.00  0.00    -0.361 N 
HETATM   25  H12 UNL     1      20.759  -1.379  55.708  1.00  0.00     0.165 HD
ENDBRANCH  21  22
ENDBRANCH  18  20
ENDBRANCH   8  18
TORSDOF 4
ENDMDL
MODEL 3
REMARK VINA RESULT:      -7.4      2.399      6.350
REMARK  4 active torsions:
REMARK  status: ('A' for Active; 'I' for Inactive)
REMARK    1  A    between atoms: C5_8  and  C6_9 
REMARK    2  A    between atoms: C13_16  and  N2_17 
REMARK    3  A    between atoms: N2_17  and  N3_18 
REMARK    4  A    between atoms: C14_19  and  C15_20 
ROOT
HETATM    1  C6  UNL     1      23.696   3.512  52.339  1.00  0.00     0.032 C 
HETATM    2  C7  UNL     1      24.691   3.030  53.468  1.00  0.00     0.024 C 
HETATM    3  C8  UNL     1      24.230   1.491  53.103  1.00  0.00     0.011 A 
HETATM    4  C9  UNL     1      23.066   1.447  52.028  1.00  0.00     0.020 A 
HETATM    5  C10 UNL     1      23.914   0.983  52.770  1.00  0.00     0.024 A 
HETATM    6  C11 UNL     1      24.083  -0.402  52.797  1.00  0.00    -0.014 A 
HETATM    7  C12 UNL     1      25.088  -0.482  53.723  1.00  0.00     0.004 A 
HETATM    8  C13 UNL     1      25.169   0.919  53.923  1.00  0.00     0.086 A 
HETATM    9  O1  UNL     1      23.160   2.064  52.165  1.00  0.00     0.000 OA
ENDROOT
BRANCH   1  10
HETATM   10  C5  UNL     1      24.354   3.938  51.187  1.00  0.00    -0.007 A 
HETATM   11  C1  UNL     1      25.395   3.866  50.301  1.00  0.00     0.059 A 
HETATM   12 CL1  UNL     1      26.453   2.540  50.696  1.00  0.00    -0.082 Cl
HETATM   13  C2  UNL     1      25.707   4.610  49.196  1.00  0.00     0.140 A 
HETATM   14  N1  UNL     1      24.869   5.606  48.879  1.00  0.00    -0.270 NA
HETATM   15  C3  UNL     1      23.767   5.823  49.659  1.00  0.00     0.140 A 
HETATM   16  C4  UNL     1      23.519   5.005  50.789  1.00  0.00     0.059 A 
HETATM   17 CL2  UNL     1      22.003   5.658  51.456  1.00  0.00    -0.082 Cl
ENDBRANCH   1  10
BRANCH   8  18
HETATM   18  N2  UNL     1      26.140   1.424  54.878  1.00  0.00    -0.298 N 
HETATM   19  H9  UNL     1      25.578   2.112  55.451  1.00  0.00     0.183 HD
BRANCH  18  20
HETATM   20  N3  UNL     1      27.359   0.792  54.632  1.00  0.00    -0.189 NA
HETATM   21  C14 UNL     1      28.150   1.152  53.704  1.00  0.00     0.169 C 
BRANCH  21  22
HETATM   22  C15 UNL     1      29.377   0.385  53.584  1.00  0.00     0.067 A 
HETATM   23  C16 UNL     1      29.862  -0.908  53.562  1.00  0.00     0.119 A 
HETATM   24  N4  UNL     1      30.765   0.179  53.429  1.00  0.00    -0.361 N 
HETATM   25  H12 UNL     1      31.677   0.712  53.309  1.00  0.00     0.165 HD
ENDBRANCH  21  22
ENDBRANCH  18  20
ENDBRANCH   8  18
TORSDOF 4
ENDMDL
MODEL 4
REMARK VINA RESULT:      -7.3      3.527      5.693
REMARK  4 active torsions:
REMARK  status: ('A' for Active; 'I' for Inactive)
REMARK    1  A    between atoms: C5_8  and  C6_9 
REMARK    2  A    between atoms: C13_16  and  N2_17 
REMARK    3  A    between atoms: N2_17  and  N3_18 
REMARK    4  A    between atoms: C14_19  and  C15_20 
ROOT
HETATM    1  C6  UNL     1      26.837   1.169  53.839  1.00  0.00     0.032 C 
HETATM    2  C7  UNL     1      25.351   0.760  54.188  1.00  0.00     0.024 C 
HETATM    3  C8  UNL     1      24.924   1.376  52.720  1.00  0.00     0.011 A 
HETATM    4  C9  UNL     1      26.143   2.068  51.978  1.00  0.00     0.020 A 
HETATM    5  C10 UNL     1      25.003   1.653  52.099  1.00  0.00     0.024 A 
HETATM    6  C11 UNL     1      24.128   1.800  51.022  1.00  0.00    -0.014 A 
HETATM    7  C12 UNL     1      23.011   1.226  51.567  1.00  0.00     0.004 A 
HETATM    8  C13 UNL     1      23.631   0.928  52.807  1.00  0.00     0.086 A 
HETATM    9  O1  UNL     1      26.357   1.901  52.556  1.00  0.00     0.000 OA
ENDROOT
BRANCH   1  10
HETATM   10  C5  UNL     1      27.635   0.074  53.516  1.00  0.00    -0.007 A 
HETATM   11  C1  UNL     1      27.791  -1.202  53.047  1.00  0.00     0.059 A 
HETATM   12 CL1  UNL     1      26.278  -1.837  52.463  1.00  0.00    -0.082 Cl
HETATM   13  C2  UNL     1      28.892  -2.008  52.940  1.00  0.00     0.140 A 
HETATM   14  N1  UNL     1      30.059  -1.499  53.359  1.00  0.00    -0.270 NA
HETATM   15  C3  UNL     1      30.089  -0.227  53.860  1.00  0.00     0.140 A 
HETATM   16  C4  UNL     1      28.901   0.540  53.936  1.00  0.00     0.059 A 
HETATM   17 CL2  UNL     1      29.442   2.087  54.630  1.00  0.00    -0.082 Cl
ENDBRANCH   1  10
BRANCH   8  18
HETATM   18  N2  UNL     1      22.840   0.272  53.833  1.00  0.00    -0.298 N 
HETATM   19  H9  UNL     1      23.523   0.169  54.634  1.00  0.00     0.183 HD
BRANCH  18  20
HETATM   20  N3  UNL     1      21.555   0.075  53.330  1.00  0.00    -0.189 NA
HETATM   21  C14 UNL     1      20.660  -0.577  53.953  1.00  0.00     0.169 C 
BRANCH  21  22
HETATM   22  C15 UNL     1      19.376  -0.690  53.286  1.00  0.00     0.067 A 
HETATM   23  C16 UNL     1      18.647  -0.193  52.222  1.00  0.00     0.119 A 
HETATM   24  N4  UNL     1      18.070  -1.180  53.064  1.00  0.00    -0.361 N 
HETATM   25  H12 UNL     1      17.362  -1.868  53.457  1.00  0.00     0.165 HD
ENDBRANCH  21  22
ENDBRANCH  18  20
ENDBRANCH   8  18
TORSDOF 4
ENDMDL
MODEL 5
REMARK VINA RESULT:      -7.3      3.839      4.754
REMARK  4 active torsions:
REMARK  status: ('A' for Active; 'I' for Inactive)
REMARK    1  A    between atoms: C5_8  and  C6_9 
REMARK    2  A    between atoms: C13_16  and  N2_17 
REMARK    3  A    between atoms: N2_17  and  N3_18 
REMARK    4  A    between atoms: C14_19  and  C15_20 
ROOT
HETATM    1  C6  UNL     1      21.601   1.025  51.702  1.00  0.00     0.032 C 
HETATM    2  C7  UNL     1      22.866   1.498  50.881  1.00  0.00     0.024 C 
HETATM    3  C8  UNL     1      22.615   2.998  51.515  1.00  0.00     0.011 A 
HETATM    4  C9  UNL     1      21.289   3.074  52.380  1.00  0.00     0.020 A 
HETATM    5  C10 UNL     1      22.332   3.486  51.904  1.00  0.00     0.024 A 
HETATM    6  C11 UNL     1      22.740   4.781  52.223  1.00  0.00    -0.014 A 
HETATM    7  C12 UNL     1      23.905   4.828  51.505  1.00  0.00     0.004 A 
HETATM    8  C13 UNL     1      23.781   3.508  51.003  1.00  0.00     0.086 A 
HETATM    9  O1  UNL     1      21.299   2.491  52.121  1.00  0.00     0.000 OA
ENDROOT
BRANCH   1  10
HETATM   10  C5  UNL     1      21.938   0.253  52.811  1.00  0.00    -0.007 A 
HETATM   11  C1  UNL     1      22.850  -0.215  53.718  1.00  0.00     0.059 A 
HETATM   12 CL1  UNL     1      24.398   0.549  53.489  1.00  0.00    -0.082 Cl
HETATM   13  C2  UNL     1      22.742  -1.118  54.741  1.00  0.00     0.140 A 
HETATM   14  N1  UNL     1      21.538  -1.675  54.933  1.00  0.00    -0.270 NA
HETATM   15  C3  UNL     1      20.502  -1.320  54.114  1.00  0.00     0.140 A 
HETATM   16  C4  UNL     1      20.701  -0.377  53.076  1.00  0.00     0.059 A 
HETATM   17 CL2  UNL     1      19.097  -0.243  52.316  1.00  0.00    -0.082 Cl
ENDBRANCH   1  10
BRANCH   8  18
HETATM   18  N2  UNL     1      24.818   3.006  50.118  1.00  0.00    -0.298 N 
HETATM   19  H9  UNL     1      24.591   1.976  50.042  1.00  0.00     0.183 HD
BRANCH  18  20
HETATM   20  N3  UNL     1      25.636   4.077  49.759  1.00  0.00    -0.189 NA
HETATM   21  C14 UNL     1      26.763   3.927  49.193  1.00  0.00     0.169 C 
BRANCH  21  22
HETATM   22  C15 UNL     1      27.489   5.147  48.889  1.00  0.00     0.067 A 
HETATM   23  C16 UNL     1      27.364   6.363  48.245  1.00  0.00     0.119 A 
HETATM   24  N4  UNL     1      28.583   6.038  48.896  1.00  0.00    -0.361 N 
HETATM   25  H12 UNL     1      29.580   6.130  49.254  1.00  0.00     0.165 HD
ENDBRANCH  21  22
ENDBRANCH  18  20
ENDBRANCH   8  18
TORSDOF 4
ENDMDL
MODEL 6
REMARK VINA RESULT:      -7.2      2.037      2.660
REMARK  4 active torsions:
REMARK  status: ('A' for Active; 'I' for Inactive)
REMARK    1  A    between atoms: C5_8  and  C6_9 
REMARK    2  A    between atoms: C13_16  and  N2_17 
REMARK    3  A    between atoms: N2_17  and  N3_18 
REMARK    4  A    between atoms: C14_19  and  C15_20 
ROOT
HETATM    1  C6  UNL     1      23.774   1.398  51.963  1.00  0.00     0.032 C 
HETATM    2  C7  UNL     1      24.028   2.232  50.645  1.00  0.00     0.024 C 
HETATM    3  C8  UNL     1      23.661   3.577  51.523  1.00  0.00     0.011 A 
HETATM    4  C9  UNL     1      23.183   3.226  52.993  1.00  0.00     0.020 A 
HETATM    5  C10 UNL     1      23.503   3.956  52.071  1.00  0.00     0.024 A 
HETATM    6  C11 UNL     1      23.502   5.334  52.287  1.00  0.00    -0.014 A 
HETATM    7  C12 UNL     1      23.903   5.751  51.047  1.00  0.00     0.004 A 
HETATM    8  C13 UNL     1      24.011   4.440  50.517  1.00  0.00     0.086 A 
HETATM    9  O1  UNL     1      23.256   2.668  52.692  1.00  0.00     0.000 OA
ENDROOT
BRANCH   1  10
HETATM   10  C5  UNL     1      24.953   0.938  52.544  1.00  0.00    -0.007 A 
HETATM   11  C1  UNL     1      26.316   0.951  52.670  1.00  0.00     0.059 A 
HETATM   12 CL1  UNL     1      27.016   2.206  51.687  1.00  0.00    -0.082 Cl
HETATM   13  C2  UNL     1      27.171   0.196  53.425  1.00  0.00     0.140 A 
HETATM   14  N1  UNL     1      26.622  -0.745  54.206  1.00  0.00    -0.270 NA
HETATM   15  C3  UNL     1      25.262  -0.898  54.208  1.00  0.00     0.140 A 
HETATM   16  C4  UNL     1      24.449  -0.073  53.393  1.00  0.00     0.059 A 
HETATM   17 CL2  UNL     1      22.796  -0.635  53.742  1.00  0.00    -0.082 Cl
ENDBRANCH   1  10
BRANCH   8  18
HETATM   18  N2  UNL     1      24.427   4.287  49.134  1.00  0.00    -0.298 N 
HETATM   19  H9  UNL     1      23.686   3.650  48.729  1.00  0.00     0.183 HD
BRANCH  18  20
HETATM   20  N3  UNL     1      25.589   5.034  48.945  1.00  0.00    -0.189 NA
HETATM   21  C14 UNL     1      26.751   4.520  48.953  1.00  0.00     0.169 C 
BRANCH  21  22
HETATM   22  C15 UNL     1      27.854   5.440  48.743  1.00  0.00     0.067 A 
HETATM   23  C16 UNL     1      29.111   5.531  48.177  1.00  0.00     0.119 A 
HETATM   24  N4  UNL     1      28.553   6.664  48.826  1.00  0.00    -0.361 N 
HETATM   25  H12 UNL     1      28.459   7.652  49.206  1.00  0.00     0.165 HD
ENDBRANCH  21  22
ENDBRANCH  18  20
ENDBRANCH   8  18
TORSDOF 4
ENDMDL
MODEL 7
REMARK VINA RESULT:      -7.1      3.600      4.618
REMARK  4 active torsions:
REMARK  status: ('A' for Active; 'I' for Inactive)
REMARK    1  A    between atoms: C5_8  and  C6_9 
REMARK    2  A    between atoms: C13_16  and  N2_17 
REMARK    3  A    between atoms: N2_17  and  N3_18 
REMARK    4  A    between atoms: C14_19  and  C15_20 
ROOT
HETATM    1  C6  UNL     1      23.606   1.355  52.201  1.00  0.00     0.032 C 
HETATM    2  C7  UNL     1      23.601   2.926  52.370  1.00  0.00     0.024 C 
HETATM    3  C8  UNL     1      22.738   2.993  50.968  1.00  0.00     0.011 A 
HETATM    4  C9  UNL     1      22.573   1.568  50.292  1.00  0.00     0.020 A 
HETATM    5  C10 UNL     1      22.392   2.766  50.422  1.00  0.00     0.024 A 
HETATM    6  C11 UNL     1      21.562   3.413  49.506  1.00  0.00    -0.014 A 
HETATM    7  C12 UNL     1      21.638   4.687  50.002  1.00  0.00     0.004 A 
HETATM    8  C13 UNL     1      22.504   4.340  51.070  1.00  0.00     0.086 A 
HETATM    9  O1  UNL     1      22.958   1.483  50.794  1.00  0.00     0.000 OA
ENDROOT
BRANCH   1  10
HETATM   10  C5  UNL     1      22.742   0.716  53.087  1.00  0.00    -0.007 A 
HETATM   11  C1  UNL     1      21.523   0.586  53.695  1.00  0.00     0.059 A 
HETATM   12 CL1  UNL     1      20.376   1.712  53.025  1.00  0.00    -0.082 Cl
HETATM   13  C2  UNL     1      21.074  -0.260  54.672  1.00  0.00     0.140 A 
HETATM   14  N1  UNL     1      21.953  -1.147  55.157  1.00  0.00    -0.270 NA
HETATM   15  C3  UNL     1      23.227  -1.161  54.661  1.00  0.00     0.140 A 
HETATM   16  C4  UNL     1      23.611  -0.248  53.648  1.00  0.00     0.059 A 
HETATM   17 CL2  UNL     1      25.315  -0.655  53.337  1.00  0.00    -0.082 Cl
ENDBRANCH   1  10
BRANCH   8  18
HETATM   18  N2  UNL     1      22.938   5.390  51.975  1.00  0.00    -0.298 N 
HETATM   19  H9  UNL     1      22.199   5.378  52.730  1.00  0.00     0.183 HD
BRANCH  18  20
HETATM   20  N3  UNL     1      24.116   5.939  51.468  1.00  0.00    -0.189 NA
HETATM   21  C14 UNL     1      24.183   7.116  50.994  1.00  0.00     0.169 C 
BRANCH  21  22
HETATM   22  C15 UNL     1      25.486   7.530  50.506  1.00  0.00     0.067 A 
HETATM   23  C16 UNL     1      26.361   7.371  49.448  1.00  0.00     0.119 A 
HETATM   24  N4  UNL     1      26.719   8.217  50.530  1.00  0.00    -0.361 N 
HETATM   25  H12 UNL     1      27.287   8.888  51.128  1.00  0.00     0.165 HD
ENDBRANCH  21  22
ENDBRANCH  18  20
ENDBRANCH   8  18
TORSDOF 4
ENDMDL
MODEL 8
REMARK VINA RESULT:      -7.1      3.938      7.226
REMARK  4 active torsions:
REMARK  status: ('A' for Active; 'I' for Inactive)
REMARK    1  A    between atoms: C5_8  and  C6_9 
REMARK    2  A    between atoms: C13_16  and  N2_17 
REMARK    3  A    between atoms: N2_17  and  N3_18 
REMARK    4  A    between atoms: C14_19  and  C15_20 
ROOT
HETATM    1  C6  UNL     1      25.120   3.554  50.038  1.00  0.00     0.032 C 
HETATM    2  C7  UNL     1      23.818   2.659  49.980  1.00  0.00     0.024 C 
HETATM    3  C8  UNL     1      24.321   1.981  51.395  1.00  0.00     0.011 A 
HETATM    4  C9  UNL     1      25.752   2.500  51.839  1.00  0.00     0.020 A 
HETATM    5  C10 UNL     1      24.707   1.882  51.952  1.00  0.00     0.024 A 
HETATM    6  C11 UNL     1      24.497   1.146  53.119  1.00  0.00    -0.014 A 
HETATM    7  C12 UNL     1      23.259   0.635  52.835  1.00  0.00     0.004 A 
HETATM    8  C13 UNL     1      23.163   1.268  51.570  1.00  0.00     0.086 A 
HETATM    9  O1  UNL     1      25.641   2.755  51.264  1.00  0.00     0.000 OA
ENDROOT
BRANCH   1  10
HETATM   10  C5  UNL     1      24.849   4.875  50.386  1.00  0.00    -0.007 A 
HETATM   11  C1  UNL     1      24.093   5.819  51.027  1.00  0.00     0.059 A 
HETATM   12 CL1  UNL     1      22.847   5.067  51.983  1.00  0.00    -0.082 Cl
HETATM   13  C2  UNL     1      24.171   7.185  51.059  1.00  0.00     0.140 A 
HETATM   14  N1  UNL     1      25.154   7.753  50.348  1.00  0.00    -0.270 NA
HETATM   15  C3  UNL     1      26.012   6.956  49.642  1.00  0.00     0.140 A 
HETATM   16  C4  UNL     1      25.860   5.548  49.662  1.00  0.00     0.059 A 
HETATM   17 CL2  UNL     1      27.186   4.966  48.627  1.00  0.00    -0.082 Cl
ENDBRANCH   1  10
BRANCH   8  18
HETATM   18  N2  UNL     1      21.967   1.046  50.777  1.00  0.00    -0.298 N 
HETATM   19  H9  UNL     1      22.189   1.532  49.865  1.00  0.00     0.183 HD
BRANCH  18  20
HETATM   20  N3  UNL     1      21.070   0.302  51.544  1.00  0.00    -0.189 NA
HETATM   21  C14 UNL     1      19.838   0.595  51.647  1.00  0.00     0.169 C 
BRANCH  21  22
HETATM   22  C15 UNL     1      19.045  -0.283  52.487  1.00  0.00     0.067 A 
HETATM   23  C16 UNL     1      17.840  -0.958  52.535  1.00  0.00     0.119 A 
HETATM   24  N4  UNL     1      18.742  -1.060  53.626  1.00  0.00    -0.361 N 
HETATM   25  H12 UNL     1      19.145  -1.351  54.566  1.00  0.00     0.165 HD
ENDBRANCH  21  22
ENDBRANCH  18  20
ENDBRANCH   8  18
TORSDOF 4
ENDMDL
MODEL 9
REMARK VINA RESULT:      -7.1      3.066      6.698
REMARK  4 active torsions:
REMARK  status: ('A' for Active; 'I' for Inactive)
REMARK    1  A    between atoms: C5_8  and  C6_9 
REMARK    2  A    between atoms: C13_16  and  N2_17 
REMARK    3  A    between atoms: N2_17  and  N3_18 
REMARK    4  A    between atoms: C14_19  and  C15_20 
ROOT
HETATM    1  C6  UNL     1      24.327   5.370  49.827  1.00  0.00     0.032 C 
HETATM    2  C7  UNL     1      24.105   4.508  51.132  1.00  0.00     0.024 C 
HETATM    3  C8  UNL     1      23.251   3.456  50.194  1.00  0.00     0.011 A 
HETATM    4  C9  UNL     1      23.074   3.981  48.708  1.00  0.00     0.020 A 
HETATM    5  C10 UNL     1      22.982   3.184  49.626  1.00  0.00     0.024 A 
HETATM    6  C11 UNL     1      22.397   1.943  49.369  1.00  0.00    -0.014 A 
HETATM    7  C12 UNL     1      22.493   1.393  50.619  1.00  0.00     0.004 A 
HETATM    8  C13 UNL     1      23.123   2.527  51.193  1.00  0.00     0.086 A 
HETATM    9  O1  UNL     1      23.361   4.452  49.030  1.00  0.00     0.000 OA
ENDROOT
BRANCH   1  10
HETATM   10  C5  UNL     1      25.626   5.271  49.332  1.00  0.00    -0.007 A 
HETATM   11  C1  UNL     1      26.777   4.566  49.111  1.00  0.00     0.059 A 
HETATM   12 CL1  UNL     1      26.591   2.906  49.605  1.00  0.00    -0.082 Cl
HETATM   13  C2  UNL     1      27.980   4.926  48.566  1.00  0.00     0.140 A 
HETATM   14  N1  UNL     1      28.103   6.196  48.156  1.00  0.00    -0.270 NA
HETATM   15  C3  UNL     1      27.043   7.048  48.300  1.00  0.00     0.140 A 
HETATM   16  C4  UNL     1      25.832   6.593  48.876  1.00  0.00     0.059 A 
HETATM   17 CL2  UNL     1      24.781   8.029  48.837  1.00  0.00    -0.082 Cl
ENDBRANCH   1  10
BRANCH   8  18
HETATM   18  N2  UNL     1      23.469   2.483  52.603  1.00  0.00    -0.298 N 
HETATM   19  H9  UNL     1      23.003   3.349  52.992  1.00  0.00     0.183 HD
BRANCH  18  20
HETATM   20  N3  UNL     1      24.240   1.343  52.825  1.00  0.00    -0.189 NA
HETATM   21  C14 UNL     1      25.511   1.358  52.834  1.00  0.00     0.169 C 
BRANCH  21  22
HETATM   22  C15 UNL     1      26.159   0.083  53.079  1.00  0.00     0.067 A 
HETATM   23  C16 UNL     1      26.708  -1.008  52.432  1.00  0.00     0.119 A 
HETATM   24  N4  UNL     1      26.700  -0.968  53.851  1.00  0.00    -0.361 N 
HETATM   25  H12 UNL     1      26.859  -1.263  54.860  1.00  0.00     0.165 HD
ENDBRANCH  21  22
ENDBRANCH  18  20
ENDBRANCH   8  18
TORSDOF 4
ENDMDL
