MODEL 1
REMARK VINA RESULT:      -7.3      0.000      0.000
REMARK  5 active torsions:
REMARK  status: ('A' for Active; 'I' for Inactive)
REMARK    1  A    between atoms: C2_2  and  C3_3 
REMARK    2  A    between atoms: C3_3  and  C4_4 
REMARK    3  A    between atoms: N2_12  and  C9_13 
REMARK    4  A    between atoms: C9_13  and  C10_14 
REMARK    5  A    between atoms: C16_20  and  O1_21 
ROOT
HETATM    1  C4  UNL     1      22.549   1.582  52.271  1.00  0.00     0.004 C 
HETATM    2  C5  UNL     1      21.979   1.153  51.114  1.00  0.00    -0.001 C 
HETATM    3  C6  UNL     1      22.103   1.333  49.639  1.00  0.00     0.044 C 
HETATM    4  C7  UNL     1      22.200   2.802  49.278  1.00  0.00     0.103 C 
HETATM    5  N1  UNL     1      23.521   3.171  48.874  1.00  0.00    -0.266 NA
HETATM    6  S1  UNL     1      24.690   3.151  50.144  1.00  0.00    -0.059 SA
HETATM    7  S2  UNL     1      26.070   4.087  49.706  1.00  0.00    -0.007 SA
HETATM    8  C8  UNL     1      24.054   3.679  51.730  1.00  0.00     0.214 C 
HETATM    9  N2  UNL     1      23.655   2.448  52.435  1.00  0.00    -0.370 N 
HETATM   10  H13 UNL     1      23.574   3.995  48.255  1.00  0.00     0.135 HD
ENDROOT
BRANCH   9  11
HETATM   11  C9  UNL     1      24.522   2.041  53.479  1.00  0.00     0.165 C 
BRANCH  11  12
HETATM   12  C10 UNL     1      25.486   0.986  53.253  1.00  0.00    -0.007 A 
HETATM   13  C11 UNL     1      25.417  -0.302  52.788  1.00  0.00     0.011 A 
HETATM   14  C12 UNL     1      26.480  -1.160  52.618  1.00  0.00     0.001 A 
HETATM   15  C13 UNL     1      27.736  -0.700  52.940  1.00  0.00     0.009 A 
HETATM   16  C14 UNL     1      27.882   0.587  53.413  1.00  0.00    -0.028 A 
HETATM   17  C15 UNL     1      29.289   0.965  53.711  1.00  0.00     0.051 C 
HETATM   18  C16 UNL     1      26.783   1.403  53.564  1.00  0.00     0.079 A 
BRANCH  18  19
HETATM   19  O1  UNL     1      27.144   2.666  54.058  1.00  0.00    -0.360 OA
HETATM   20  H24 UNL     1      26.354   3.191  54.445  1.00  0.00     0.217 HD
ENDBRANCH  18  19
ENDBRANCH  11  12
ENDBRANCH   9  11
BRANCH   1  21
HETATM   21  C3  UNL     1      21.959   1.024  53.444  1.00  0.00     0.056 C 
BRANCH  21  22
HETATM   22  C2  UNL     1      21.788  -0.465  53.337  1.00  0.00     0.002 C 
HETATM   23  C1  UNL     1      22.035  -1.277  54.544  1.00  0.00     0.005 C 
ENDBRANCH  21  22
ENDBRANCH   1  21
TORSDOF 5
ENDMDL
MODEL 2
REMARK VINA RESULT:      -6.8      1.805      2.267
REMARK  5 active torsions:
REMARK  status: ('A' for Active; 'I' for Inactive)
REMARK    1  A    between atoms: C2_2  and  C3_3 
REMARK    2  A    between atoms: C3_3  and  C4_4 
REMARK    3  A    between atoms: N2_12  and  C9_13 
REMARK    4  A    between atoms: C9_13  and  C10_14 
REMARK    5  A    between atoms: C16_20  and  O1_21 
ROOT
HETATM    1  C4  UNL     1      23.131   1.086  52.768  1.00  0.00     0.004 C 
HETATM    2  C5  UNL     1      21.807   1.298  52.550  1.00  0.00    -0.001 C 
HETATM    3  C6  UNL     1      20.896   2.261  51.866  1.00  0.00     0.044 C 
HETATM    4  C7  UNL     1      21.272   3.691  52.199  1.00  0.00     0.103 C 
HETATM    5  N1  UNL     1      21.895   4.355  51.095  1.00  0.00    -0.266 NA
HETATM    6  S1  UNL     1      23.471   3.769  50.704  1.00  0.00    -0.059 SA
HETATM    7  S2  UNL     1      24.326   4.929  49.758  1.00  0.00    -0.007 SA
HETATM    8  C8  UNL     1      24.442   3.283  52.126  1.00  0.00     0.214 C 
HETATM    9  N2  UNL     1      24.230   1.832  52.283  1.00  0.00    -0.370 N 
HETATM   10  H13 UNL     1      21.807   5.383  51.098  1.00  0.00     0.135 HD
ENDROOT
BRANCH   9  11
HETATM   11  C9  UNL     1      25.318   1.016  51.886  1.00  0.00     0.165 C 
BRANCH  11  12
HETATM   12  C10 UNL     1      26.609   1.168  52.522  1.00  0.00    -0.007 A 
HETATM   13  C11 UNL     1      27.318   2.228  53.027  1.00  0.00     0.011 A 
HETATM   14  C12 UNL     1      28.554   2.162  53.630  1.00  0.00     0.001 A 
HETATM   15  C13 UNL     1      29.148   0.927  53.746  1.00  0.00     0.009 A 
HETATM   16  C14 UNL     1      28.492  -0.185  53.262  1.00  0.00    -0.028 A 
HETATM   17  C15 UNL     1      29.234  -1.459  53.461  1.00  0.00     0.051 C 
HETATM   18  C16 UNL     1      27.257  -0.061  52.666  1.00  0.00     0.079 A 
BRANCH  18  19
HETATM   19  O1  UNL     1      26.763  -1.304  52.241  1.00  0.00    -0.360 OA
HETATM   20  H24 UNL     1      26.703  -1.391  51.222  1.00  0.00     0.217 HD
ENDBRANCH  18  19
ENDBRANCH  11  12
ENDBRANCH   9  11
BRANCH   1  21
HETATM   21  C3  UNL     1      23.408  -0.077  53.547  1.00  0.00     0.056 C 
BRANCH  21  22
HETATM   22  C2  UNL     1      22.335  -1.119  53.407  1.00  0.00     0.002 C 
HETATM   23  C1  UNL     1      21.700  -1.627  54.639  1.00  0.00     0.005 C 
ENDBRANCH  21  22
ENDBRANCH   1  21
TORSDOF 5
ENDMDL
MODEL 3
REMARK VINA RESULT:      -6.7      3.311      5.415
REMARK  5 active torsions:
REMARK  status: ('A' for Active; 'I' for Inactive)
REMARK    1  A    between atoms: C2_2  and  C3_3 
REMARK    2  A    between atoms: C3_3  and  C4_4 
REMARK    3  A    between atoms: N2_12  and  C9_13 
REMARK    4  A    between atoms: C9_13  and  C10_14 
REMARK    5  A    between atoms: C16_20  and  O1_21 
ROOT
HETATM    1  C4  UNL     1      25.331   5.585  49.588  1.00  0.00     0.004 C 
HETATM    2  C5  UNL     1      25.272   6.790  50.212  1.00  0.00    -0.001 C 
HETATM    3  C6  UNL     1      24.352   7.596  51.066  1.00  0.00     0.044 C 
HETATM    4  C7  UNL     1      22.948   7.600  50.495  1.00  0.00     0.103 C 
HETATM    5  N1  UNL     1      22.052   6.791  51.262  1.00  0.00    -0.266 NA
HETATM    6  S1  UNL     1      22.355   5.095  51.161  1.00  0.00    -0.059 SA
HETATM    7  S2  UNL     1      20.964   4.204  51.656  1.00  0.00    -0.007 SA
HETATM    8  C8  UNL     1      22.907   4.547  49.549  1.00  0.00     0.214 C 
HETATM    9  N2  UNL     1      24.380   4.539  49.608  1.00  0.00    -0.370 N 
HETATM   10  H13 UNL     1      21.057   7.054  51.192  1.00  0.00     0.135 HD
ENDROOT
BRANCH   9  11
HETATM   11  C9  UNL     1      24.974   3.256  49.696  1.00  0.00     0.165 C 
BRANCH  11  12
HETATM   12  C10 UNL     1      24.867   2.488  50.918  1.00  0.00    -0.007 A 
HETATM   13  C11 UNL     1      23.876   1.747  51.509  1.00  0.00     0.011 A 
HETATM   14  C12 UNL     1      23.982   1.052  52.694  1.00  0.00     0.001 A 
HETATM   15  C13 UNL     1      25.185   1.094  53.359  1.00  0.00     0.009 A 
HETATM   16  C14 UNL     1      26.227   1.818  52.822  1.00  0.00    -0.028 A 
HETATM   17  C15 UNL     1      27.475   1.772  53.631  1.00  0.00     0.051 C 
HETATM   18  C16 UNL     1      26.067   2.495  51.634  1.00  0.00     0.079 A 
BRANCH  18  19
HETATM   19  O1  UNL     1      27.241   3.169  51.263  1.00  0.00    -0.360 OA
HETATM   20  H24 UNL     1      27.409   3.166  50.252  1.00  0.00     0.217 HD
ENDBRANCH  18  19
ENDBRANCH  11  12
ENDBRANCH   9  11
BRANCH   1  21
HETATM   21  C3  UNL     1      26.546   5.366  48.874  1.00  0.00     0.056 C 
BRANCH  21  22
HETATM   22  C2  UNL     1      27.105   6.639  48.304  1.00  0.00     0.002 C 
HETATM   23  C1  UNL     1      28.529   6.658  47.919  1.00  0.00     0.005 C 
ENDBRANCH  21  22
ENDBRANCH   1  21
TORSDOF 5
ENDMDL
MODEL 4
REMARK VINA RESULT:      -6.6      2.254      3.856
REMARK  5 active torsions:
REMARK  status: ('A' for Active; 'I' for Inactive)
REMARK    1  A    between atoms: C2_2  and  C3_3 
REMARK    2  A    between atoms: C3_3  and  C4_4 
REMARK    3  A    between atoms: N2_12  and  C9_13 
REMARK    4  A    between atoms: C9_13  and  C10_14 
REMARK    5  A    between atoms: C16_20  and  O1_21 
ROOT
HETATM    1  C4  UNL     1      24.542   3.390  50.569  1.00  0.00     0.004 C 
HETATM    2  C5  UNL     1      23.744   4.273  49.914  1.00  0.00    -0.001 C 
HETATM    3  C6  UNL     1      22.300   4.601  49.736  1.00  0.00     0.044 C 
HETATM    4  C7  UNL     1      21.493   3.352  49.445  1.00  0.00     0.103 C 
HETATM    5  N1  UNL     1      20.692   2.955  50.562  1.00  0.00    -0.266 NA
HETATM    6  S1  UNL     1      21.591   2.361  51.910  1.00  0.00    -0.059 SA
HETATM    7  S2  UNL     1      20.571   1.442  52.954  1.00  0.00    -0.007 SA
HETATM    8  C8  UNL     1      23.041   1.414  51.461  1.00  0.00     0.214 C 
HETATM    9  N2  UNL     1      24.164   2.368  51.470  1.00  0.00    -0.370 N 
HETATM   10  H13 UNL     1      19.856   2.400  50.324  1.00  0.00     0.135 HD
ENDROOT
BRANCH   9  11
HETATM   11  C9  UNL     1      25.045   2.254  52.574  1.00  0.00     0.165 C 
BRANCH  11  12
HETATM   12  C10 UNL     1      25.922   1.108  52.688  1.00  0.00    -0.007 A 
HETATM   13  C11 UNL     1      25.857  -0.202  52.286  1.00  0.00     0.011 A 
HETATM   14  C12 UNL     1      26.832  -1.156  52.473  1.00  0.00     0.001 A 
HETATM   15  C13 UNL     1      27.985  -0.778  53.120  1.00  0.00     0.009 A 
HETATM   16  C14 UNL     1      28.121   0.524  53.551  1.00  0.00    -0.028 A 
HETATM   17  C15 UNL     1      29.418   0.806  54.223  1.00  0.00     0.051 C 
HETATM   18  C16 UNL     1      27.113   1.438  53.338  1.00  0.00     0.079 A 
BRANCH  18  19
HETATM   19  O1  UNL     1      27.446   2.701  53.853  1.00  0.00    -0.360 OA
HETATM   20  H24 UNL     1      26.718   3.406  53.701  1.00  0.00     0.217 HD
ENDBRANCH  18  19
ENDBRANCH  11  12
ENDBRANCH   9  11
BRANCH   1  21
HETATM   21  C3  UNL     1      25.935   3.586  50.331  1.00  0.00     0.056 C 
BRANCH  21  22
HETATM   22  C2  UNL     1      26.186   4.465  49.138  1.00  0.00     0.002 C 
HETATM   23  C1  UNL     1      27.587   4.732  48.759  1.00  0.00     0.005 C 
ENDBRANCH  21  22
ENDBRANCH   1  21
TORSDOF 5
ENDMDL
MODEL 5
REMARK VINA RESULT:      -6.5      1.887      2.016
REMARK  5 active torsions:
REMARK  status: ('A' for Active; 'I' for Inactive)
REMARK    1  A    between atoms: C2_2  and  C3_3 
REMARK    2  A    between atoms: C3_3  and  C4_4 
REMARK    3  A    between atoms: N2_12  and  C9_13 
REMARK    4  A    between atoms: C9_13  and  C10_14 
REMARK    5  A    between atoms: C16_20  and  O1_21 
ROOT
HETATM    1  C4  UNL     1      21.884   1.288  51.808  1.00  0.00     0.004 C 
HETATM    2  C5  UNL     1      20.673   1.613  51.283  1.00  0.00    -0.001 C 
HETATM    3  C6  UNL     1      19.942   2.788  50.728  1.00  0.00     0.044 C 
HETATM    4  C7  UNL     1      20.098   3.997  51.628  1.00  0.00     0.103 C 
HETATM    5  N1  UNL     1      20.973   4.979  51.064  1.00  0.00    -0.266 NA
HETATM    6  S1  UNL     1      22.631   4.505  50.997  1.00  0.00    -0.059 SA
HETATM    7  S2  UNL     1      23.645   5.888  50.814  1.00  0.00    -0.007 SA
HETATM    8  C8  UNL     1      23.166   3.518  52.390  1.00  0.00     0.214 C 
HETATM    9  N2  UNL     1      23.021   2.113  51.967  1.00  0.00    -0.370 N 
HETATM   10  H13 UNL     1      20.815   5.944  51.393  1.00  0.00     0.135 HD
ENDROOT
BRANCH   9  11
HETATM   11  C9  UNL     1      24.233   1.444  51.667  1.00  0.00     0.165 C 
BRANCH  11  12
HETATM   12  C10 UNL     1      25.140   1.071  52.731  1.00  0.00    -0.007 A 
HETATM   13  C11 UNL     1      25.116   0.137  53.736  1.00  0.00     0.011 A 
HETATM   14  C12 UNL     1      26.115  -0.086  54.658  1.00  0.00     0.001 A 
HETATM   15  C13 UNL     1      27.248   0.690  54.578  1.00  0.00     0.009 A 
HETATM   16  C14 UNL     1      27.341   1.648  53.592  1.00  0.00    -0.028 A 
HETATM   17  C15 UNL     1      28.620   2.409  53.607  1.00  0.00     0.051 C 
HETATM   18  C16 UNL     1      26.312   1.829  52.696  1.00  0.00     0.079 A 
BRANCH  18  19
HETATM   19  O1  UNL     1      26.602   2.850  51.777  1.00  0.00    -0.360 OA
HETATM   20  H24 UNL     1      27.239   3.561  52.148  1.00  0.00     0.217 HD
ENDBRANCH  18  19
ENDBRANCH  11  12
ENDBRANCH   9  11
BRANCH   1  21
HETATM   21  C3  UNL     1      21.997  -0.083  52.186  1.00  0.00     0.056 C 
BRANCH  21  22
HETATM   22  C2  UNL     1      21.281  -0.376  53.474  1.00  0.00     0.002 C 
HETATM   23  C1  UNL     1      21.761  -1.508  54.290  1.00  0.00     0.005 C 
ENDBRANCH  21  22
ENDBRANCH   1  21
TORSDOF 5
ENDMDL
MODEL 6
REMARK VINA RESULT:      -6.4      2.887      6.239
REMARK  5 active torsions:
REMARK  status: ('A' for Active; 'I' for Inactive)
REMARK    1  A    between atoms: C2_2  and  C3_3 
REMARK    2  A    between atoms: C3_3  and  C4_4 
REMARK    3  A    between atoms: N2_12  and  C9_13 
REMARK    4  A    between atoms: C9_13  and  C10_14 
REMARK    5  A    between atoms: C16_20  and  O1_21 
ROOT
HETATM    1  C4  UNL     1      25.681   2.428  51.553  1.00  0.00     0.004 C 
HETATM    2  C5  UNL     1      26.567   1.403  51.450  1.00  0.00    -0.001 C 
HETATM    3  C6  UNL     1      26.733  -0.018  51.873  1.00  0.00     0.044 C 
HETATM    4  C7  UNL     1      26.409  -0.185  53.345  1.00  0.00     0.103 C 
HETATM    5  N1  UNL     1      25.161  -0.852  53.549  1.00  0.00    -0.266 NA
HETATM    6  S1  UNL     1      23.774   0.070  53.094  1.00  0.00    -0.059 SA
HETATM    7  S2  UNL     1      22.357  -0.566  53.842  1.00  0.00    -0.007 SA
HETATM    8  C8  UNL     1      23.922   1.822  53.423  1.00  0.00     0.214 C 
HETATM    9  N2  UNL     1      24.409   2.428  52.170  1.00  0.00    -0.370 N 
HETATM   10  H13 UNL     1      25.071  -1.345  54.451  1.00  0.00     0.135 HD
ENDROOT
BRANCH   9  11
HETATM   11  C9  UNL     1      23.441   3.156  51.435  1.00  0.00     0.165 C 
BRANCH  11  12
HETATM   12  C10 UNL     1      22.748   2.531  50.329  1.00  0.00    -0.007 A 
HETATM   13  C11 UNL     1      22.096   1.338  50.148  1.00  0.00     0.011 A 
HETATM   14  C12 UNL     1      21.462   0.927  48.996  1.00  0.00     0.001 A 
HETATM   15  C13 UNL     1      21.475   1.780  47.917  1.00  0.00     0.009 A 
HETATM   16  C14 UNL     1      22.111   2.998  48.027  1.00  0.00    -0.028 A 
HETATM   17  C15 UNL     1      22.040   3.830  46.796  1.00  0.00     0.051 C 
HETATM   18  C16 UNL     1      22.729   3.358  49.203  1.00  0.00     0.079 A 
BRANCH  18  19
HETATM   19  O1  UNL     1      23.316   4.629  49.109  1.00  0.00    -0.360 OA
HETATM   20  H24 UNL     1      24.216   4.699  49.594  1.00  0.00     0.217 HD
ENDBRANCH  18  19
ENDBRANCH  11  12
ENDBRANCH   9  11
BRANCH   1  21
HETATM   21  C3  UNL     1      26.105   3.622  50.899  1.00  0.00     0.056 C 
BRANCH  21  22
HETATM   22  C2  UNL     1      26.631   3.354  49.517  1.00  0.00     0.002 C 
HETATM   23  C1  UNL     1      27.309   4.458  48.809  1.00  0.00     0.005 C 
ENDBRANCH  21  22
ENDBRANCH   1  21
TORSDOF 5
ENDMDL
MODEL 7
REMARK VINA RESULT:      -6.3      2.530      5.201
REMARK  5 active torsions:
REMARK  status: ('A' for Active; 'I' for Inactive)
REMARK    1  A    between atoms: C2_2  and  C3_3 
REMARK    2  A    between atoms: C3_3  and  C4_4 
REMARK    3  A    between atoms: N2_12  and  C9_13 
REMARK    4  A    between atoms: C9_13  and  C10_14 
REMARK    5  A    between atoms: C16_20  and  O1_21 
ROOT
HETATM    1  C4  UNL     1      23.666   0.564  53.131  1.00  0.00     0.004 C 
HETATM    2  C5  UNL     1      23.070  -0.448  53.813  1.00  0.00    -0.001 C 
HETATM    3  C6  UNL     1      21.749  -1.131  53.928  1.00  0.00     0.044 C 
HETATM    4  C7  UNL     1      20.626  -0.121  54.054  1.00  0.00     0.103 C 
HETATM    5  N1  UNL     1      19.847  -0.029  52.858  1.00  0.00    -0.266 NA
HETATM    6  S1  UNL     1      20.673   0.683  51.520  1.00  0.00    -0.059 SA
HETATM    7  S2  UNL     1      19.544   1.224  50.335  1.00  0.00    -0.007 SA
HETATM    8  C8  UNL     1      21.788   2.008  51.971  1.00  0.00     0.214 C 
HETATM    9  N2  UNL     1      23.116   1.384  52.119  1.00  0.00    -0.370 N 
HETATM   10  H13 UNL     1      18.880   0.302  52.991  1.00  0.00     0.135 HD
ENDROOT
BRANCH   9  11
HETATM   11  C9  UNL     1      24.027   1.647  51.067  1.00  0.00     0.165 C 
BRANCH  11  12
HETATM   12  C10 UNL     1      23.755   2.705  50.118  1.00  0.00    -0.007 A 
HETATM   13  C11 UNL     1      22.941   2.833  49.022  1.00  0.00     0.011 A 
HETATM   14  C12 UNL     1      22.802   3.962  48.244  1.00  0.00     0.001 A 
HETATM   15  C13 UNL     1      23.539   5.072  48.583  1.00  0.00     0.009 A 
HETATM   16  C14 UNL     1      24.378   5.016  49.675  1.00  0.00    -0.028 A 
HETATM   17  C15 UNL     1      25.108   6.285  49.943  1.00  0.00     0.051 C 
HETATM   18  C16 UNL     1      24.480   3.861  50.418  1.00  0.00     0.079 A 
BRANCH  18  19
HETATM   19  O1  UNL     1      25.384   4.010  51.481  1.00  0.00    -0.360 OA
HETATM   20  H24 UNL     1      25.522   3.151  52.022  1.00  0.00     0.217 HD
ENDBRANCH  18  19
ENDBRANCH  11  12
ENDBRANCH   9  11
BRANCH   1  21
HETATM   21  C3  UNL     1      25.038   0.759  53.473  1.00  0.00     0.056 C 
BRANCH  21  22
HETATM   22  C2  UNL     1      25.788  -0.540  53.562  1.00  0.00     0.002 C 
HETATM   23  C1  UNL     1      26.651  -0.919  52.426  1.00  0.00     0.005 C 
ENDBRANCH  21  22
ENDBRANCH   1  21
TORSDOF 5
ENDMDL
MODEL 8
REMARK VINA RESULT:      -6.2      3.133      4.481
REMARK  5 active torsions:
REMARK  status: ('A' for Active; 'I' for Inactive)
REMARK    1  A    between atoms: C2_2  and  C3_3 
REMARK    2  A    between atoms: C3_3  and  C4_4 
REMARK    3  A    between atoms: N2_12  and  C9_13 
REMARK    4  A    between atoms: C9_13  and  C10_14 
REMARK    5  A    between atoms: C16_20  and  O1_21 
ROOT
HETATM    1  C4  UNL     1      22.541   2.425  51.237  1.00  0.00     0.004 C 
HETATM    2  C5  UNL     1      22.126   1.346  50.523  1.00  0.00    -0.001 C 
HETATM    3  C6  UNL     1      21.530   1.007  49.199  1.00  0.00     0.044 C 
HETATM    4  C7  UNL     1      20.357   1.914  48.886  1.00  0.00     0.103 C 
HETATM    5  N1  UNL     1      20.672   2.874  47.873  1.00  0.00    -0.266 NA
HETATM    6  S1  UNL     1      21.798   4.087  48.364  1.00  0.00    -0.059 SA
HETATM    7  S2  UNL     1      21.712   5.449  47.311  1.00  0.00    -0.007 SA
HETATM    8  C8  UNL     1      21.620   4.602  50.068  1.00  0.00     0.214 C 
HETATM    9  N2  UNL     1      22.572   3.781  50.839  1.00  0.00    -0.370 N 
HETATM   10  H13 UNL     1      19.863   3.229  47.341  1.00  0.00     0.135 HD
ENDROOT
BRANCH   9  11
HETATM   11  C9  UNL     1      23.736   4.458  51.278  1.00  0.00     0.165 C 
BRANCH  11  12
HETATM   12  C10 UNL     1      24.940   4.427  50.476  1.00  0.00    -0.007 A 
HETATM   13  C11 UNL     1      25.867   3.466  50.164  1.00  0.00     0.011 A 
HETATM   14  C12 UNL     1      26.959   3.632  49.341  1.00  0.00     0.001 A 
HETATM   15  C13 UNL     1      27.153   4.868  48.771  1.00  0.00     0.009 A 
HETATM   16  C14 UNL     1      26.259   5.883  49.039  1.00  0.00    -0.028 A 
HETATM   17  C15 UNL     1      26.574   7.164  48.352  1.00  0.00     0.051 C 
HETATM   18  C16 UNL     1      25.184   5.662  49.870  1.00  0.00     0.079 A 
BRANCH  18  19
HETATM   19  O1  UNL     1      24.400   6.817  50.015  1.00  0.00    -0.360 OA
HETATM   20  H24 UNL     1      23.938   6.883  50.927  1.00  0.00     0.217 HD
ENDBRANCH  18  19
ENDBRANCH  11  12
ENDBRANCH   9  11
BRANCH   1  21
HETATM   21  C3  UNL     1      23.052   2.098  52.529  1.00  0.00     0.056 C 
BRANCH  21  22
HETATM   22  C2  UNL     1      24.016   0.947  52.480  1.00  0.00     0.002 C 
HETATM   23  C1  UNL     1      23.794  -0.180  53.407  1.00  0.00     0.005 C 
ENDBRANCH  21  22
ENDBRANCH   1  21
TORSDOF 5
ENDMDL
MODEL 9
REMARK VINA RESULT:      -6.2      2.995      6.358
REMARK  5 active torsions:
REMARK  status: ('A' for Active; 'I' for Inactive)
REMARK    1  A    between atoms: C2_2  and  C3_3 
REMARK    2  A    between atoms: C3_3  and  C4_4 
REMARK    3  A    between atoms: N2_12  and  C9_13 
REMARK    4  A    between atoms: C9_13  and  C10_14 
REMARK    5  A    between atoms: C16_20  and  O1_21 
ROOT
HETATM    1  C4  UNL     1      25.575   2.726  51.353  1.00  0.00     0.004 C 
HETATM    2  C5  UNL     1      26.496   1.733  51.248  1.00  0.00    -0.001 C 
HETATM    3  C6  UNL     1      26.738   0.338  51.718  1.00  0.00     0.044 C 
HETATM    4  C7  UNL     1      26.488   0.218  53.208  1.00  0.00     0.103 C 
HETATM    5  N1  UNL     1      25.278  -0.488  53.496  1.00  0.00    -0.266 NA
HETATM    6  S1  UNL     1      23.836   0.360  53.070  1.00  0.00    -0.059 SA
HETATM    7  S2  UNL     1      22.480  -0.299  53.907  1.00  0.00    -0.007 SA
HETATM    8  C8  UNL     1      23.927   2.129  53.324  1.00  0.00     0.214 C 
HETATM    9  N2  UNL     1      24.333   2.702  52.027  1.00  0.00    -0.370 N 
HETATM   10  H13 UNL     1      25.249  -0.947  54.419  1.00  0.00     0.135 HD
ENDROOT
BRANCH   9  11
HETATM   11  C9  UNL     1      23.304   3.361  51.311  1.00  0.00     0.165 C 
BRANCH  11  12
HETATM   12  C10 UNL     1      22.300   2.591  50.607  1.00  0.00    -0.007 A 
HETATM   13  C11 UNL     1      22.311   1.754  49.521  1.00  0.00     0.011 A 
HETATM   14  C12 UNL     1      21.226   1.079  49.008  1.00  0.00     0.001 A 
HETATM   15  C13 UNL     1      20.011   1.248  49.630  1.00  0.00     0.009 A 
HETATM   16  C14 UNL     1      19.925   2.074  50.730  1.00  0.00    -0.028 A 
HETATM   17  C15 UNL     1      18.561   2.159  51.316  1.00  0.00     0.051 C 
HETATM   18  C16 UNL     1      21.043   2.725  51.201  1.00  0.00     0.079 A 
BRANCH  18  19
HETATM   19  O1  UNL     1      20.744   3.515  52.322  1.00  0.00    -0.360 OA
HETATM   20  H24 UNL     1      21.478   4.192  52.550  1.00  0.00     0.217 HD
ENDBRANCH  18  19
ENDBRANCH  11  12
ENDBRANCH   9  11
BRANCH   1  21
HETATM   21  C3  UNL     1      25.920   3.909  50.634  1.00  0.00     0.056 C 
BRANCH  21  22
HETATM   22  C2  UNL     1      26.725   3.607  49.402  1.00  0.00     0.002 C 
HETATM   23  C1  UNL     1      27.447   4.721  48.758  1.00  0.00     0.005 C 
ENDBRANCH  21  22
ENDBRANCH   1  21
TORSDOF 5
ENDMDL
