MODEL 1
REMARK VINA RESULT:      -8.5      0.000      0.000
REMARK  7 active torsions:
REMARK  status: ('A' for Active; 'I' for Inactive)
REMARK    1  A    between atoms: O1_2  and  C2_3 
REMARK    2  A    between atoms: N3_9  and  C6_10 
REMARK    3  A    between atoms: C14_20  and  O2_21 
REMARK    4  A    between atoms: O2_21  and  C15_22 
REMARK    5  A    between atoms: C15_22  and  C16_23 
REMARK    6  A    between atoms: C16_23  and  C17_24 
REMARK    7  A    between atoms: C17_24  and  N4_25 
ROOT
HETATM    1  C2  UNL     1      22.321  -0.056  52.990  1.00  0.00     0.103 A 
HETATM    2  C3  UNL     1      21.339   0.792  52.705  1.00  0.00     0.071 A 
HETATM    3  C4  UNL     1      21.757   2.155  52.393  1.00  0.00     0.083 A 
HETATM    4  N1  UNL     1      20.804   2.959  52.047  1.00  0.00    -0.180 NA
HETATM    5  N2  UNL     1      21.130   4.266  51.735  1.00  0.00    -0.295 N 
HETATM    6  C5  UNL     1      22.177   4.140  50.754  1.00  0.00     0.267 C 
HETATM    7  N3  UNL     1      23.406   3.560  51.285  1.00  0.00    -0.349 N 
HETATM    8  C12 UNL     1      23.121   2.746  52.404  1.00  0.00     0.166 A 
HETATM    9  C13 UNL     1      24.073   1.666  52.724  1.00  0.00     0.044 A 
HETATM   10  C14 UNL     1      23.705   0.398  52.992  1.00  0.00     0.100 A 
HETATM   11  H5  UNL     1      20.740   5.172  52.095  1.00  0.00     0.184 HD
ENDROOT
BRANCH  10  12
HETATM   12  O2  UNL     1      24.590  -0.653  53.306  1.00  0.00    -0.348 OA
BRANCH  12  13
HETATM   13  C15 UNL     1      25.186  -0.746  54.583  1.00  0.00     0.177 C 
BRANCH  13  14
HETATM   14  C16 UNL     1      26.153   0.358  54.888  1.00  0.00     0.057 C 
BRANCH  14  15
HETATM   15  C17 UNL     1      27.583  -0.104  54.908  1.00  0.00     0.274 C 
BRANCH  15  16
HETATM   16  N4  UNL     1      28.200   0.027  53.602  1.00  0.00     0.092 N 
HETATM   17  C18 UNL     1      27.534   0.995  52.758  1.00  0.00     0.298 C 
HETATM   18  C19 UNL     1      28.146   2.371  52.911  1.00  0.00     0.198 C 
HETATM   19  O3  UNL     1      28.672   2.603  54.174  1.00  0.00    -0.388 OA
HETATM   20  C20 UNL     1      29.652   1.717  54.548  1.00  0.00     0.198 C 
HETATM   21  C21 UNL     1      29.581   0.451  53.719  1.00  0.00     0.298 C 
ENDBRANCH  15  16
ENDBRANCH  14  15
ENDBRANCH  13  14
ENDBRANCH  12  13
ENDBRANCH  10  12
BRANCH   1  22
HETATM   22  O1  UNL     1      21.894  -1.343  53.275  1.00  0.00    -0.353 OA
HETATM   23  C1  UNL     1      21.028  -1.653  54.348  1.00  0.00     0.210 C 
ENDBRANCH   1  22
BRANCH   7  24
HETATM   24  C6  UNL     1      24.552   3.950  50.548  1.00  0.00     0.034 A 
HETATM   25  C7  UNL     1      25.455   2.986  50.153  1.00  0.00     0.032 A 
HETATM   26  C8  UNL     1      26.584   3.310  49.423  1.00  0.00     0.046 A 
HETATM   27  C9  UNL     1      26.840   4.611  49.067  1.00  0.00     0.138 A 
HETATM   28  F1  UNL     1      27.949   4.947  48.348  1.00  0.00    -0.204 F 
HETATM   29  C10 UNL     1      25.974   5.620  49.432  1.00  0.00     0.074 A 
HETATM   30 CL1  UNL     1      26.253   7.301  49.003  1.00  0.00    -0.081 Cl
HETATM   31  C11 UNL     1      24.868   5.231  50.158  1.00  0.00     0.056 A 
ENDBRANCH   7  24
TORSDOF 7
ENDMDL
MODEL 2
REMARK VINA RESULT:      -8.4      1.441      1.908
REMARK  7 active torsions:
REMARK  status: ('A' for Active; 'I' for Inactive)
REMARK    1  A    between atoms: O1_2  and  C2_3 
REMARK    2  A    between atoms: N3_9  and  C6_10 
REMARK    3  A    between atoms: C14_20  and  O2_21 
REMARK    4  A    between atoms: O2_21  and  C15_22 
REMARK    5  A    between atoms: C15_22  and  C16_23 
REMARK    6  A    between atoms: C16_23  and  C17_24 
REMARK    7  A    between atoms: C17_24  and  N4_25 
ROOT
HETATM    1  C2  UNL     1      21.223   2.215  52.570  1.00  0.00     0.103 A 
HETATM    2  C3  UNL     1      20.548   3.156  51.922  1.00  0.00     0.071 A 
HETATM    3  C4  UNL     1      21.346   4.274  51.430  1.00  0.00     0.083 A 
HETATM    4  N1  UNL     1      20.696   5.153  50.737  1.00  0.00    -0.180 NA
HETATM    5  N2  UNL     1      21.392   6.240  50.238  1.00  0.00    -0.295 N 
HETATM    6  C5  UNL     1      22.506   5.649  49.542  1.00  0.00     0.267 C 
HETATM    7  N3  UNL     1      23.450   4.968  50.422  1.00  0.00    -0.349 N 
HETATM    8  C12 UNL     1      22.798   4.541  51.601  1.00  0.00     0.166 A 
HETATM    9  C13 UNL     1      23.380   3.395  52.325  1.00  0.00     0.044 A 
HETATM   10  C14 UNL     1      22.661   2.344  52.765  1.00  0.00     0.100 A 
HETATM   11  H5  UNL     1      21.200   7.269  50.316  1.00  0.00     0.184 HD
ENDROOT
BRANCH  10  12
HETATM   12  O2  UNL     1      23.187   1.239  53.464  1.00  0.00    -0.348 OA
BRANCH  12  13
HETATM   13  C15 UNL     1      23.798   0.167  52.778  1.00  0.00     0.177 C 
BRANCH  13  14
HETATM   14  C16 UNL     1      25.019  -0.377  53.458  1.00  0.00     0.057 C 
BRANCH  14  15
HETATM   15  C17 UNL     1      26.006   0.693  53.834  1.00  0.00     0.274 C 
BRANCH  15  16
HETATM   16  N4  UNL     1      27.107   0.751  52.892  1.00  0.00     0.092 N 
HETATM   17  C18 UNL     1      27.693   2.070  52.788  1.00  0.00     0.298 C 
HETATM   18  C19 UNL     1      28.840   2.240  53.761  1.00  0.00     0.198 C 
HETATM   19  O3  UNL     1      28.696   1.491  54.920  1.00  0.00    -0.388 OA
HETATM   20  C20 UNL     1      28.586   0.139  54.708  1.00  0.00     0.198 C 
HETATM   21  C21 UNL     1      28.172  -0.152  53.279  1.00  0.00     0.298 C 
ENDBRANCH  15  16
ENDBRANCH  14  15
ENDBRANCH  13  14
ENDBRANCH  12  13
ENDBRANCH  10  12
BRANCH   1  22
HETATM   22  O1  UNL     1      20.441   1.163  53.019  1.00  0.00    -0.353 OA
HETATM   23  C1  UNL     1      19.853   0.209  52.157  1.00  0.00     0.210 C 
ENDBRANCH   1  22
BRANCH   7  24
HETATM   24  C6  UNL     1      24.755   4.905  49.873  1.00  0.00     0.034 A 
HETATM   25  C7  UNL     1      25.424   3.700  49.873  1.00  0.00     0.032 A 
HETATM   26  C8  UNL     1      26.694   3.580  49.340  1.00  0.00     0.046 A 
HETATM   27  C9  UNL     1      27.331   4.666  48.793  1.00  0.00     0.138 A 
HETATM   28  F1  UNL     1      28.584   4.564  48.265  1.00  0.00    -0.204 F 
HETATM   29  C10 UNL     1      26.714   5.899  48.764  1.00  0.00     0.074 A 
HETATM   30 CL1  UNL     1      27.483   7.321  48.075  1.00  0.00    -0.081 Cl
HETATM   31  C11 UNL     1      25.449   5.951  49.310  1.00  0.00     0.056 A 
ENDBRANCH   7  24
TORSDOF 7
ENDMDL
MODEL 3
REMARK VINA RESULT:      -8.4      3.366      5.879
REMARK  7 active torsions:
REMARK  status: ('A' for Active; 'I' for Inactive)
REMARK    1  A    between atoms: O1_2  and  C2_3 
REMARK    2  A    between atoms: N3_9  and  C6_10 
REMARK    3  A    between atoms: C14_20  and  O2_21 
REMARK    4  A    between atoms: O2_21  and  C15_22 
REMARK    5  A    between atoms: C15_22  and  C16_23 
REMARK    6  A    between atoms: C16_23  and  C17_24 
REMARK    7  A    between atoms: C17_24  and  N4_25 
ROOT
HETATM    1  C2  UNL     1      20.896   2.376  52.495  1.00  0.00     0.103 A 
HETATM    2  C3  UNL     1      20.604   1.469  53.419  1.00  0.00     0.071 A 
HETATM    3  C4  UNL     1      21.558   0.372  53.547  1.00  0.00     0.083 A 
HETATM    4  N1  UNL     1      21.306  -0.470  54.497  1.00  0.00    -0.180 NA
HETATM    5  N2  UNL     1      22.172  -1.533  54.677  1.00  0.00    -0.295 N 
HETATM    6  C5  UNL     1      23.469  -0.915  54.768  1.00  0.00     0.267 C 
HETATM    7  N3  UNL     1      23.902  -0.281  53.527  1.00  0.00    -0.349 N 
HETATM    8  C12 UNL     1      22.781   0.092  52.751  1.00  0.00     0.166 A 
HETATM    9  C13 UNL     1      22.952   1.200  51.792  1.00  0.00     0.044 A 
HETATM   10  C14 UNL     1      22.093   2.231  51.678  1.00  0.00     0.100 A 
HETATM   11  H5  UNL     1      21.983  -2.565  54.740  1.00  0.00     0.184 HD
ENDROOT
BRANCH  10  12
HETATM   12  O2  UNL     1      22.227   3.300  50.768  1.00  0.00    -0.348 OA
BRANCH  12  13
HETATM   13  C15 UNL     1      22.494   3.064  49.402  1.00  0.00     0.177 C 
BRANCH  13  14
HETATM   14  C16 UNL     1      23.859   3.501  48.961  1.00  0.00     0.057 C 
BRANCH  14  15
HETATM   15  C17 UNL     1      24.092   4.974  49.150  1.00  0.00     0.274 C 
BRANCH  15  16
HETATM   16  N4  UNL     1      25.250   5.224  49.987  1.00  0.00     0.092 N 
HETATM   17  C18 UNL     1      26.489   4.783  49.382  1.00  0.00     0.298 C 
HETATM   18  C19 UNL     1      27.136   5.893  48.582  1.00  0.00     0.198 C 
HETATM   19  O3  UNL     1      26.222   6.783  48.035  1.00  0.00    -0.388 OA
HETATM   20  C20 UNL     1      25.421   7.408  48.958  1.00  0.00     0.198 C 
HETATM   21  C21 UNL     1      25.398   6.638  50.263  1.00  0.00     0.298 C 
ENDBRANCH  15  16
ENDBRANCH  14  15
ENDBRANCH  13  14
ENDBRANCH  12  13
ENDBRANCH  10  12
BRANCH   1  22
HETATM   22  O1  UNL     1      19.977   3.408  52.401  1.00  0.00    -0.353 OA
HETATM   23  C1  UNL     1      18.787   3.322  51.642  1.00  0.00     0.210 C 
ENDBRANCH   1  22
BRANCH   7  24
HETATM   24  C6  UNL     1      25.313  -0.197  53.424  1.00  0.00     0.034 A 
HETATM   25  C7  UNL     1      26.027  -1.322  53.075  1.00  0.00     0.032 A 
HETATM   26  C8  UNL     1      27.404  -1.293  52.950  1.00  0.00     0.046 A 
HETATM   27  C9  UNL     1      28.105  -0.133  53.172  1.00  0.00     0.138 A 
HETATM   28  F1  UNL     1      29.462  -0.089  53.053  1.00  0.00    -0.204 F 
HETATM   29  C10 UNL     1      27.446   1.026  53.523  1.00  0.00     0.074 A 
HETATM   30 CL1  UNL     1      28.293   2.538  53.817  1.00  0.00    -0.081 Cl
HETATM   31  C11 UNL     1      26.074   0.930  53.631  1.00  0.00     0.056 A 
ENDBRANCH   7  24
TORSDOF 7
ENDMDL
MODEL 4
REMARK VINA RESULT:      -8.3      3.396      6.284
REMARK  7 active torsions:
REMARK  status: ('A' for Active; 'I' for Inactive)
REMARK    1  A    between atoms: O1_2  and  C2_3 
REMARK    2  A    between atoms: N3_9  and  C6_10 
REMARK    3  A    between atoms: C14_20  and  O2_21 
REMARK    4  A    between atoms: O2_21  and  C15_22 
REMARK    5  A    between atoms: C15_22  and  C16_23 
REMARK    6  A    between atoms: C16_23  and  C17_24 
REMARK    7  A    between atoms: C17_24  and  N4_25 
ROOT
HETATM    1  C2  UNL     1      26.527  -0.197  52.951  1.00  0.00     0.103 A 
HETATM    2  C3  UNL     1      25.919  -0.881  53.913  1.00  0.00     0.071 A 
HETATM    3  C4  UNL     1      24.513  -0.553  54.125  1.00  0.00     0.083 A 
HETATM    4  N1  UNL     1      23.907  -1.271  55.014  1.00  0.00    -0.180 NA
HETATM    5  N2  UNL     1      22.571  -1.015  55.264  1.00  0.00    -0.295 N 
HETATM    6  C5  UNL     1      21.959  -1.053  53.961  1.00  0.00     0.267 C 
HETATM    7  N3  UNL     1      22.393   0.027  53.081  1.00  0.00    -0.349 N 
HETATM    8  C12 UNL     1      23.677   0.479  53.458  1.00  0.00     0.166 A 
HETATM    9  C13 UNL     1      24.506   1.122  52.421  1.00  0.00     0.044 A 
HETATM   10  C14 UNL     1      25.799   0.814  52.197  1.00  0.00     0.100 A 
HETATM   11  H5  UNL     1      22.068  -0.830  56.168  1.00  0.00     0.184 HD
ENDROOT
BRANCH  10  12
HETATM   12  O2  UNL     1      26.617   1.414  51.218  1.00  0.00    -0.348 OA
BRANCH  12  13
HETATM   13  C15 UNL     1      26.662   2.817  51.068  1.00  0.00     0.177 C 
BRANCH  13  14
HETATM   14  C16 UNL     1      26.318   3.295  49.689  1.00  0.00     0.057 C 
BRANCH  14  15
HETATM   15  C17 UNL     1      25.956   4.754  49.647  1.00  0.00     0.274 C 
BRANCH  15  16
HETATM   16  N4  UNL     1      24.619   4.953  49.122  1.00  0.00     0.092 N 
HETATM   17  C18 UNL     1      23.697   3.909  49.514  1.00  0.00     0.298 C 
HETATM   18  C19 UNL     1      22.977   4.265  50.797  1.00  0.00     0.198 C 
HETATM   19  O3  UNL     1      23.730   5.064  51.648  1.00  0.00    -0.388 OA
HETATM   20  C20 UNL     1      24.124   6.259  51.098  1.00  0.00     0.198 C 
HETATM   21  C21 UNL     1      24.058   6.205  49.585  1.00  0.00     0.298 C 
ENDBRANCH  15  16
ENDBRANCH  14  15
ENDBRANCH  13  14
ENDBRANCH  12  13
ENDBRANCH  10  12
BRANCH   1  22
HETATM   22  O1  UNL     1      27.858  -0.535  52.768  1.00  0.00    -0.353 OA
HETATM   23  C1  UNL     1      28.827  -0.457  53.795  1.00  0.00     0.210 C 
ENDBRANCH   1  22
BRANCH   7  24
HETATM   24  C6  UNL     1      21.433   0.334  52.085  1.00  0.00     0.034 A 
HETATM   25  C7  UNL     1      20.093   0.217  52.388  1.00  0.00     0.032 A 
HETATM   26  C8  UNL     1      19.114   0.514  51.458  1.00  0.00     0.046 A 
HETATM   27  C9  UNL     1      19.451   0.937  50.195  1.00  0.00     0.138 A 
HETATM   28  F1  UNL     1      18.497   1.233  49.267  1.00  0.00    -0.204 F 
HETATM   29  C10 UNL     1      20.774   1.075  49.833  1.00  0.00     0.074 A 
HETATM   30 CL1  UNL     1      21.260   1.614  48.233  1.00  0.00    -0.081 Cl
HETATM   31  C11 UNL     1      21.700   0.763  50.806  1.00  0.00     0.056 A 
ENDBRANCH   7  24
TORSDOF 7
ENDMDL
MODEL 5
REMARK VINA RESULT:      -8.3      3.239      5.659
REMARK  7 active torsions:
REMARK  status: ('A' for Active; 'I' for Inactive)
REMARK    1  A    between atoms: O1_2  and  C2_3 
REMARK    2  A    between atoms: N3_9  and  C6_10 
REMARK    3  A    between atoms: C14_20  and  O2_21 
REMARK    4  A    between atoms: O2_21  and  C15_22 
REMARK    5  A    between atoms: C15_22  and  C16_23 
REMARK    6  A    between atoms: C16_23  and  C17_24 
REMARK    7  A    between atoms: C17_24  and  N4_25 
ROOT
HETATM    1  C2  UNL     1      20.600   0.101  52.923  1.00  0.00     0.103 A 
HETATM    2  C3  UNL     1      20.785  -0.631  54.015  1.00  0.00     0.071 A 
HETATM    3  C4  UNL     1      22.160  -1.049  54.265  1.00  0.00     0.083 A 
HETATM    4  N1  UNL     1      22.347  -1.701  55.368  1.00  0.00    -0.180 NA
HETATM    5  N2  UNL     1      23.628  -2.126  55.669  1.00  0.00    -0.295 N 
HETATM    6  C5  UNL     1      24.428  -0.934  55.549  1.00  0.00     0.267 C 
HETATM    7  N3  UNL     1      24.510  -0.423  54.185  1.00  0.00    -0.349 N 
HETATM    8  C12 UNL     1      23.377  -0.823  53.442  1.00  0.00     0.166 A 
HETATM    9  C13 UNL     1      22.987   0.010  52.289  1.00  0.00     0.044 A 
HETATM   10  C14 UNL     1      21.726   0.424  52.056  1.00  0.00     0.100 A 
HETATM   11  H5  UNL     1      23.988  -3.077  55.931  1.00  0.00     0.184 HD
ENDROOT
BRANCH  10  12
HETATM   12  O2  UNL     1      21.322   1.215  50.962  1.00  0.00    -0.348 OA
BRANCH  12  13
HETATM   13  C15 UNL     1      22.152   1.371  49.830  1.00  0.00     0.177 C 
BRANCH  13  14
HETATM   14  C16 UNL     1      21.884   2.618  49.043  1.00  0.00     0.057 C 
BRANCH  14  15
HETATM   15  C17 UNL     1      22.986   3.634  49.162  1.00  0.00     0.274 C 
BRANCH  15  16
HETATM   16  N4  UNL     1      23.958   3.245  50.166  1.00  0.00     0.092 N 
HETATM   17  C18 UNL     1      25.320   3.277  49.675  1.00  0.00     0.298 C 
HETATM   18  C19 UNL     1      25.964   4.622  49.930  1.00  0.00     0.198 C 
HETATM   19  O3  UNL     1      25.060   5.676  49.925  1.00  0.00    -0.388 OA
HETATM   20  C20 UNL     1      24.056   5.563  50.854  1.00  0.00     0.198 C 
HETATM   21  C21 UNL     1      23.905   4.127  51.313  1.00  0.00     0.298 C 
ENDBRANCH  15  16
ENDBRANCH  14  15
ENDBRANCH  13  14
ENDBRANCH  12  13
ENDBRANCH  10  12
BRANCH   1  22
HETATM   22  O1  UNL     1      19.286   0.489  52.715  1.00  0.00    -0.353 OA
HETATM   23  C1  UNL     1      18.324  -0.334  52.085  1.00  0.00     0.210 C 
ENDBRANCH   1  22
BRANCH   7  24
HETATM   24  C6  UNL     1      25.685   0.339  53.961  1.00  0.00     0.034 A 
HETATM   25  C7  UNL     1      25.576   1.701  53.779  1.00  0.00     0.032 A 
HETATM   26  C8  UNL     1      26.689   2.492  53.568  1.00  0.00     0.046 A 
HETATM   27  C9  UNL     1      27.946   1.940  53.533  1.00  0.00     0.138 A 
HETATM   28  F1  UNL     1      29.054   2.707  53.326  1.00  0.00    -0.204 F 
HETATM   29  C10 UNL     1      28.120   0.584  53.709  1.00  0.00     0.074 A 
HETATM   30 CL1  UNL     1      29.705  -0.175  53.675  1.00  0.00    -0.081 Cl
HETATM   31  C11 UNL     1      26.970  -0.149  53.915  1.00  0.00     0.056 A 
ENDBRANCH   7  24
TORSDOF 7
ENDMDL
MODEL 6
REMARK VINA RESULT:      -8.3      3.939      7.622
REMARK  7 active torsions:
REMARK  status: ('A' for Active; 'I' for Inactive)
REMARK    1  A    between atoms: O1_2  and  C2_3 
REMARK    2  A    between atoms: N3_9  and  C6_10 
REMARK    3  A    between atoms: C14_20  and  O2_21 
REMARK    4  A    between atoms: O2_21  and  C15_22 
REMARK    5  A    between atoms: C15_22  and  C16_23 
REMARK    6  A    between atoms: C16_23  and  C17_24 
REMARK    7  A    between atoms: C17_24  and  N4_25 
ROOT
HETATM    1  C2  UNL     1      25.643   3.674  50.749  1.00  0.00     0.103 A 
HETATM    2  C3  UNL     1      26.570   2.777  51.063  1.00  0.00     0.071 A 
HETATM    3  C4  UNL     1      26.210   1.850  52.131  1.00  0.00     0.083 A 
HETATM    4  N1  UNL     1      27.087   0.933  52.385  1.00  0.00    -0.180 NA
HETATM    5  N2  UNL     1      26.810   0.018  53.385  1.00  0.00    -0.295 N 
HETATM    6  C5  UNL     1      25.509  -0.493  53.039  1.00  0.00     0.267 C 
HETATM    7  N3  UNL     1      24.447   0.504  53.132  1.00  0.00    -0.349 N 
HETATM    8  C12 UNL     1      24.977   1.802  52.960  1.00  0.00     0.166 A 
HETATM    9  C13 UNL     1      24.067   2.852  52.465  1.00  0.00     0.044 A 
HETATM   10  C14 UNL     1      24.374   3.700  51.464  1.00  0.00     0.100 A 
HETATM   11  H5  UNL     1      27.376  -0.273  54.220  1.00  0.00     0.184 HD
ENDROOT
BRANCH  10  12
HETATM   12  O2  UNL     1      23.528   4.715  50.974  1.00  0.00    -0.348 OA
BRANCH  12  13
HETATM   13  C15 UNL     1      22.400   5.141  51.708  1.00  0.00     0.177 C 
BRANCH  13  14
HETATM   14  C16 UNL     1      21.099   4.972  50.982  1.00  0.00     0.057 C 
BRANCH  14  15
HETATM   15  C17 UNL     1      20.784   3.536  50.669  1.00  0.00     0.274 C 
BRANCH  15  16
HETATM   16  N4  UNL     1      20.345   3.378  49.295  1.00  0.00     0.092 N 
HETATM   17  C18 UNL     1      21.154   4.124  48.355  1.00  0.00     0.298 C 
HETATM   18  C19 UNL     1      22.296   3.285  47.825  1.00  0.00     0.198 C 
HETATM   19  O3  UNL     1      22.750   2.337  48.732  1.00  0.00    -0.388 OA
HETATM   20  C20 UNL     1      21.791   1.443  49.141  1.00  0.00     0.198 C 
HETATM   21  C21 UNL     1      20.401   1.990  48.887  1.00  0.00     0.298 C 
ENDBRANCH  15  16
ENDBRANCH  14  15
ENDBRANCH  13  14
ENDBRANCH  12  13
ENDBRANCH  10  12
BRANCH   1  22
HETATM   22  O1  UNL     1      26.010   4.535  49.728  1.00  0.00    -0.353 OA
HETATM   23  C1  UNL     1      27.195   4.382  48.971  1.00  0.00     0.210 C 
ENDBRANCH   1  22
BRANCH   7  24
HETATM   24  C6  UNL     1      23.175  -0.079  53.359  1.00  0.00     0.034 A 
HETATM   25  C7  UNL     1      23.023  -0.971  54.399  1.00  0.00     0.032 A 
HETATM   26  C8  UNL     1      21.803  -1.560  54.672  1.00  0.00     0.046 A 
HETATM   27  C9  UNL     1      20.698  -1.272  53.909  1.00  0.00     0.138 A 
HETATM   28  F1  UNL     1      19.488  -1.845  54.166  1.00  0.00    -0.204 F 
HETATM   29  C10 UNL     1      20.786  -0.387  52.856  1.00  0.00     0.074 A 
HETATM   30 CL1  UNL     1      19.405   0.018  51.848  1.00  0.00    -0.081 Cl
HETATM   31  C11 UNL     1      22.030   0.166  52.636  1.00  0.00     0.056 A 
ENDBRANCH   7  24
TORSDOF 7
ENDMDL
MODEL 7
REMARK VINA RESULT:      -8.2      3.721      6.519
REMARK  7 active torsions:
REMARK  status: ('A' for Active; 'I' for Inactive)
REMARK    1  A    between atoms: O1_2  and  C2_3 
REMARK    2  A    between atoms: N3_9  and  C6_10 
REMARK    3  A    between atoms: C14_20  and  O2_21 
REMARK    4  A    between atoms: O2_21  and  C15_22 
REMARK    5  A    between atoms: C15_22  and  C16_23 
REMARK    6  A    between atoms: C16_23  and  C17_24 
REMARK    7  A    between atoms: C17_24  and  N4_25 
ROOT
HETATM    1  C2  UNL     1      22.842   3.839  51.847  1.00  0.00     0.103 A 
HETATM    2  C3  UNL     1      22.134   2.852  52.382  1.00  0.00     0.071 A 
HETATM    3  C4  UNL     1      22.806   1.558  52.439  1.00  0.00     0.083 A 
HETATM    4  N1  UNL     1      22.140   0.616  53.027  1.00  0.00    -0.180 NA
HETATM    5  N2  UNL     1      22.718  -0.637  53.118  1.00  0.00    -0.295 N 
HETATM    6  C5  UNL     1      24.011  -0.382  53.698  1.00  0.00     0.267 C 
HETATM    7  N3  UNL     1      24.900   0.382  52.829  1.00  0.00    -0.349 N 
HETATM    8  C12 UNL     1      24.147   1.171  51.931  1.00  0.00     0.166 A 
HETATM    9  C13 UNL     1      24.786   2.385  51.388  1.00  0.00     0.044 A 
HETATM   10  C14 UNL     1      24.188   3.592  51.349  1.00  0.00     0.100 A 
HETATM   11  H5  UNL     1      22.348  -1.582  52.846  1.00  0.00     0.184 HD
ENDROOT
BRANCH  10  12
HETATM   12  O2  UNL     1      24.770   4.767  50.832  1.00  0.00    -0.348 OA
BRANCH  12  13
HETATM   13  C15 UNL     1      24.964   4.934  49.444  1.00  0.00     0.177 C 
BRANCH  13  14
HETATM   14  C16 UNL     1      26.388   4.780  49.003  1.00  0.00     0.057 C 
BRANCH  14  15
HETATM   15  C17 UNL     1      27.126   6.088  48.935  1.00  0.00     0.274 C 
BRANCH  15  16
HETATM   16  N4  UNL     1      26.210   7.213  48.952  1.00  0.00     0.092 N 
HETATM   17  C18 UNL     1      26.417   8.093  50.082  1.00  0.00     0.298 C 
HETATM   18  C19 UNL     1      27.386   9.205  49.742  1.00  0.00     0.198 C 
HETATM   19  O3  UNL     1      28.335   8.840  48.796  1.00  0.00    -0.388 OA
HETATM   20  C20 UNL     1      27.806   8.428  47.598  1.00  0.00     0.198 C 
HETATM   21  C21 UNL     1      26.355   8.021  47.759  1.00  0.00     0.298 C 
ENDBRANCH  15  16
ENDBRANCH  14  15
ENDBRANCH  13  14
ENDBRANCH  12  13
ENDBRANCH  10  12
BRANCH   1  22
HETATM   22  O1  UNL     1      22.182   5.057  51.813  1.00  0.00    -0.353 OA
HETATM   23  C1  UNL     1      21.284   5.425  50.784  1.00  0.00     0.210 C 
ENDBRANCH   1  22
BRANCH   7  24
HETATM   24  C6  UNL     1      26.269   0.146  53.111  1.00  0.00     0.034 A 
HETATM   25  C7  UNL     1      26.805  -1.094  52.837  1.00  0.00     0.032 A 
HETATM   26  C8  UNL     1      28.137  -1.375  53.083  1.00  0.00     0.046 A 
HETATM   27  C9  UNL     1      28.969  -0.419  53.611  1.00  0.00     0.138 A 
HETATM   28  F1  UNL     1      30.284  -0.681  53.859  1.00  0.00    -0.204 F 
HETATM   29  C10 UNL     1      28.492   0.840  53.906  1.00  0.00     0.074 A 
HETATM   30 CL1  UNL     1      29.514   2.100  54.583  1.00  0.00    -0.081 Cl
HETATM   31  C11 UNL     1      27.157   1.056  53.638  1.00  0.00     0.056 A 
ENDBRANCH   7  24
TORSDOF 7
ENDMDL
MODEL 8
REMARK VINA RESULT:      -8.1      4.378      6.838
REMARK  7 active torsions:
REMARK  status: ('A' for Active; 'I' for Inactive)
REMARK    1  A    between atoms: O1_2  and  C2_3 
REMARK    2  A    between atoms: N3_9  and  C6_10 
REMARK    3  A    between atoms: C14_20  and  O2_21 
REMARK    4  A    between atoms: O2_21  and  C15_22 
REMARK    5  A    between atoms: C15_22  and  C16_23 
REMARK    6  A    between atoms: C16_23  and  C17_24 
REMARK    7  A    between atoms: C17_24  and  N4_25 
ROOT
HETATM    1  C2  UNL     1      24.470   5.467  50.078  1.00  0.00     0.103 A 
HETATM    2  C3  UNL     1      23.397   4.842  50.547  1.00  0.00     0.071 A 
HETATM    3  C4  UNL     1      23.581   3.429  50.862  1.00  0.00     0.083 A 
HETATM    4  N1  UNL     1      22.554   2.842  51.386  1.00  0.00    -0.180 NA
HETATM    5  N2  UNL     1      22.660   1.501  51.711  1.00  0.00    -0.295 N 
HETATM    6  C5  UNL     1      23.851   1.432  52.517  1.00  0.00     0.267 C 
HETATM    7  N3  UNL     1      25.073   1.740  51.782  1.00  0.00    -0.349 N 
HETATM    8  C12 UNL     1      24.783   2.573  50.678  1.00  0.00     0.166 A 
HETATM    9  C13 UNL     1      25.867   3.432  50.166  1.00  0.00     0.044 A 
HETATM   10  C14 UNL     1      25.720   4.743  49.893  1.00  0.00     0.100 A 
HETATM   11  H5  UNL     1      22.048   0.686  51.458  1.00  0.00     0.184 HD
ENDROOT
BRANCH  10  12
HETATM   12  O2  UNL     1      26.735   5.586  49.398  1.00  0.00    -0.348 OA
BRANCH  12  13
HETATM   13  C15 UNL     1      27.791   5.073  48.615  1.00  0.00     0.177 C 
BRANCH  13  14
HETATM   14  C16 UNL     1      28.672   6.126  48.011  1.00  0.00     0.057 C 
BRANCH  14  15
HETATM   15  C17 UNL     1      30.129   5.758  48.039  1.00  0.00     0.274 C 
BRANCH  15  16
HETATM   16  N4  UNL     1      30.880   6.638  48.913  1.00  0.00     0.092 N 
HETATM   17  C18 UNL     1      31.917   5.950  49.653  1.00  0.00     0.298 C 
HETATM   18  C19 UNL     1      33.233   5.975  48.906  1.00  0.00     0.198 C 
HETATM   19  O3  UNL     1      33.084   6.002  47.526  1.00  0.00    -0.388 OA
HETATM   20  C20 UNL     1      32.370   7.077  47.057  1.00  0.00     0.198 C 
HETATM   21  C21 UNL     1      31.531   7.690  48.159  1.00  0.00     0.298 C 
ENDBRANCH  15  16
ENDBRANCH  14  15
ENDBRANCH  13  14
ENDBRANCH  12  13
ENDBRANCH  10  12
BRANCH   1  22
HETATM   22  O1  UNL     1      24.266   6.808  49.795  1.00  0.00    -0.353 OA
HETATM   23  C1  UNL     1      23.639   7.704  50.691  1.00  0.00     0.210 C 
ENDBRANCH   1  22
BRANCH   7  24
HETATM   24  C6  UNL     1      26.220   1.141  52.359  1.00  0.00     0.034 A 
HETATM   25  C7  UNL     1      26.394  -0.222  52.243  1.00  0.00     0.032 A 
HETATM   26  C8  UNL     1      27.500  -0.856  52.778  1.00  0.00     0.046 A 
HETATM   27  C9  UNL     1      28.464  -0.142  53.447  1.00  0.00     0.138 A 
HETATM   28  F1  UNL     1      29.559  -0.753  53.980  1.00  0.00    -0.204 F 
HETATM   29  C10 UNL     1      28.346   1.224  53.595  1.00  0.00     0.074 A 
HETATM   30 CL1  UNL     1      29.550   2.186  54.440  1.00  0.00    -0.081 Cl
HETATM   31  C11 UNL     1      27.221   1.796  53.039  1.00  0.00     0.056 A 
ENDBRANCH   7  24
TORSDOF 7
ENDMDL
MODEL 9
REMARK VINA RESULT:      -8.1      5.021      7.673
REMARK  7 active torsions:
REMARK  status: ('A' for Active; 'I' for Inactive)
REMARK    1  A    between atoms: O1_2  and  C2_3 
REMARK    2  A    between atoms: N3_9  and  C6_10 
REMARK    3  A    between atoms: C14_20  and  O2_21 
REMARK    4  A    between atoms: O2_21  and  C15_22 
REMARK    5  A    between atoms: C15_22  and  C16_23 
REMARK    6  A    between atoms: C16_23  and  C17_24 
REMARK    7  A    between atoms: C17_24  and  N4_25 
ROOT
HETATM    1  C2  UNL     1      26.432   5.900  49.037  1.00  0.00     0.103 A 
HETATM    2  C3  UNL     1      25.301   5.914  49.732  1.00  0.00     0.071 A 
HETATM    3  C4  UNL     1      24.932   4.648  50.357  1.00  0.00     0.083 A 
HETATM    4  N1  UNL     1      23.867   4.685  51.092  1.00  0.00    -0.180 NA
HETATM    5  N2  UNL     1      23.461   3.520  51.716  1.00  0.00    -0.295 N 
HETATM    6  C5  UNL     1      24.638   3.067  52.410  1.00  0.00     0.267 C 
HETATM    7  N3  UNL     1      25.721   2.661  51.520  1.00  0.00    -0.349 N 
HETATM    8  C12 UNL     1      25.609   3.328  50.279  1.00  0.00     0.166 A 
HETATM    9  C13 UNL     1      26.841   3.505  49.486  1.00  0.00     0.044 A 
HETATM   10  C14 UNL     1      27.208   4.672  48.922  1.00  0.00     0.100 A 
HETATM   11  H5  UNL     1      22.529   3.035  51.719  1.00  0.00     0.184 HD
ENDROOT
BRANCH  10  12
HETATM   12  O2  UNL     1      28.374   4.870  48.156  1.00  0.00    -0.348 OA
BRANCH  12  13
HETATM   13  C15 UNL     1      29.454   5.629  48.656  1.00  0.00     0.177 C 
BRANCH  13  14
HETATM   14  C16 UNL     1      30.438   6.056  47.608  1.00  0.00     0.057 C 
BRANCH  14  15
HETATM   15  C17 UNL     1      31.713   5.259  47.642  1.00  0.00     0.274 C 
BRANCH  15  16
HETATM   16  N4  UNL     1      32.877   6.125  47.669  1.00  0.00     0.092 N 
HETATM   17  C18 UNL     1      33.778   5.827  48.762  1.00  0.00     0.298 C 
HETATM   18  C19 UNL     1      34.837   4.829  48.344  1.00  0.00     0.198 C 
HETATM   19  O3  UNL     1      34.405   3.944  47.366  1.00  0.00    -0.388 OA
HETATM   20  C20 UNL     1      33.984   4.546  46.206  1.00  0.00     0.198 C 
HETATM   21  C21 UNL     1      33.644   6.003  46.447  1.00  0.00     0.298 C 
ENDBRANCH  15  16
ENDBRANCH  14  15
ENDBRANCH  13  14
ENDBRANCH  12  13
ENDBRANCH  10  12
BRANCH   1  22
HETATM   22  O1  UNL     1      26.760   7.117  48.462  1.00  0.00    -0.353 OA
HETATM   23  C1  UNL     1      26.740   8.341  49.170  1.00  0.00     0.210 C 
ENDBRANCH   1  22
BRANCH   7  24
HETATM   24  C6  UNL     1      26.596   1.724  52.122  1.00  0.00     0.034 A 
HETATM   25  C7  UNL     1      27.672   2.183  52.851  1.00  0.00     0.032 A 
HETATM   26  C8  UNL     1      28.550   1.312  53.468  1.00  0.00     0.046 A 
HETATM   27  C9  UNL     1      28.375  -0.047  53.372  1.00  0.00     0.138 A 
HETATM   28  F1  UNL     1      29.233  -0.918  53.975  1.00  0.00    -0.204 F 
HETATM   29  C10 UNL     1      27.317  -0.567  52.658  1.00  0.00     0.074 A 
HETATM   30 CL1  UNL     1      27.046  -2.297  52.503  1.00  0.00    -0.081 Cl
HETATM   31  C11 UNL     1      26.478   0.354  52.067  1.00  0.00     0.056 A 
ENDBRANCH   7  24
TORSDOF 7
ENDMDL
