MODEL 1
REMARK VINA RESULT:      -8.7      0.000      0.000
REMARK  9 active torsions:
REMARK  status: ('A' for Active; 'I' for Inactive)
REMARK    1  A    between atoms: O1_1  and  C1_2 
REMARK    2  A    between atoms: C4_5  and  C5_6 
REMARK    3  A    between atoms: C5_6  and  N1_7 
REMARK    4  A    between atoms: N1_7  and  C6_8 
REMARK    5  A    between atoms: N1_7  and  O3_17 
REMARK    6  A    between atoms: C6_8  and  C7_9 
REMARK    7  A    between atoms: C12_15  and  O2_16 
REMARK    8  A    between atoms: O3_17  and  N2_18 
REMARK    9  A    between atoms: N2_18  and  C13_19 
ROOT
HETATM    1  N1  UNL     1      25.716   2.323  52.159  1.00  0.00    -0.261 N 
ENDROOT
BRANCH   1   2
HETATM    2  C5  UNL     1      26.990   1.855  52.364  1.00  0.00     0.190 C 
BRANCH   2   3
HETATM    3  C4  UNL     1      27.268   0.428  52.565  1.00  0.00    -0.038 A 
HETATM    4  C3  UNL     1      26.672  -0.757  52.220  1.00  0.00     0.011 A 
HETATM    5  C2  UNL     1      27.169  -1.991  52.501  1.00  0.00     0.037 A 
HETATM    6  C1  UNL     1      28.351  -2.137  53.178  1.00  0.00     0.065 A 
HETATM    7  C20 UNL     1      28.992  -1.002  53.550  1.00  0.00     0.037 A 
HETATM    8  C19 UNL     1      28.483   0.256  53.263  1.00  0.00     0.011 A 
BRANCH   6   9
HETATM    9  O1  UNL     1      28.696  -3.464  53.370  1.00  0.00    -0.361 OA
HETATM   10  H1  UNL     1      29.650  -3.781  53.349  1.00  0.00     0.217 HD
ENDBRANCH   6   9
ENDBRANCH   2   3
ENDBRANCH   1   2
BRANCH   1  11
HETATM   11  C6  UNL     1      24.665   2.363  53.064  1.00  0.00     0.193 C 
BRANCH  11  12
HETATM   12  C7  UNL     1      23.627   1.358  53.011  1.00  0.00    -0.003 A 
HETATM   13  C8  UNL     1      23.782   0.216  53.804  1.00  0.00     0.012 A 
HETATM   14  C9  UNL     1      22.908  -0.844  53.812  1.00  0.00     0.002 A 
HETATM   15  C10 UNL     1      21.789  -0.869  53.023  1.00  0.00     0.026 A 
HETATM   16  C11 UNL     1      21.580   0.231  52.216  1.00  0.00     0.067 A 
HETATM   17 CL1  UNL     1      20.176   0.345  51.141  1.00  0.00    -0.081 Cl
HETATM   18  C12 UNL     1      22.466   1.272  52.231  1.00  0.00     0.095 A 
BRANCH  18  19
HETATM   19  O2  UNL     1      22.239   2.364  51.427  1.00  0.00    -0.358 OA
HETATM   20  H11 UNL     1      22.750   2.534  50.552  1.00  0.00     0.217 HD
ENDBRANCH  18  19
ENDBRANCH  11  12
ENDBRANCH   1  11
BRANCH   1  21
HETATM   21  O3  UNL     1      25.285   2.305  50.865  1.00  0.00    -0.159 OA
BRANCH  21  22
HETATM   22  N2  UNL     1      24.816   3.454  50.385  1.00  0.00    -0.242 N 
HETATM   23  H12 UNL     1      23.861   3.930  50.356  1.00  0.00     0.197 HD
BRANCH  22  24
HETATM   24  C13 UNL     1      25.750   4.336  49.744  1.00  0.00     0.056 A 
HETATM   25  C14 UNL     1      26.979   3.993  49.180  1.00  0.00     0.031 A 
HETATM   26  C15 UNL     1      27.820   4.892  48.579  1.00  0.00     0.002 A 
HETATM   27  C16 UNL     1      27.476   6.223  48.504  1.00  0.00     0.000 A 
HETATM   28  C17 UNL     1      26.285   6.653  49.033  1.00  0.00     0.002 A 
HETATM   29  C18 UNL     1      25.489   5.705  49.619  1.00  0.00     0.031 A 
ENDBRANCH  22  24
ENDBRANCH  21  22
ENDBRANCH   1  21
TORSDOF 9
ENDMDL
MODEL 2
REMARK VINA RESULT:      -8.7      2.034      5.840
REMARK  9 active torsions:
REMARK  status: ('A' for Active; 'I' for Inactive)
REMARK    1  A    between atoms: O1_1  and  C1_2 
REMARK    2  A    between atoms: C4_5  and  C5_6 
REMARK    3  A    between atoms: C5_6  and  N1_7 
REMARK    4  A    between atoms: N1_7  and  C6_8 
REMARK    5  A    between atoms: N1_7  and  O3_17 
REMARK    6  A    between atoms: C6_8  and  C7_9 
REMARK    7  A    between atoms: C12_15  and  O2_16 
REMARK    8  A    between atoms: O3_17  and  N2_18 
REMARK    9  A    between atoms: N2_18  and  C13_19 
ROOT
HETATM    1  N1  UNL     1      25.671   1.998  52.008  1.00  0.00    -0.261 N 
ENDROOT
BRANCH   1   2
HETATM    2  C5  UNL     1      26.920   1.871  52.563  1.00  0.00     0.190 C 
BRANCH   2   3
HETATM    3  C4  UNL     1      27.529   0.558  52.807  1.00  0.00    -0.038 A 
HETATM    4  C3  UNL     1      28.689   0.090  53.368  1.00  0.00     0.011 A 
HETATM    5  C2  UNL     1      29.009  -1.223  53.516  1.00  0.00     0.037 A 
HETATM    6  C1  UNL     1      28.157  -2.209  53.095  1.00  0.00     0.065 A 
HETATM    7  C20 UNL     1      26.990  -1.813  52.529  1.00  0.00     0.037 A 
HETATM    8  C19 UNL     1      26.664  -0.473  52.378  1.00  0.00     0.011 A 
BRANCH   6   9
HETATM    9  O1  UNL     1      28.652  -3.480  53.329  1.00  0.00    -0.361 OA
HETATM   10  H1  UNL     1      29.180  -3.988  52.640  1.00  0.00     0.217 HD
ENDBRANCH   6   9
ENDBRANCH   2   3
ENDBRANCH   1   2
BRANCH   1  11
HETATM   11  C6  UNL     1      25.349   2.313  50.695  1.00  0.00     0.193 C 
BRANCH  11  12
HETATM   12  C7  UNL     1      25.651   3.627  50.173  1.00  0.00    -0.003 A 
HETATM   13  C8  UNL     1      26.742   3.751  49.307  1.00  0.00     0.012 A 
HETATM   14  C9  UNL     1      27.180   4.943  48.783  1.00  0.00     0.002 A 
HETATM   15  C10 UNL     1      26.569   6.134  49.073  1.00  0.00     0.026 A 
HETATM   16  C11 UNL     1      25.483   6.077  49.924  1.00  0.00     0.067 A 
HETATM   17 CL1  UNL     1      24.588   7.533  50.392  1.00  0.00    -0.081 Cl
HETATM   18  C12 UNL     1      25.069   4.876  50.429  1.00  0.00     0.095 A 
BRANCH  18  19
HETATM   19  O2  UNL     1      23.981   4.836  51.269  1.00  0.00    -0.358 OA
HETATM   20  H11 UNL     1      24.053   4.942  52.289  1.00  0.00     0.217 HD
ENDBRANCH  18  19
ENDBRANCH  11  12
ENDBRANCH   1  11
BRANCH   1  21
HETATM   21  O3  UNL     1      24.671   2.314  52.878  1.00  0.00    -0.159 OA
BRANCH  21  22
HETATM   22  N2  UNL     1      23.436   2.004  52.493  1.00  0.00    -0.242 N 
HETATM   23  H12 UNL     1      22.761   2.361  51.747  1.00  0.00     0.197 HD
BRANCH  22  24
HETATM   24  C13 UNL     1      22.773   0.936  53.187  1.00  0.00     0.056 A 
HETATM   25  C14 UNL     1      23.372  -0.154  53.820  1.00  0.00     0.031 A 
HETATM   26  C15 UNL     1      22.673  -1.139  54.468  1.00  0.00     0.002 A 
HETATM   27  C16 UNL     1      21.298  -1.095  54.522  1.00  0.00     0.000 A 
HETATM   28  C17 UNL     1      20.622  -0.059  53.926  1.00  0.00     0.002 A 
HETATM   29  C18 UNL     1      21.379   0.893  53.296  1.00  0.00     0.031 A 
ENDBRANCH  22  24
ENDBRANCH  21  22
ENDBRANCH   1  21
TORSDOF 9
ENDMDL
MODEL 3
REMARK VINA RESULT:      -8.2      2.376      5.527
REMARK  9 active torsions:
REMARK  status: ('A' for Active; 'I' for Inactive)
REMARK    1  A    between atoms: O1_1  and  C1_2 
REMARK    2  A    between atoms: C4_5  and  C5_6 
REMARK    3  A    between atoms: C5_6  and  N1_7 
REMARK    4  A    between atoms: N1_7  and  C6_8 
REMARK    5  A    between atoms: N1_7  and  O3_17 
REMARK    6  A    between atoms: C6_8  and  C7_9 
REMARK    7  A    between atoms: C12_15  and  O2_16 
REMARK    8  A    between atoms: O3_17  and  N2_18 
REMARK    9  A    between atoms: N2_18  and  C13_19 
ROOT
HETATM    1  N1  UNL     1      26.291   2.388  51.601  1.00  0.00    -0.261 N 
ENDROOT
BRANCH   1   2
HETATM    2  C5  UNL     1      27.236   1.881  52.458  1.00  0.00     0.190 C 
BRANCH   2   3
HETATM    3  C4  UNL     1      27.422   0.436  52.637  1.00  0.00    -0.038 A 
HETATM    4  C3  UNL     1      26.718  -0.700  52.334  1.00  0.00     0.011 A 
HETATM    5  C2  UNL     1      27.142  -1.969  52.579  1.00  0.00     0.037 A 
HETATM    6  C1  UNL     1      28.354  -2.205  53.171  1.00  0.00     0.065 A 
HETATM    7  C20 UNL     1      29.101  -1.123  53.498  1.00  0.00     0.037 A 
HETATM    8  C19 UNL     1      28.667   0.172  53.248  1.00  0.00     0.011 A 
BRANCH   6   9
HETATM    9  O1  UNL     1      28.613  -3.555  53.338  1.00  0.00    -0.361 OA
HETATM   10  H1  UNL     1      28.671  -4.192  52.562  1.00  0.00     0.217 HD
ENDBRANCH   6   9
ENDBRANCH   2   3
ENDBRANCH   1   2
BRANCH   1  11
HETATM   11  C6  UNL     1      26.403   2.595  50.233  1.00  0.00     0.193 C 
BRANCH  11  12
HETATM   12  C7  UNL     1      25.976   3.851  49.657  1.00  0.00    -0.003 A 
HETATM   13  C8  UNL     1      24.608   4.037  49.434  1.00  0.00     0.012 A 
HETATM   14  C9  UNL     1      24.066   5.152  48.842  1.00  0.00     0.002 A 
HETATM   15  C10 UNL     1      24.842   6.196  48.412  1.00  0.00     0.026 A 
HETATM   16  C11 UNL     1      26.203   6.072  48.604  1.00  0.00     0.067 A 
HETATM   17 CL1  UNL     1      27.334   7.340  48.101  1.00  0.00    -0.081 Cl
HETATM   18  C12 UNL     1      26.713   4.951  49.197  1.00  0.00     0.095 A 
BRANCH  18  19
HETATM   19  O2  UNL     1      28.070   4.847  49.389  1.00  0.00    -0.358 OA
HETATM   20  H11 UNL     1      28.628   4.055  49.045  1.00  0.00     0.217 HD
ENDBRANCH  18  19
ENDBRANCH  11  12
ENDBRANCH   1  11
BRANCH   1  21
HETATM   21  O3  UNL     1      25.351   3.194  52.173  1.00  0.00    -0.159 OA
BRANCH  21  22
HETATM   22  N2  UNL     1      24.635   2.655  53.156  1.00  0.00    -0.242 N 
HETATM   23  H12 UNL     1      24.612   2.750  54.219  1.00  0.00     0.197 HD
BRANCH  22  24
HETATM   24  C13 UNL     1      23.614   1.713  52.793  1.00  0.00     0.056 A 
HETATM   25  C14 UNL     1      23.455   0.415  53.281  1.00  0.00     0.031 A 
HETATM   26  C15 UNL     1      22.451  -0.430  52.889  1.00  0.00     0.002 A 
HETATM   27  C16 UNL     1      21.521  -0.021  51.960  1.00  0.00     0.000 A 
HETATM   28  C17 UNL     1      21.598   1.240  51.424  1.00  0.00     0.002 A 
HETATM   29  C18 UNL     1      22.625   2.036  51.857  1.00  0.00     0.031 A 
ENDBRANCH  22  24
ENDBRANCH  21  22
ENDBRANCH   1  21
TORSDOF 9
ENDMDL
MODEL 4
REMARK VINA RESULT:      -8.1      2.579      5.058
REMARK  9 active torsions:
REMARK  status: ('A' for Active; 'I' for Inactive)
REMARK    1  A    between atoms: O1_1  and  C1_2 
REMARK    2  A    between atoms: C4_5  and  C5_6 
REMARK    3  A    between atoms: C5_6  and  N1_7 
REMARK    4  A    between atoms: N1_7  and  C6_8 
REMARK    5  A    between atoms: N1_7  and  O3_17 
REMARK    6  A    between atoms: C6_8  and  C7_9 
REMARK    7  A    between atoms: C12_15  and  O2_16 
REMARK    8  A    between atoms: O3_17  and  N2_18 
REMARK    9  A    between atoms: N2_18  and  C13_19 
ROOT
HETATM    1  N1  UNL     1      24.696   2.239  51.788  1.00  0.00    -0.261 N 
ENDROOT
BRANCH   1   2
HETATM    2  C5  UNL     1      23.992   2.163  52.963  1.00  0.00     0.190 C 
BRANCH   2   3
HETATM    3  C4  UNL     1      23.098   1.037  53.260  1.00  0.00    -0.038 A 
HETATM    4  C3  UNL     1      23.239  -0.248  53.715  1.00  0.00     0.011 A 
HETATM    5  C2  UNL     1      22.213  -1.108  53.953  1.00  0.00     0.037 A 
HETATM    6  C1  UNL     1      20.913  -0.730  53.742  1.00  0.00     0.065 A 
HETATM    7  C20 UNL     1      20.704   0.531  53.290  1.00  0.00     0.037 A 
HETATM    8  C19 UNL     1      21.753   1.407  53.048  1.00  0.00     0.011 A 
BRANCH   6   9
HETATM    9  O1  UNL     1      20.009  -1.736  54.039  1.00  0.00    -0.361 OA
HETATM   10  H1  UNL     1      19.750  -2.441  53.371  1.00  0.00     0.217 HD
ENDBRANCH   6   9
ENDBRANCH   2   3
ENDBRANCH   1   2
BRANCH   1  11
HETATM   11  C6  UNL     1      25.610   1.326  51.280  1.00  0.00     0.193 C 
BRANCH  11  12
HETATM   12  C7  UNL     1      26.688   0.844  52.114  1.00  0.00    -0.003 A 
HETATM   13  C8  UNL     1      26.775  -0.533  52.340  1.00  0.00     0.012 A 
HETATM   14  C9  UNL     1      27.709  -1.125  53.155  1.00  0.00     0.002 A 
HETATM   15  C10 UNL     1      28.652  -0.395  53.829  1.00  0.00     0.026 A 
HETATM   16  C11 UNL     1      28.619   0.972  53.646  1.00  0.00     0.067 A 
HETATM   17 CL1  UNL     1      29.775   2.048  54.450  1.00  0.00    -0.081 Cl
HETATM   18  C12 UNL     1      27.679   1.533  52.828  1.00  0.00     0.095 A 
BRANCH  18  19
HETATM   19  O2  UNL     1      27.664   2.896  52.650  1.00  0.00    -0.358 OA
HETATM   20  H11 UNL     1      27.876   3.348  51.752  1.00  0.00     0.217 HD
ENDBRANCH  18  19
ENDBRANCH  11  12
ENDBRANCH   1  11
BRANCH   1  21
HETATM   21  O3  UNL     1      24.895   3.497  51.301  1.00  0.00    -0.159 OA
BRANCH  21  22
HETATM   22  N2  UNL     1      24.823   3.635  49.981  1.00  0.00    -0.242 N 
HETATM   23  H12 UNL     1      24.227   3.210  49.204  1.00  0.00     0.197 HD
BRANCH  22  24
HETATM   24  C13 UNL     1      25.720   4.570  49.362  1.00  0.00     0.056 A 
HETATM   25  C14 UNL     1      25.422   5.864  48.933  1.00  0.00     0.031 A 
HETATM   26  C15 UNL     1      26.335   6.704  48.350  1.00  0.00     0.002 A 
HETATM   27  C16 UNL     1      27.633   6.292  48.155  1.00  0.00     0.000 A 
HETATM   28  C17 UNL     1      28.019   5.034  48.547  1.00  0.00     0.002 A 
HETATM   29  C18 UNL     1      27.060   4.244  49.123  1.00  0.00     0.031 A 
ENDBRANCH  22  24
ENDBRANCH  21  22
ENDBRANCH   1  21
TORSDOF 9
ENDMDL
MODEL 5
REMARK VINA RESULT:      -8.0      2.681      6.536
REMARK  9 active torsions:
REMARK  status: ('A' for Active; 'I' for Inactive)
REMARK    1  A    between atoms: O1_1  and  C1_2 
REMARK    2  A    between atoms: C4_5  and  C5_6 
REMARK    3  A    between atoms: C5_6  and  N1_7 
REMARK    4  A    between atoms: N1_7  and  C6_8 
REMARK    5  A    between atoms: N1_7  and  O3_17 
REMARK    6  A    between atoms: C6_8  and  C7_9 
REMARK    7  A    between atoms: C12_15  and  O2_16 
REMARK    8  A    between atoms: O3_17  and  N2_18 
REMARK    9  A    between atoms: N2_18  and  C13_19 
ROOT
HETATM    1  N1  UNL     1      24.551   1.342  53.384  1.00  0.00    -0.261 N 
ENDROOT
BRANCH   1   2
HETATM    2  C5  UNL     1      23.895   0.411  52.619  1.00  0.00     0.190 C 
BRANCH   2   3
HETATM    3  C4  UNL     1      22.620  -0.182  53.044  1.00  0.00    -0.038 A 
HETATM    4  C3  UNL     1      22.223  -1.153  53.925  1.00  0.00     0.011 A 
HETATM    5  C2  UNL     1      20.932  -1.499  54.175  1.00  0.00     0.037 A 
HETATM    6  C1  UNL     1      19.897  -0.871  53.533  1.00  0.00     0.065 A 
HETATM    7  C20 UNL     1      20.222   0.101  52.646  1.00  0.00     0.037 A 
HETATM    8  C19 UNL     1      21.541   0.453  52.392  1.00  0.00     0.011 A 
BRANCH   6   9
HETATM    9  O1  UNL     1      18.658  -1.355  53.916  1.00  0.00    -0.361 OA
HETATM   10  H1  UNL     1      18.411  -1.498  54.881  1.00  0.00     0.217 HD
ENDBRANCH   6   9
ENDBRANCH   2   3
ENDBRANCH   1   2
BRANCH   1  11
HETATM   11  C6  UNL     1      24.612   2.715  53.192  1.00  0.00     0.193 C 
BRANCH  11  12
HETATM   12  C7  UNL     1      24.676   3.254  51.852  1.00  0.00    -0.003 A 
HETATM   13  C8  UNL     1      23.472   3.568  51.215  1.00  0.00     0.012 A 
HETATM   14  C9  UNL     1      23.377   4.031  49.924  1.00  0.00     0.002 A 
HETATM   15  C10 UNL     1      24.483   4.226  49.140  1.00  0.00     0.026 A 
HETATM   16  C11 UNL     1      25.704   3.934  49.713  1.00  0.00     0.067 A 
HETATM   17 CL1  UNL     1      27.224   4.136  48.823  1.00  0.00    -0.081 Cl
HETATM   18  C12 UNL     1      25.767   3.476  50.999  1.00  0.00     0.095 A 
BRANCH  18  19
HETATM   19  O2  UNL     1      26.991   3.197  51.558  1.00  0.00    -0.358 OA
HETATM   20  H11 UNL     1      27.349   2.241  51.682  1.00  0.00     0.217 HD
ENDBRANCH  18  19
ENDBRANCH  11  12
ENDBRANCH   1  11
BRANCH   1  21
HETATM   21  O3  UNL     1      25.610   0.871  54.102  1.00  0.00    -0.159 OA
BRANCH  21  22
HETATM   22  N2  UNL     1      26.811   1.030  53.553  1.00  0.00    -0.242 N 
HETATM   23  H12 UNL     1      27.365   1.856  53.165  1.00  0.00     0.197 HD
BRANCH  22  24
HETATM   24  C13 UNL     1      27.637  -0.136  53.416  1.00  0.00     0.056 A 
HETATM   25  C14 UNL     1      27.243  -1.397  52.966  1.00  0.00     0.031 A 
HETATM   26  C15 UNL     1      28.092  -2.468  52.858  1.00  0.00     0.002 A 
HETATM   27  C16 UNL     1      29.419  -2.341  53.202  1.00  0.00     0.000 A 
HETATM   28  C17 UNL     1      29.896  -1.136  53.655  1.00  0.00     0.002 A 
HETATM   29  C18 UNL     1      28.998  -0.106  53.740  1.00  0.00     0.031 A 
ENDBRANCH  22  24
ENDBRANCH  21  22
ENDBRANCH   1  21
TORSDOF 9
ENDMDL
MODEL 6
REMARK VINA RESULT:      -8.0      2.713      6.198
REMARK  9 active torsions:
REMARK  status: ('A' for Active; 'I' for Inactive)
REMARK    1  A    between atoms: O1_1  and  C1_2 
REMARK    2  A    between atoms: C4_5  and  C5_6 
REMARK    3  A    between atoms: C5_6  and  N1_7 
REMARK    4  A    between atoms: N1_7  and  C6_8 
REMARK    5  A    between atoms: N1_7  and  O3_17 
REMARK    6  A    between atoms: C6_8  and  C7_9 
REMARK    7  A    between atoms: C12_15  and  O2_16 
REMARK    8  A    between atoms: O3_17  and  N2_18 
REMARK    9  A    between atoms: N2_18  and  C13_19 
ROOT
HETATM    1  N1  UNL     1      25.818   3.097  50.663  1.00  0.00    -0.261 N 
ENDROOT
BRANCH   1   2
HETATM    2  C5  UNL     1      26.819   2.499  51.387  1.00  0.00     0.190 C 
BRANCH   2   3
HETATM    3  C4  UNL     1      26.531   1.622  52.529  1.00  0.00    -0.038 A 
HETATM    4  C3  UNL     1      26.540   1.737  53.895  1.00  0.00     0.011 A 
HETATM    5  C2  UNL     1      26.178   0.754  54.762  1.00  0.00     0.037 A 
HETATM    6  C1  UNL     1      25.764  -0.470  54.307  1.00  0.00     0.065 A 
HETATM    7  C20 UNL     1      25.733  -0.650  52.964  1.00  0.00     0.037 A 
HETATM    8  C19 UNL     1      26.102   0.354  52.080  1.00  0.00     0.011 A 
BRANCH   6   9
HETATM    9  O1  UNL     1      25.437  -1.339  55.334  1.00  0.00    -0.361 OA
HETATM   10  H1  UNL     1      26.130  -1.739  55.942  1.00  0.00     0.217 HD
ENDBRANCH   6   9
ENDBRANCH   2   3
ENDBRANCH   1   2
BRANCH   1  11
HETATM   11  C6  UNL     1      25.879   3.588  49.366  1.00  0.00     0.193 C 
BRANCH  11  12
HETATM   12  C7  UNL     1      26.457   4.889  49.114  1.00  0.00    -0.003 A 
HETATM   13  C8  UNL     1      27.731   4.938  48.539  1.00  0.00     0.012 A 
HETATM   14  C9  UNL     1      28.426   6.098  48.297  1.00  0.00     0.002 A 
HETATM   15  C10 UNL     1      27.914   7.330  48.607  1.00  0.00     0.026 A 
HETATM   16  C11 UNL     1      26.657   7.348  49.178  1.00  0.00     0.067 A 
HETATM   17 CL1  UNL     1      25.862   8.866  49.633  1.00  0.00    -0.081 Cl
HETATM   18  C12 UNL     1      25.989   6.178  49.405  1.00  0.00     0.095 A 
BRANCH  18  19
HETATM   19  O2  UNL     1      24.735   6.214  49.967  1.00  0.00    -0.358 OA
HETATM   20  H11 UNL     1      24.074   5.428  49.919  1.00  0.00     0.217 HD
ENDBRANCH  18  19
ENDBRANCH  11  12
ENDBRANCH   1  11
BRANCH   1  21
HETATM   21  O3  UNL     1      24.838   3.694  51.399  1.00  0.00    -0.159 OA
BRANCH  21  22
HETATM   22  N2  UNL     1      23.588   3.473  51.003  1.00  0.00    -0.242 N 
HETATM   23  H12 UNL     1      22.898   3.966  50.354  1.00  0.00     0.197 HD
BRANCH  22  24
HETATM   24  C13 UNL     1      22.928   2.304  51.513  1.00  0.00     0.056 A 
HETATM   25  C14 UNL     1      22.901   1.865  52.837  1.00  0.00     0.031 A 
HETATM   26  C15 UNL     1      22.245   0.736  53.253  1.00  0.00     0.002 A 
HETATM   27  C16 UNL     1      21.559  -0.043  52.349  1.00  0.00     0.000 A 
HETATM   28  C17 UNL     1      21.531   0.311  51.023  1.00  0.00     0.002 A 
HETATM   29  C18 UNL     1      22.205   1.450  50.672  1.00  0.00     0.031 A 
ENDBRANCH  22  24
ENDBRANCH  21  22
ENDBRANCH   1  21
TORSDOF 9
ENDMDL
MODEL 7
REMARK VINA RESULT:      -8.0      1.669      1.971
REMARK  9 active torsions:
REMARK  status: ('A' for Active; 'I' for Inactive)
REMARK    1  A    between atoms: O1_1  and  C1_2 
REMARK    2  A    between atoms: C4_5  and  C5_6 
REMARK    3  A    between atoms: C5_6  and  N1_7 
REMARK    4  A    between atoms: N1_7  and  C6_8 
REMARK    5  A    between atoms: N1_7  and  O3_17 
REMARK    6  A    between atoms: C6_8  and  C7_9 
REMARK    7  A    between atoms: C12_15  and  O2_16 
REMARK    8  A    between atoms: O3_17  and  N2_18 
REMARK    9  A    between atoms: N2_18  and  C13_19 
ROOT
HETATM    1  N1  UNL     1      24.113   2.197  52.872  1.00  0.00    -0.261 N 
ENDROOT
BRANCH   1   2
HETATM    2  C5  UNL     1      25.212   2.637  53.567  1.00  0.00     0.190 C 
BRANCH   2   3
HETATM    3  C4  UNL     1      26.344   1.750  53.867  1.00  0.00    -0.038 A 
HETATM    4  C3  UNL     1      26.552   0.630  54.628  1.00  0.00     0.011 A 
HETATM    5  C2  UNL     1      27.725  -0.052  54.707  1.00  0.00     0.037 A 
HETATM    6  C1  UNL     1      28.826   0.355  54.002  1.00  0.00     0.065 A 
HETATM    7  C20 UNL     1      28.688   1.460  53.228  1.00  0.00     0.037 A 
HETATM    8  C19 UNL     1      27.489   2.155  53.149  1.00  0.00     0.011 A 
BRANCH   6   9
HETATM    9  O1  UNL     1      29.926  -0.461  54.207  1.00  0.00    -0.361 OA
HETATM   10  H1  UNL     1      30.070  -1.311  53.689  1.00  0.00     0.217 HD
ENDBRANCH   6   9
ENDBRANCH   2   3
ENDBRANCH   1   2
BRANCH   1  11
HETATM   11  C6  UNL     1      23.823   0.903  52.463  1.00  0.00     0.193 C 
BRANCH  11  12
HETATM   12  C7  UNL     1      22.641   0.237  52.962  1.00  0.00    -0.003 A 
HETATM   13  C8  UNL     1      22.806  -0.717  53.972  1.00  0.00     0.012 A 
HETATM   14  C9  UNL     1      21.784  -1.468  54.500  1.00  0.00     0.002 A 
HETATM   15  C10 UNL     1      20.490  -1.340  54.068  1.00  0.00     0.026 A 
HETATM   16  C11 UNL     1      20.263  -0.413  53.071  1.00  0.00     0.067 A 
HETATM   17 CL1  UNL     1      18.642  -0.134  52.411  1.00  0.00    -0.081 Cl
HETATM   18  C12 UNL     1      21.299   0.321  52.566  1.00  0.00     0.095 A 
BRANCH  18  19
HETATM   19  O2  UNL     1      21.055   1.246  51.579  1.00  0.00    -0.358 OA
HETATM   20  H11 UNL     1      21.746   1.944  51.279  1.00  0.00     0.217 HD
ENDBRANCH  18  19
ENDBRANCH  11  12
ENDBRANCH   1  11
BRANCH   1  21
HETATM   21  O3  UNL     1      23.489   3.136  52.105  1.00  0.00    -0.159 OA
BRANCH  21  22
HETATM   22  N2  UNL     1      23.610   2.995  50.788  1.00  0.00    -0.242 N 
HETATM   23  H12 UNL     1      23.079   2.465  50.030  1.00  0.00     0.197 HD
BRANCH  22  24
HETATM   24  C13 UNL     1      24.682   3.699  50.142  1.00  0.00     0.056 A 
HETATM   25  C14 UNL     1      25.984   3.242  49.937  1.00  0.00     0.031 A 
HETATM   26  C15 UNL     1      26.958   3.972  49.306  1.00  0.00     0.002 A 
HETATM   27  C16 UNL     1      26.684   5.234  48.831  1.00  0.00     0.000 A 
HETATM   28  C17 UNL     1      25.428   5.767  48.988  1.00  0.00     0.002 A 
HETATM   29  C18 UNL     1      24.500   4.987  49.626  1.00  0.00     0.031 A 
ENDBRANCH  22  24
ENDBRANCH  21  22
ENDBRANCH   1  21
TORSDOF 9
ENDMDL
MODEL 8
REMARK VINA RESULT:      -7.9      2.796      6.490
REMARK  9 active torsions:
REMARK  status: ('A' for Active; 'I' for Inactive)
REMARK    1  A    between atoms: O1_1  and  C1_2 
REMARK    2  A    between atoms: C4_5  and  C5_6 
REMARK    3  A    between atoms: C5_6  and  N1_7 
REMARK    4  A    between atoms: N1_7  and  C6_8 
REMARK    5  A    between atoms: N1_7  and  O3_17 
REMARK    6  A    between atoms: C6_8  and  C7_9 
REMARK    7  A    between atoms: C12_15  and  O2_16 
REMARK    8  A    between atoms: O3_17  and  N2_18 
REMARK    9  A    between atoms: N2_18  and  C13_19 
ROOT
HETATM    1  N1  UNL     1      24.305   2.957  51.560  1.00  0.00    -0.261 N 
ENDROOT
BRANCH   1   2
HETATM    2  C5  UNL     1      23.015   2.633  51.899  1.00  0.00     0.190 C 
BRANCH   2   3
HETATM    3  C4  UNL     1      22.699   1.425  52.671  1.00  0.00    -0.038 A 
HETATM    4  C3  UNL     1      23.381   0.319  53.108  1.00  0.00     0.011 A 
HETATM    5  C2  UNL     1      22.851  -0.674  53.870  1.00  0.00     0.037 A 
HETATM    6  C1  UNL     1      21.541  -0.633  54.269  1.00  0.00     0.065 A 
HETATM    7  C20 UNL     1      20.808   0.435  53.870  1.00  0.00     0.037 A 
HETATM    8  C19 UNL     1      21.352   1.448  53.092  1.00  0.00     0.011 A 
BRANCH   6   9
HETATM    9  O1  UNL     1      21.182  -1.728  55.038  1.00  0.00    -0.361 OA
HETATM   10  H1  UNL     1      21.076  -2.648  54.647  1.00  0.00     0.217 HD
ENDBRANCH   6   9
ENDBRANCH   2   3
ENDBRANCH   1   2
BRANCH   1  11
HETATM   11  C6  UNL     1      24.875   2.978  50.294  1.00  0.00     0.193 C 
BRANCH  11  12
HETATM   12  C7  UNL     1      25.127   4.241  49.637  1.00  0.00    -0.003 A 
HETATM   13  C8  UNL     1      24.027   4.963  49.164  1.00  0.00     0.012 A 
HETATM   14  C9  UNL     1      24.119   6.146  48.472  1.00  0.00     0.002 A 
HETATM   15  C10 UNL     1      25.325   6.727  48.182  1.00  0.00     0.026 A 
HETATM   16  C11 UNL     1      26.451   6.061  48.623  1.00  0.00     0.067 A 
HETATM   17 CL1  UNL     1      28.081   6.689  48.325  1.00  0.00    -0.081 Cl
HETATM   18  C12 UNL     1      26.328   4.887  49.311  1.00  0.00     0.095 A 
BRANCH  18  19
HETATM   19  O2  UNL     1      27.459   4.240  49.751  1.00  0.00    -0.358 OA
HETATM   20  H11 UNL     1      27.517   3.765  50.661  1.00  0.00     0.217 HD
ENDBRANCH  18  19
ENDBRANCH  11  12
ENDBRANCH   1  11
BRANCH   1  21
HETATM   21  O3  UNL     1      25.232   2.786  52.544  1.00  0.00    -0.159 OA
BRANCH  21  22
HETATM   22  N2  UNL     1      26.495   2.657  52.147  1.00  0.00    -0.242 N 
HETATM   23  H12 UNL     1      27.143   3.194  51.490  1.00  0.00     0.197 HD
BRANCH  22  24
HETATM   24  C13 UNL     1      27.252   1.564  52.689  1.00  0.00     0.056 A 
HETATM   25  C14 UNL     1      27.030   0.203  52.480  1.00  0.00     0.031 A 
HETATM   26  C15 UNL     1      27.799  -0.789  53.030  1.00  0.00     0.002 A 
HETATM   27  C16 UNL     1      28.864  -0.473  53.843  1.00  0.00     0.000 A 
HETATM   28  C17 UNL     1      29.159   0.842  54.105  1.00  0.00     0.002 A 
HETATM   29  C18 UNL     1      28.353   1.785  53.525  1.00  0.00     0.031 A 
ENDBRANCH  22  24
ENDBRANCH  21  22
ENDBRANCH   1  21
TORSDOF 9
ENDMDL
MODEL 9
REMARK VINA RESULT:      -7.9      3.256      6.236
REMARK  9 active torsions:
REMARK  status: ('A' for Active; 'I' for Inactive)
REMARK    1  A    between atoms: O1_1  and  C1_2 
REMARK    2  A    between atoms: C4_5  and  C5_6 
REMARK    3  A    between atoms: C5_6  and  N1_7 
REMARK    4  A    between atoms: N1_7  and  C6_8 
REMARK    5  A    between atoms: N1_7  and  O3_17 
REMARK    6  A    between atoms: C6_8  and  C7_9 
REMARK    7  A    between atoms: C12_15  and  O2_16 
REMARK    8  A    between atoms: O3_17  and  N2_18 
REMARK    9  A    between atoms: N2_18  and  C13_19 
ROOT
HETATM    1  N1  UNL     1      23.822   3.213  51.631  1.00  0.00    -0.261 N 
ENDROOT
BRANCH   1   2
HETATM    2  C5  UNL     1      22.937   2.228  51.268  1.00  0.00     0.190 C 
BRANCH   2   3
HETATM    3  C4  UNL     1      22.301   1.356  52.262  1.00  0.00    -0.038 A 
HETATM    4  C3  UNL     1      21.093   1.303  52.908  1.00  0.00     0.011 A 
HETATM    5  C2  UNL     1      20.719   0.334  53.785  1.00  0.00     0.037 A 
HETATM    6  C1  UNL     1      21.563  -0.699  54.097  1.00  0.00     0.065 A 
HETATM    7  C20 UNL     1      22.777  -0.706  53.493  1.00  0.00     0.037 A 
HETATM    8  C19 UNL     1      23.157   0.284  52.597  1.00  0.00     0.011 A 
BRANCH   6   9
HETATM    9  O1  UNL     1      21.011  -1.586  55.005  1.00  0.00    -0.361 OA
HETATM   10  H1  UNL     1      21.445  -1.793  55.888  1.00  0.00     0.217 HD
ENDBRANCH   6   9
ENDBRANCH   2   3
ENDBRANCH   1   2
BRANCH   1  11
HETATM   11  C6  UNL     1      23.554   4.394  52.308  1.00  0.00     0.193 C 
BRANCH  11  12
HETATM   12  C7  UNL     1      23.244   5.596  51.567  1.00  0.00    -0.003 A 
HETATM   13  C8  UNL     1      21.897   5.931  51.398  1.00  0.00     0.012 A 
HETATM   14  C9  UNL     1      21.454   7.009  50.670  1.00  0.00     0.002 A 
HETATM   15  C10 UNL     1      22.318   7.862  50.036  1.00  0.00     0.026 A 
HETATM   16  C11 UNL     1      23.664   7.584  50.166  1.00  0.00     0.067 A 
HETATM   17 CL1  UNL     1      24.902   8.598  49.403  1.00  0.00    -0.081 Cl
HETATM   18  C12 UNL     1      24.074   6.506  50.897  1.00  0.00     0.095 A 
BRANCH  18  19
HETATM   19  O2  UNL     1      25.419   6.248  51.024  1.00  0.00    -0.358 OA
HETATM   20  H11 UNL     1      26.149   6.913  50.737  1.00  0.00     0.217 HD
ENDBRANCH  18  19
ENDBRANCH  11  12
ENDBRANCH   1  11
BRANCH   1  21
HETATM   21  O3  UNL     1      24.953   3.294  50.874  1.00  0.00    -0.159 OA
BRANCH  21  22
HETATM   22  N2  UNL     1      26.107   3.212  51.530  1.00  0.00    -0.242 N 
HETATM   23  H12 UNL     1      26.966   3.836  51.635  1.00  0.00     0.197 HD
BRANCH  22  24
HETATM   24  C13 UNL     1      26.337   2.037  52.323  1.00  0.00     0.056 A 
HETATM   25  C14 UNL     1      26.300   1.942  53.715  1.00  0.00     0.031 A 
HETATM   26  C15 UNL     1      26.528   0.781  54.406  1.00  0.00     0.002 A 
HETATM   27  C16 UNL     1      26.815  -0.384  53.733  1.00  0.00     0.000 A 
HETATM   28  C17 UNL     1      26.872  -0.386  52.361  1.00  0.00     0.002 A 
HETATM   29  C18 UNL     1      26.635   0.805  51.730  1.00  0.00     0.031 A 
ENDBRANCH  22  24
ENDBRANCH  21  22
ENDBRANCH   1  21
TORSDOF 9
ENDMDL
