MODEL 1
REMARK VINA RESULT:      -8.5      0.000      0.000
REMARK  2 active torsions:
REMARK  status: ('A' for Active; 'I' for Inactive)
REMARK    1  A    between atoms: C9_13  and  N5_14 
REMARK    2  A    between atoms: N5_14  and  C10_15 
ROOT
HETATM    1  C1  UNL     1      20.941   0.038  53.202  1.00  0.00     0.041 C 
HETATM    2  C2  UNL     1      21.505   1.236  52.421  1.00  0.00     0.061 C 
HETATM    3  C3  UNL     1      20.428   2.275  52.465  1.00  0.00     0.063 C 
HETATM    4  C4  UNL     1      19.391   1.645  51.525  1.00  0.00     0.273 C 
HETATM    5  N1  UNL     1      20.070   0.587  50.810  1.00  0.00     0.094 N 
HETATM    6  C5  UNL     1      21.509   0.839  51.007  1.00  0.00     0.272 C 
HETATM    7  C6  UNL     1      21.858   1.873  50.020  1.00  0.00     0.030 C 
HETATM    8  C7  UNL     1      22.925   2.629  49.735  1.00  0.00     0.117 C 
HETATM    9  N2  UNL     1      24.206   2.678  50.373  1.00  0.00    -0.239 N 
HETATM   10  N3  UNL     1      25.119   3.145  49.428  1.00  0.00    -0.161 NA
HETATM   11  C8  UNL     1      26.359   3.255  49.834  1.00  0.00     0.258 A 
HETATM   12  N4  UNL     1      26.851   2.939  51.156  1.00  0.00    -0.220 NA
HETATM   13  C9  UNL     1      26.059   2.502  52.080  1.00  0.00     0.160 A 
HETATM   14  C16 UNL     1      24.667   2.362  51.680  1.00  0.00     0.118 A 
HETATM   15  C17 UNL     1      24.098   1.919  52.786  1.00  0.00     0.119 C 
HETATM   16  N6  UNL     1      22.734   1.583  53.057  1.00  0.00    -0.385 N 
HETATM   17  H8  UNL     1      19.785  -0.365  51.050  1.00  0.00     0.316 HD
HETATM   18  H19 UNL     1      22.529   1.585  54.104  1.00  0.00     0.159 HD
ENDROOT
BRANCH  13  19
HETATM   19  N5  UNL     1      26.591   2.195  53.383  1.00  0.00    -0.339 N 
HETATM   20  H13 UNL     1      26.105   2.776  54.143  1.00  0.00     0.167 HD
BRANCH  19  21
HETATM   21  C10 UNL     1      27.632   1.180  53.413  1.00  0.00     0.035 A 
HETATM   22  C11 UNL     1      28.947   1.438  53.746  1.00  0.00     0.029 A 
HETATM   23  C12 UNL     1      29.845   0.376  53.736  1.00  0.00     0.004 A 
HETATM   24  C13 UNL     1      29.361  -0.866  53.392  1.00  0.00     0.024 A 
HETATM   25  C14 UNL     1      28.047  -1.133  53.055  1.00  0.00     0.036 A 
HETATM   26 CL1  UNL     1      27.528  -2.750  52.631  1.00  0.00    -0.084 Cl
HETATM   27  C15 UNL     1      27.165  -0.066  53.071  1.00  0.00     0.053 A 
ENDBRANCH  19  21
ENDBRANCH  13  19
TORSDOF 2
ENDMDL
MODEL 2
REMARK VINA RESULT:      -8.0      2.333      3.784
REMARK  2 active torsions:
REMARK  status: ('A' for Active; 'I' for Inactive)
REMARK    1  A    between atoms: C9_13  and  N5_14 
REMARK    2  A    between atoms: N5_14  and  C10_15 
ROOT
HETATM    1  C1  UNL     1      20.956   2.837  50.613  1.00  0.00     0.041 C 
HETATM    2  C2  UNL     1      21.059   1.506  51.376  1.00  0.00     0.061 C 
HETATM    3  C3  UNL     1      20.047   0.607  50.735  1.00  0.00     0.063 C 
HETATM    4  C4  UNL     1      18.745   1.248  51.234  1.00  0.00     0.273 C 
HETATM    5  N1  UNL     1      19.110   2.140  52.313  1.00  0.00     0.094 N 
HETATM    6  C5  UNL     1      20.477   1.747  52.703  1.00  0.00     0.272 C 
HETATM    7  C6  UNL     1      20.306   0.582  53.584  1.00  0.00     0.030 C 
HETATM    8  C7  UNL     1      21.101  -0.317  54.177  1.00  0.00     0.117 C 
HETATM    9  N2  UNL     1      22.526  -0.444  54.135  1.00  0.00    -0.239 N 
HETATM   10  N3  UNL     1      22.915  -1.110  55.297  1.00  0.00    -0.161 NA
HETATM   11  C8  UNL     1      24.201  -1.317  55.436  1.00  0.00     0.258 A 
HETATM   12  N4  UNL     1      25.231  -0.920  54.504  1.00  0.00    -0.220 NA
HETATM   13  C9  UNL     1      24.941  -0.300  53.407  1.00  0.00     0.160 A 
HETATM   14  C16 UNL     1      23.523  -0.046  53.202  1.00  0.00     0.118 A 
HETATM   15  C17 UNL     1      23.512   0.574  52.037  1.00  0.00     0.119 C 
HETATM   16  N6  UNL     1      22.419   1.090  51.271  1.00  0.00    -0.385 N 
HETATM   17  H8  UNL     1      19.012   3.138  52.116  1.00  0.00     0.316 HD
HETATM   18  H19 UNL     1      22.685   1.223  50.246  1.00  0.00     0.159 HD
ENDROOT
BRANCH  13  19
HETATM   19  N5  UNL     1      25.999   0.080  52.506  1.00  0.00    -0.339 N 
HETATM   20  H13 UNL     1      25.602   0.500  51.602  1.00  0.00     0.167 HD
BRANCH  19  21
HETATM   21  C10 UNL     1      27.349  -0.154  52.991  1.00  0.00     0.035 A 
HETATM   22  C11 UNL     1      27.997  -1.370  52.903  1.00  0.00     0.029 A 
HETATM   23  C12 UNL     1      29.291  -1.460  53.406  1.00  0.00     0.004 A 
HETATM   24  C13 UNL     1      29.841  -0.326  53.960  1.00  0.00     0.024 A 
HETATM   25  C14 UNL     1      29.199   0.895  54.053  1.00  0.00     0.036 A 
HETATM   26 CL1  UNL     1      29.986   2.281  54.778  1.00  0.00    -0.084 Cl
HETATM   27  C15 UNL     1      27.913   0.969  53.548  1.00  0.00     0.053 A 
ENDBRANCH  19  21
ENDBRANCH  13  19
TORSDOF 2
ENDMDL
MODEL 3
REMARK VINA RESULT:      -7.8      3.191      5.666
REMARK  2 active torsions:
REMARK  status: ('A' for Active; 'I' for Inactive)
REMARK    1  A    between atoms: C9_13  and  N5_14 
REMARK    2  A    between atoms: N5_14  and  C10_15 
ROOT
HETATM    1  C1  UNL     1      27.998   7.340  48.560  1.00  0.00     0.041 C 
HETATM    2  C2  UNL     1      26.548   6.951  48.889  1.00  0.00     0.061 C 
HETATM    3  C3  UNL     1      25.729   7.506  47.765  1.00  0.00     0.063 C 
HETATM    4  C4  UNL     1      25.813   9.008  48.070  1.00  0.00     0.273 C 
HETATM    5  N1  UNL     1      26.313   9.128  49.422  1.00  0.00     0.094 N 
HETATM    6  C5  UNL     1      26.145   7.793  50.024  1.00  0.00     0.272 C 
HETATM    7  C6  UNL     1      24.735   7.732  50.439  1.00  0.00     0.030 C 
HETATM    8  C7  UNL     1      23.901   6.805  50.924  1.00  0.00     0.117 C 
HETATM    9  N2  UNL     1      24.143   5.426  51.226  1.00  0.00    -0.239 N 
HETATM   10  N3  UNL     1      23.215   5.047  52.195  1.00  0.00    -0.161 NA
HETATM   11  C8  UNL     1      23.286   3.804  52.601  1.00  0.00     0.258 A 
HETATM   12  N4  UNL     1      24.228   2.811  52.137  1.00  0.00    -0.220 NA
HETATM   13  C9  UNL     1      25.115   3.094  51.240  1.00  0.00     0.160 A 
HETATM   14  C16 UNL     1      25.079   4.465  50.753  1.00  0.00     0.118 A 
HETATM   15  C17 UNL     1      26.056   4.476  49.866  1.00  0.00     0.119 C 
HETATM   16  N6  UNL     1      26.538   5.532  49.029  1.00  0.00    -0.385 N 
HETATM   17  H8  UNL     1      27.260   9.502  49.513  1.00  0.00     0.316 HD
HETATM   18  H19 UNL     1      27.092   5.155  48.200  1.00  0.00     0.159 HD
ENDROOT
BRANCH  13  19
HETATM   19  N5  UNL     1      26.037   2.076  50.807  1.00  0.00    -0.339 N 
HETATM   20  H13 UNL     1      26.015   1.965  49.741  1.00  0.00     0.167 HD
BRANCH  19  21
HETATM   21  C10 UNL     1      26.804   1.435  51.864  1.00  0.00     0.035 A 
HETATM   22  C11 UNL     1      27.553   2.125  52.797  1.00  0.00     0.029 A 
HETATM   23  C12 UNL     1      28.241   1.391  53.757  1.00  0.00     0.004 A 
HETATM   24  C13 UNL     1      28.128   0.019  53.713  1.00  0.00     0.024 A 
HETATM   25  C14 UNL     1      27.383  -0.680  52.782  1.00  0.00     0.036 A 
HETATM   26 CL1  UNL     1      27.304  -2.428  52.809  1.00  0.00    -0.084 Cl
HETATM   27  C15 UNL     1      26.704   0.065  51.834  1.00  0.00     0.053 A 
ENDBRANCH  19  21
ENDBRANCH  13  19
TORSDOF 2
ENDMDL
MODEL 4
REMARK VINA RESULT:      -7.7      2.365      4.108
REMARK  2 active torsions:
REMARK  status: ('A' for Active; 'I' for Inactive)
REMARK    1  A    between atoms: C9_13  and  N5_14 
REMARK    2  A    between atoms: N5_14  and  C10_15 
ROOT
HETATM    1  C1  UNL     1      25.228   6.533  50.150  1.00  0.00     0.041 C 
HETATM    2  C2  UNL     1      24.175   5.426  50.327  1.00  0.00     0.061 C 
HETATM    3  C3  UNL     1      23.181   5.653  49.230  1.00  0.00     0.063 C 
HETATM    4  C4  UNL     1      22.496   6.932  49.732  1.00  0.00     0.273 C 
HETATM    5  N1  UNL     1      22.875   7.087  51.119  1.00  0.00     0.094 N 
HETATM    6  C5  UNL     1      23.410   5.777  51.531  1.00  0.00     0.272 C 
HETATM    7  C6  UNL     1      22.227   4.957  51.837  1.00  0.00     0.030 C 
HETATM    8  C7  UNL     1      21.980   3.678  52.141  1.00  0.00     0.117 C 
HETATM    9  N2  UNL     1      22.888   2.579  52.277  1.00  0.00    -0.239 N 
HETATM   10  N3  UNL     1      22.287   1.649  53.125  1.00  0.00    -0.161 NA
HETATM   11  C8  UNL     1      22.979   0.566  53.370  1.00  0.00     0.258 A 
HETATM   12  N4  UNL     1      24.291   0.258  52.847  1.00  0.00    -0.220 NA
HETATM   13  C9  UNL     1      24.906   1.075  52.056  1.00  0.00     0.160 A 
HETATM   14  C16 UNL     1      24.178   2.298  51.749  1.00  0.00     0.118 A 
HETATM   15  C17 UNL     1      25.010   2.926  50.940  1.00  0.00     0.119 C 
HETATM   16  N6  UNL     1      24.885   4.190  50.280  1.00  0.00    -0.385 N 
HETATM   17  H8  UNL     1      23.503   7.868  51.322  1.00  0.00     0.316 HD
HETATM   18  H19 UNL     1      25.549   4.268  49.449  1.00  0.00     0.159 HD
ENDROOT
BRANCH  13  19
HETATM   19  N5  UNL     1      26.214   0.732  51.560  1.00  0.00    -0.339 N 
HETATM   20  H13 UNL     1      26.160   0.374  50.550  1.00  0.00     0.167 HD
BRANCH  19  21
HETATM   21  C10 UNL     1      27.313   0.951  52.486  1.00  0.00     0.035 A 
HETATM   22  C11 UNL     1      27.627   2.180  53.030  1.00  0.00     0.029 A 
HETATM   23  C12 UNL     1      28.706   2.253  53.906  1.00  0.00     0.004 A 
HETATM   24  C13 UNL     1      29.391   1.089  54.172  1.00  0.00     0.024 A 
HETATM   25  C14 UNL     1      29.085  -0.146  53.631  1.00  0.00     0.036 A 
HETATM   26 CL1  UNL     1      30.019  -1.571  54.033  1.00  0.00    -0.084 Cl
HETATM   27  C15 UNL     1      28.009  -0.202  52.762  1.00  0.00     0.053 A 
ENDBRANCH  19  21
ENDBRANCH  13  19
TORSDOF 2
ENDMDL
MODEL 5
REMARK VINA RESULT:      -7.6      3.095      6.838
REMARK  2 active torsions:
REMARK  status: ('A' for Active; 'I' for Inactive)
REMARK    1  A    between atoms: C9_13  and  N5_14 
REMARK    2  A    between atoms: N5_14  and  C10_15 
ROOT
HETATM    1  C1  UNL     1      28.698   2.116  53.399  1.00  0.00     0.041 C 
HETATM    2  C2  UNL     1      27.339   1.466  53.707  1.00  0.00     0.061 C 
HETATM    3  C3  UNL     1      27.549   0.704  54.979  1.00  0.00     0.063 C 
HETATM    4  C4  UNL     1      28.431  -0.447  54.475  1.00  0.00     0.273 C 
HETATM    5  N1  UNL     1      28.339  -0.437  53.031  1.00  0.00     0.094 N 
HETATM    6  C5  UNL     1      27.163   0.395  52.717  1.00  0.00     0.272 C 
HETATM    7  C6  UNL     1      26.004  -0.494  52.890  1.00  0.00     0.030 C 
HETATM    8  C7  UNL     1      24.672  -0.371  52.886  1.00  0.00     0.117 C 
HETATM    9  N2  UNL     1      23.862   0.794  52.695  1.00  0.00    -0.239 N 
HETATM   10  N3  UNL     1      22.626   0.363  52.215  1.00  0.00    -0.161 NA
HETATM   11  C8  UNL     1      21.745   1.302  51.977  1.00  0.00     0.258 A 
HETATM   12  N4  UNL     1      21.943   2.721  52.165  1.00  0.00    -0.220 NA
HETATM   13  C9  UNL     1      23.064   3.189  52.607  1.00  0.00     0.160 A 
HETATM   14  C16 UNL     1      24.079   2.186  52.890  1.00  0.00     0.118 A 
HETATM   15  C17 UNL     1      25.089   2.918  53.322  1.00  0.00     0.119 C 
HETATM   16  N6  UNL     1      26.393   2.532  53.766  1.00  0.00    -0.385 N 
HETATM   17  H8  UNL     1      29.186  -0.153  52.535  1.00  0.00     0.316 HD
HETATM   18  H19 UNL     1      26.849   3.292  54.358  1.00  0.00     0.159 HD
ENDROOT
BRANCH  13  19
HETATM   19  N5  UNL     1      23.222   4.611  52.777  1.00  0.00    -0.339 N 
HETATM   20  H13 UNL     1      23.434   4.854  53.800  1.00  0.00     0.167 HD
BRANCH  19  21
HETATM   21  C10 UNL     1      23.086   5.406  51.567  1.00  0.00     0.035 A 
HETATM   22  C11 UNL     1      21.939   6.094  51.224  1.00  0.00     0.029 A 
HETATM   23  C12 UNL     1      21.941   6.819  50.037  1.00  0.00     0.004 A 
HETATM   24  C13 UNL     1      23.090   6.801  49.280  1.00  0.00     0.024 A 
HETATM   25  C14 UNL     1      24.242   6.113  49.615  1.00  0.00     0.036 A 
HETATM   26 CL1  UNL     1      25.656   6.153  48.582  1.00  0.00    -0.084 Cl
HETATM   27  C15 UNL     1      24.225   5.398  50.799  1.00  0.00     0.053 A 
ENDBRANCH  19  21
ENDBRANCH  13  19
TORSDOF 2
ENDMDL
MODEL 6
REMARK VINA RESULT:      -7.3      2.475      4.560
REMARK  2 active torsions:
REMARK  status: ('A' for Active; 'I' for Inactive)
REMARK    1  A    between atoms: C9_13  and  N5_14 
REMARK    2  A    between atoms: N5_14  and  C10_15 
ROOT
HETATM    1  C1  UNL     1      24.913   7.075  50.784  1.00  0.00     0.041 C 
HETATM    2  C2  UNL     1      24.581   5.745  50.088  1.00  0.00     0.061 C 
HETATM    3  C3  UNL     1      25.384   5.752  48.824  1.00  0.00     0.063 C 
HETATM    4  C4  UNL     1      24.629   6.818  48.017  1.00  0.00     0.273 C 
HETATM    5  N1  UNL     1      23.365   7.027  48.690  1.00  0.00     0.094 N 
HETATM    6  C5  UNL     1      23.204   5.873  49.593  1.00  0.00     0.272 C 
HETATM    7  C6  UNL     1      22.692   4.787  48.744  1.00  0.00     0.030 C 
HETATM    8  C7  UNL     1      22.445   3.478  48.877  1.00  0.00     0.117 C 
HETATM    9  N2  UNL     1      22.622   2.626  50.014  1.00  0.00    -0.239 N 
HETATM   10  N3  UNL     1      21.735   1.560  49.873  1.00  0.00    -0.161 NA
HETATM   11  C8  UNL     1      21.754   0.668  50.831  1.00  0.00     0.258 A 
HETATM   12  N4  UNL     1      22.600   0.696  52.002  1.00  0.00    -0.220 NA
HETATM   13  C9  UNL     1      23.445   1.656  52.197  1.00  0.00     0.160 A 
HETATM   14  C16 UNL     1      23.466   2.675  51.158  1.00  0.00     0.118 A 
HETATM   15  C17 UNL     1      24.396   3.504  51.594  1.00  0.00     0.119 C 
HETATM   16  N6  UNL     1      24.899   4.716  51.024  1.00  0.00    -0.385 N 
HETATM   17  H8  UNL     1      23.255   7.930  49.156  1.00  0.00     0.316 HD
HETATM   18  H19 UNL     1      25.856   4.970  51.420  1.00  0.00     0.159 HD
ENDROOT
BRANCH  13  19
HETATM   19  N5  UNL     1      24.268   1.648  53.379  1.00  0.00    -0.339 N 
HETATM   20  H13 UNL     1      23.822   2.231  54.162  1.00  0.00     0.167 HD
BRANCH  19  21
HETATM   21  C10 UNL     1      25.489   0.864  53.288  1.00  0.00     0.035 A 
HETATM   22  C11 UNL     1      25.542  -0.420  52.783  1.00  0.00     0.029 A 
HETATM   23  C12 UNL     1      26.776  -1.061  52.751  1.00  0.00     0.004 A 
HETATM   24  C13 UNL     1      27.866  -0.370  53.228  1.00  0.00     0.024 A 
HETATM   25  C14 UNL     1      27.823   0.915  53.736  1.00  0.00     0.036 A 
HETATM   26 CL1  UNL     1      29.269   1.710  54.320  1.00  0.00    -0.084 Cl
HETATM   27  C15 UNL     1      26.588   1.539  53.761  1.00  0.00     0.053 A 
ENDBRANCH  19  21
ENDBRANCH  13  19
TORSDOF 2
ENDMDL
MODEL 7
REMARK VINA RESULT:      -7.3      3.560      6.515
REMARK  2 active torsions:
REMARK  status: ('A' for Active; 'I' for Inactive)
REMARK    1  A    between atoms: C9_13  and  N5_14 
REMARK    2  A    between atoms: N5_14  and  C10_15 
ROOT
HETATM    1  C1  UNL     1      28.390   0.694  53.094  1.00  0.00     0.041 C 
HETATM    2  C2  UNL     1      26.945   1.216  53.067  1.00  0.00     0.061 C 
HETATM    3  C3  UNL     1      26.599   1.490  54.498  1.00  0.00     0.063 C 
HETATM    4  C4  UNL     1      26.491   0.058  55.040  1.00  0.00     0.273 C 
HETATM    5  N1  UNL     1      26.423  -0.816  53.889  1.00  0.00     0.094 N 
HETATM    6  C5  UNL     1      26.097   0.059  52.748  1.00  0.00     0.272 C 
HETATM    7  C6  UNL     1      24.641   0.255  52.816  1.00  0.00     0.030 C 
HETATM    8  C7  UNL     1      23.727   1.005  52.189  1.00  0.00     0.117 C 
HETATM    9  N2  UNL     1      23.896   1.962  51.138  1.00  0.00    -0.239 N 
HETATM   10  N3  UNL     1      22.685   2.041  50.452  1.00  0.00    -0.161 NA
HETATM   11  C8  UNL     1      22.650   2.874  49.443  1.00  0.00     0.258 A 
HETATM   12  N4  UNL     1      23.743   3.705  48.989  1.00  0.00    -0.220 NA
HETATM   13  C9  UNL     1      24.894   3.682  49.578  1.00  0.00     0.160 A 
HETATM   14  C16 UNL     1      24.985   2.771  50.709  1.00  0.00     0.118 A 
HETATM   15  C17 UNL     1      26.228   2.950  51.116  1.00  0.00     0.119 C 
HETATM   16  N6  UNL     1      26.947   2.347  52.197  1.00  0.00    -0.385 N 
HETATM   17  H8  UNL     1      27.243  -1.405  53.731  1.00  0.00     0.316 HD
HETATM   18  H19 UNL     1      27.795   2.928  52.479  1.00  0.00     0.159 HD
ENDROOT
BRANCH  13  19
HETATM   19  N5  UNL     1      25.957   4.522  49.091  1.00  0.00    -0.339 N 
HETATM   20  H13 UNL     1      26.666   3.954  48.521  1.00  0.00     0.167 HD
BRANCH  19  21
HETATM   21  C10 UNL     1      25.852   5.930  49.440  1.00  0.00     0.035 A 
HETATM   22  C11 UNL     1      24.835   6.458  50.210  1.00  0.00     0.029 A 
HETATM   23  C12 UNL     1      24.853   7.824  50.472  1.00  0.00     0.004 A 
HETATM   24  C13 UNL     1      25.888   8.562  49.943  1.00  0.00     0.024 A 
HETATM   25  C14 UNL     1      26.909   8.042  49.170  1.00  0.00     0.036 A 
HETATM   26 CL1  UNL     1      28.183   9.066  48.541  1.00  0.00    -0.084 Cl
HETATM   27  C15 UNL     1      26.878   6.682  48.919  1.00  0.00     0.053 A 
ENDBRANCH  19  21
ENDBRANCH  13  19
TORSDOF 2
ENDMDL
MODEL 8
REMARK VINA RESULT:      -7.3      3.332      7.913
REMARK  2 active torsions:
REMARK  status: ('A' for Active; 'I' for Inactive)
REMARK    1  A    between atoms: C9_13  and  N5_14 
REMARK    2  A    between atoms: N5_14  and  C10_15 
ROOT
HETATM    1  C1  UNL     1      26.695   1.903  51.364  1.00  0.00     0.041 C 
HETATM    2  C2  UNL     1      25.931   1.427  52.610  1.00  0.00     0.061 C 
HETATM    3  C3  UNL     1      26.766   1.868  53.773  1.00  0.00     0.063 C 
HETATM    4  C4  UNL     1      27.954   0.904  53.648  1.00  0.00     0.273 C 
HETATM    5  N1  UNL     1      27.544  -0.141  52.736  1.00  0.00     0.094 N 
HETATM    6  C5  UNL     1      26.077  -0.034  52.648  1.00  0.00     0.272 C 
HETATM    7  C6  UNL     1      25.567  -0.729  53.840  1.00  0.00     0.030 C 
HETATM    8  C7  UNL     1      24.381  -0.905  54.434  1.00  0.00     0.117 C 
HETATM    9  N2  UNL     1      23.089  -0.417  54.056  1.00  0.00    -0.239 N 
HETATM   10  N3  UNL     1      22.144  -1.287  54.599  1.00  0.00    -0.161 NA
HETATM   11  C8  UNL     1      20.891  -0.997  54.353  1.00  0.00     0.258 A 
HETATM   12  N4  UNL     1      20.414   0.127  53.581  1.00  0.00    -0.220 NA
HETATM   13  C9  UNL     1      21.235   0.973  53.049  1.00  0.00     0.160 A 
HETATM   14  C16 UNL     1      22.643   0.698  53.294  1.00  0.00     0.118 A 
HETATM   15  C17 UNL     1      23.239   1.692  52.663  1.00  0.00     0.119 C 
HETATM   16  N6  UNL     1      24.629   2.002  52.522  1.00  0.00    -0.385 N 
HETATM   17  H8  UNL     1      28.010  -0.144  51.826  1.00  0.00     0.316 HD
HETATM   18  H19 UNL     1      24.780   3.024  52.258  1.00  0.00     0.159 HD
ENDROOT
BRANCH  13  19
HETATM   19  N5  UNL     1      20.718   2.078  52.284  1.00  0.00    -0.339 N 
HETATM   20  H13 UNL     1      21.362   2.933  52.360  1.00  0.00     0.167 HD
BRANCH  19  21
HETATM   21  C10 UNL     1      19.479   1.820  51.568  1.00  0.00     0.035 A 
HETATM   22  C11 UNL     1      19.256   0.697  50.797  1.00  0.00     0.029 A 
HETATM   23  C12 UNL     1      18.024   0.570  50.164  1.00  0.00     0.004 A 
HETATM   24  C13 UNL     1      17.105   1.578  50.349  1.00  0.00     0.024 A 
HETATM   25  C14 UNL     1      17.320   2.707  51.119  1.00  0.00     0.036 A 
HETATM   26 CL1  UNL     1      16.085   3.935  51.293  1.00  0.00    -0.084 Cl
HETATM   27  C15 UNL     1      18.550   2.818  51.743  1.00  0.00     0.053 A 
ENDBRANCH  19  21
ENDBRANCH  13  19
TORSDOF 2
ENDMDL
MODEL 9
REMARK VINA RESULT:      -7.2      3.554      7.149
REMARK  2 active torsions:
REMARK  status: ('A' for Active; 'I' for Inactive)
REMARK    1  A    between atoms: C9_13  and  N5_14 
REMARK    2  A    between atoms: N5_14  and  C10_15 
ROOT
HETATM    1  C1  UNL     1      27.164   2.080  52.165  1.00  0.00     0.041 C 
HETATM    2  C2  UNL     1      25.824   1.858  52.884  1.00  0.00     0.061 C 
HETATM    3  C3  UNL     1      26.189   1.374  54.253  1.00  0.00     0.063 C 
HETATM    4  C4  UNL     1      26.698  -0.037  53.926  1.00  0.00     0.273 C 
HETATM    5  N1  UNL     1      26.266  -0.329  52.577  1.00  0.00     0.094 N 
HETATM    6  C5  UNL     1      25.222   0.666  52.273  1.00  0.00     0.272 C 
HETATM    7  C6  UNL     1      23.996   0.140  52.891  1.00  0.00     0.030 C 
HETATM    8  C7  UNL     1      22.747   0.572  53.102  1.00  0.00     0.117 C 
HETATM    9  N2  UNL     1      22.143   1.823  52.756  1.00  0.00    -0.239 N 
HETATM   10  N3  UNL     1      20.770   1.602  52.648  1.00  0.00    -0.161 NA
HETATM   11  C8  UNL     1      20.045   2.645  52.332  1.00  0.00     0.258 A 
HETATM   12  N4  UNL     1      20.539   3.982  52.089  1.00  0.00    -0.220 NA
HETATM   13  C9  UNL     1      21.800   4.257  52.171  1.00  0.00     0.160 A 
HETATM   14  C16 UNL     1      22.652   3.130  52.522  1.00  0.00     0.118 A 
HETATM   15  C17 UNL     1      23.851   3.679  52.544  1.00  0.00     0.119 C 
HETATM   16  N6  UNL     1      25.131   3.104  52.827  1.00  0.00    -0.385 N 
HETATM   17  H8  UNL     1      27.007  -0.374  51.874  1.00  0.00     0.316 HD
HETATM   18  H19 UNL     1      25.846   3.847  53.095  1.00  0.00     0.159 HD
ENDROOT
BRANCH  13  19
HETATM   19  N5  UNL     1      22.251   5.601  51.917  1.00  0.00    -0.339 N 
HETATM   20  H13 UNL     1      22.833   5.972  52.738  1.00  0.00     0.167 HD
BRANCH  19  21
HETATM   21  C10 UNL     1      21.858   6.162  50.635  1.00  0.00     0.035 A 
HETATM   22  C11 UNL     1      21.212   7.374  50.492  1.00  0.00     0.029 A 
HETATM   23  C12 UNL     1      20.891   7.798  49.206  1.00  0.00     0.004 A 
HETATM   24  C13 UNL     1      21.241   6.977  48.158  1.00  0.00     0.024 A 
HETATM   25  C14 UNL     1      21.886   5.761  48.292  1.00  0.00     0.036 A 
HETATM   26 CL1  UNL     1      22.288   4.788  46.894  1.00  0.00    -0.084 Cl
HETATM   27  C15 UNL     1      22.199   5.354  49.577  1.00  0.00     0.053 A 
ENDBRANCH  19  21
ENDBRANCH  13  19
TORSDOF 2
ENDMDL
