MODEL 1
REMARK VINA RESULT:      -7.8      0.000      0.000
REMARK  9 active torsions:
REMARK  status: ('A' for Active; 'I' for Inactive)
REMARK    1  A    between atoms: N1_1  and  C1_2 
REMARK    2  A    between atoms: C2_3  and  C3_4 
REMARK    3  A    between atoms: C3_4  and  C4_5 
REMARK    4  A    between atoms: C4_5  and  C8_10 
REMARK    5  A    between atoms: C5_6  and  C6_7 
REMARK    6  A    between atoms: C10_12  and  C11_13 
REMARK    7  A    between atoms: C12_14  and  C13_15 
REMARK    8  A    between atoms: C12_14  and  O1_17 
REMARK    9  A    between atoms: O1_17  and  C14_18 
ROOT
HETATM    1  C8  UNL     1      24.954  -0.607  54.129  1.00  0.00     0.067 A 
HETATM    2  C9  UNL     1      23.649  -0.471  53.737  1.00  0.00     0.064 A 
HETATM    3  C10 UNL     1      22.589  -0.891  54.510  1.00  0.00     0.062 A 
HETATM    4  N2  UNL     1      22.947  -1.451  55.687  1.00  0.00    -0.242 NA
HETATM    5  C18 UNL     1      24.212  -1.593  56.086  1.00  0.00     0.234 A 
HETATM    6  N3  UNL     1      25.201  -1.173  55.310  1.00  0.00    -0.242 NA
ENDROOT
BRANCH   1   7
HETATM    7  C4  UNL     1      26.083  -0.161  53.325  1.00  0.00    -0.026 C 
HETATM    8  C5  UNL     1      26.402   1.094  53.090  1.00  0.00     0.012 C 
BRANCH   7   9
HETATM    9  C3  UNL     1      26.951  -1.224  52.713  1.00  0.00     0.069 C 
BRANCH   9  10
HETATM   10  C2  UNL     1      28.342  -0.920  53.129  1.00  0.00    -0.006 C 
HETATM   11  C1  UNL     1      29.151  -1.987  53.326  1.00  0.00     0.076 C 
BRANCH  11  12
HETATM   12  N1  UNL     1      28.402  -3.193  53.065  1.00  0.00    -0.408 N 
HETATM   13  H1  UNL     1      28.338  -3.950  52.339  1.00  0.00     0.155 HD
HETATM   14  H2  UNL     1      27.850  -4.052  52.905  1.00  0.00     0.155 HD
ENDBRANCH  11  12
ENDBRANCH   9  10
ENDBRANCH   7   9
BRANCH   8  15
HETATM   15  C6  UNL     1      25.687   2.255  53.596  1.00  0.00     0.030 C 
HETATM   16  C7  UNL     1      24.752   2.844  52.882  1.00  0.00     0.188 C 
HETATM   17  F1  UNL     1      23.905   3.878  52.979  1.00  0.00    -0.219 F 
ENDBRANCH   8  15
ENDBRANCH   1   7
BRANCH   3  18
HETATM   18  C11 UNL     1      21.186  -0.777  54.214  1.00  0.00     0.066 C 
HETATM   19  C12 UNL     1      20.435  -0.242  53.241  1.00  0.00     0.077 C 
BRANCH  19  20
HETATM   20  C13 UNL     1      20.679   0.499  51.983  1.00  0.00     0.286 C 
HETATM   21  F2  UNL     1      21.493  -0.206  51.100  1.00  0.00    -0.248 F 
ENDBRANCH  19  20
BRANCH  19  22
HETATM   22  O1  UNL     1      19.073  -0.332  53.302  1.00  0.00    -0.345 OA
BRANCH  22  23
HETATM   23  C14 UNL     1      18.213  -1.151  52.583  1.00  0.00     0.154 C 
HETATM   24  C15 UNL     1      17.032  -0.284  52.149  1.00  0.00     0.061 C 
HETATM   25  C16 UNL     1      15.845  -1.142  52.443  1.00  0.00     0.170 C 
HETATM   26  O2  UNL     1      16.340  -2.414  52.719  1.00  0.00    -0.389 OA
HETATM   27  C17 UNL     1      17.547  -2.232  53.374  1.00  0.00     0.200 C 
ENDBRANCH  22  23
ENDBRANCH  19  22
ENDBRANCH   3  18
TORSDOF 9
ENDMDL
MODEL 2
REMARK VINA RESULT:      -7.3      2.254      3.274
REMARK  9 active torsions:
REMARK  status: ('A' for Active; 'I' for Inactive)
REMARK    1  A    between atoms: N1_1  and  C1_2 
REMARK    2  A    between atoms: C2_3  and  C3_4 
REMARK    3  A    between atoms: C3_4  and  C4_5 
REMARK    4  A    between atoms: C4_5  and  C8_10 
REMARK    5  A    between atoms: C5_6  and  C6_7 
REMARK    6  A    between atoms: C10_12  and  C11_13 
REMARK    7  A    between atoms: C12_14  and  C13_15 
REMARK    8  A    between atoms: C12_14  and  O1_17 
REMARK    9  A    between atoms: O1_17  and  C14_18 
ROOT
HETATM    1  C8  UNL     1      24.798  -0.353  53.777  1.00  0.00     0.067 A 
HETATM    2  C9  UNL     1      23.457  -0.336  53.500  1.00  0.00     0.064 A 
HETATM    3  C10 UNL     1      22.511  -0.860  54.353  1.00  0.00     0.062 A 
HETATM    4  N2  UNL     1      23.019  -1.393  55.486  1.00  0.00    -0.242 NA
HETATM    5  C18 UNL     1      24.321  -1.420  55.774  1.00  0.00     0.234 A 
HETATM    6  N3  UNL     1      25.196  -0.904  54.924  1.00  0.00    -0.242 NA
ENDROOT
BRANCH   1   7
HETATM    7  C4  UNL     1      25.808   0.204  52.888  1.00  0.00    -0.026 C 
HETATM    8  C5  UNL     1      26.815  -0.464  52.366  1.00  0.00     0.012 C 
BRANCH   7   9
HETATM    9  C3  UNL     1      25.689   1.662  52.544  1.00  0.00     0.069 C 
BRANCH   9  10
HETATM   10  C2  UNL     1      26.557   1.885  51.362  1.00  0.00    -0.006 C 
HETATM   11  C1  UNL     1      26.351   3.036  50.681  1.00  0.00     0.076 C 
BRANCH  11  12
HETATM   12  N1  UNL     1      25.287   3.773  51.323  1.00  0.00    -0.408 N 
HETATM   13  H1  UNL     1      24.298   3.627  51.644  1.00  0.00     0.155 HD
HETATM   14  H2  UNL     1      24.546   4.325  51.784  1.00  0.00     0.155 HD
ENDBRANCH  11  12
ENDBRANCH   9  10
ENDBRANCH   7   9
BRANCH   8  15
HETATM   15  C6  UNL     1      27.091  -1.876  52.581  1.00  0.00     0.030 C 
HETATM   16  C7  UNL     1      28.272  -2.283  52.994  1.00  0.00     0.188 C 
HETATM   17  F1  UNL     1      28.898  -3.429  53.298  1.00  0.00    -0.219 F 
ENDBRANCH   8  15
ENDBRANCH   1   7
BRANCH   3  18
HETATM   18  C11 UNL     1      21.083  -0.875  54.179  1.00  0.00     0.066 C 
HETATM   19  C12 UNL     1      20.205  -0.400  53.284  1.00  0.00     0.077 C 
BRANCH  19  20
HETATM   20  C13 UNL     1      20.270   0.379  52.027  1.00  0.00     0.286 C 
HETATM   21  F2  UNL     1      21.148  -0.179  51.102  1.00  0.00    -0.248 F 
ENDBRANCH  19  20
BRANCH  19  22
HETATM   22  O1  UNL     1      18.867  -0.619  53.458  1.00  0.00    -0.345 OA
BRANCH  22  23
HETATM   23  C14 UNL     1      17.985  -1.339  52.665  1.00  0.00     0.154 C 
HETATM   24  C15 UNL     1      16.800  -0.420  52.370  1.00  0.00     0.061 C 
HETATM   25  C16 UNL     1      15.614  -1.302  52.586  1.00  0.00     0.170 C 
HETATM   26  O2  UNL     1      16.106  -2.601  52.691  1.00  0.00    -0.389 OA
HETATM   27  C17 UNL     1      17.329  -2.506  53.334  1.00  0.00     0.200 C 
ENDBRANCH  22  23
ENDBRANCH  19  22
ENDBRANCH   3  18
TORSDOF 9
ENDMDL
MODEL 3
REMARK VINA RESULT:      -7.1      4.403      7.985
REMARK  9 active torsions:
REMARK  status: ('A' for Active; 'I' for Inactive)
REMARK    1  A    between atoms: N1_1  and  C1_2 
REMARK    2  A    between atoms: C2_3  and  C3_4 
REMARK    3  A    between atoms: C3_4  and  C4_5 
REMARK    4  A    between atoms: C4_5  and  C8_10 
REMARK    5  A    between atoms: C5_6  and  C6_7 
REMARK    6  A    between atoms: C10_12  and  C11_13 
REMARK    7  A    between atoms: C12_14  and  C13_15 
REMARK    8  A    between atoms: C12_14  and  O1_17 
REMARK    9  A    between atoms: O1_17  and  C14_18 
ROOT
HETATM    1  C8  UNL     1      21.721   2.087  51.892  1.00  0.00     0.067 A 
HETATM    2  C9  UNL     1      22.896   1.670  52.457  1.00  0.00     0.064 A 
HETATM    3  C10 UNL     1      23.863   2.545  52.901  1.00  0.00     0.062 A 
HETATM    4  N2  UNL     1      23.554   3.850  52.729  1.00  0.00    -0.242 NA
HETATM    5  C18 UNL     1      22.415   4.276  52.181  1.00  0.00     0.234 A 
HETATM    6  N3  UNL     1      21.512   3.399  51.768  1.00  0.00    -0.242 NA
ENDROOT
BRANCH   1   7
HETATM    7  C4  UNL     1      20.687   1.174  51.425  1.00  0.00    -0.026 C 
HETATM    8  C5  UNL     1      20.115   0.237  52.151  1.00  0.00     0.012 C 
BRANCH   7   9
HETATM    9  C3  UNL     1      20.243   1.315  49.997  1.00  0.00     0.069 C 
BRANCH   9  10
HETATM   10  C2  UNL     1      21.361   0.816  49.160  1.00  0.00    -0.006 C 
HETATM   11  C1  UNL     1      21.896   1.705  48.291  1.00  0.00     0.076 C 
BRANCH  11  12
HETATM   12  N1  UNL     1      21.196   2.962  48.421  1.00  0.00    -0.408 N 
HETATM   13  H1  UNL     1      21.214   3.825  49.019  1.00  0.00     0.155 HD
HETATM   14  H2  UNL     1      20.677   3.852  48.489  1.00  0.00     0.155 HD
ENDBRANCH  11  12
ENDBRANCH   9  10
ENDBRANCH   7   9
BRANCH   8  15
HETATM   15  C6  UNL     1      20.410  -0.047  53.546  1.00  0.00     0.030 C 
HETATM   16  C7  UNL     1      20.964  -1.184  53.907  1.00  0.00     0.188 C 
HETATM   17  F1  UNL     1      21.376  -1.799  55.026  1.00  0.00    -0.219 F 
ENDBRANCH   8  15
ENDBRANCH   1   7
BRANCH   3  18
HETATM   18  C11 UNL     1      25.117   2.223  53.529  1.00  0.00     0.066 C 
HETATM   19  C12 UNL     1      26.401   2.138  53.156  1.00  0.00     0.077 C 
BRANCH  19  20
HETATM   20  C13 UNL     1      27.170   2.333  51.906  1.00  0.00     0.286 C 
HETATM   21  F2  UNL     1      26.777   1.456  50.898  1.00  0.00    -0.248 F 
ENDBRANCH  19  20
BRANCH  19  22
HETATM   22  O1  UNL     1      27.356   1.786  54.069  1.00  0.00    -0.345 OA
BRANCH  22  23
HETATM   23  C14 UNL     1      27.799   0.523  54.434  1.00  0.00     0.154 C 
HETATM   24  C15 UNL     1      29.300   0.479  54.152  1.00  0.00     0.061 C 
HETATM   25  C16 UNL     1      29.490  -0.843  53.482  1.00  0.00     0.170 C 
HETATM   26  O2  UNL     1      28.298  -1.543  53.653  1.00  0.00    -0.389 OA
HETATM   27  C17 UNL     1      27.281  -0.604  53.597  1.00  0.00     0.200 C 
ENDBRANCH  22  23
ENDBRANCH  19  22
ENDBRANCH   3  18
TORSDOF 9
ENDMDL
MODEL 4
REMARK VINA RESULT:      -6.9      3.978      8.043
REMARK  9 active torsions:
REMARK  status: ('A' for Active; 'I' for Inactive)
REMARK    1  A    between atoms: N1_1  and  C1_2 
REMARK    2  A    between atoms: C2_3  and  C3_4 
REMARK    3  A    between atoms: C3_4  and  C4_5 
REMARK    4  A    between atoms: C4_5  and  C8_10 
REMARK    5  A    between atoms: C5_6  and  C6_7 
REMARK    6  A    between atoms: C10_12  and  C11_13 
REMARK    7  A    between atoms: C12_14  and  C13_15 
REMARK    8  A    between atoms: C12_14  and  O1_17 
REMARK    9  A    between atoms: O1_17  and  C14_18 
ROOT
HETATM    1  C8  UNL     1      21.778   2.517  51.997  1.00  0.00     0.067 A 
HETATM    2  C9  UNL     1      22.883   1.830  52.422  1.00  0.00     0.064 A 
HETATM    3  C10 UNL     1      24.029   2.456  52.860  1.00  0.00     0.062 A 
HETATM    4  N2  UNL     1      23.970   3.806  52.833  1.00  0.00    -0.242 NA
HETATM    5  C18 UNL     1      22.904   4.494  52.422  1.00  0.00     0.234 A 
HETATM    6  N3  UNL     1      21.822   3.850  52.009  1.00  0.00    -0.242 NA
ENDROOT
BRANCH   1   7
HETATM    7  C4  UNL     1      20.558   1.868  51.539  1.00  0.00    -0.026 C 
HETATM    8  C5  UNL     1      20.197   1.727  50.281  1.00  0.00     0.012 C 
BRANCH   7   9
HETATM    9  C3  UNL     1      19.636   1.319  52.592  1.00  0.00     0.069 C 
BRANCH   9  10
HETATM   10  C2  UNL     1      19.756  -0.158  52.523  1.00  0.00    -0.006 C 
HETATM   11  C1  UNL     1      20.208  -0.771  53.641  1.00  0.00     0.076 C 
BRANCH  11  12
HETATM   12  N1  UNL     1      20.466   0.231  54.649  1.00  0.00    -0.408 N 
HETATM   13  H1  UNL     1      20.953   1.156  54.747  1.00  0.00     0.155 HD
HETATM   14  H2  UNL     1      20.634   0.930  55.391  1.00  0.00     0.155 HD
ENDBRANCH  11  12
ENDBRANCH   9  10
ENDBRANCH   7   9
BRANCH   8  15
HETATM   15  C6  UNL     1      20.955   2.189  49.129  1.00  0.00     0.030 C 
HETATM   16  C7  UNL     1      21.764   1.382  48.479  1.00  0.00     0.188 C 
HETATM   17  F1  UNL     1      22.595   1.413  47.426  1.00  0.00    -0.219 F 
ENDBRANCH   8  15
ENDBRANCH   1   7
BRANCH   3  18
HETATM   18  C11 UNL     1      25.234   1.841  53.351  1.00  0.00     0.066 C 
HETATM   19  C12 UNL     1      25.582   0.654  53.866  1.00  0.00     0.077 C 
BRANCH  19  20
HETATM   20  C13 UNL     1      24.898  -0.619  54.187  1.00  0.00     0.286 C 
HETATM   21  F2  UNL     1      25.085  -1.004  55.512  1.00  0.00    -0.248 F 
ENDBRANCH  19  20
BRANCH  19  22
HETATM   22  O1  UNL     1      26.878   0.424  54.236  1.00  0.00    -0.345 OA
BRANCH  22  23
HETATM   23  C14 UNL     1      28.015   0.334  53.445  1.00  0.00     0.154 C 
HETATM   24  C15 UNL     1      28.319  -1.154  53.271  1.00  0.00     0.061 C 
HETATM   25  C16 UNL     1      29.794  -1.235  53.491  1.00  0.00     0.170 C 
HETATM   26  O2  UNL     1      30.263   0.077  53.487  1.00  0.00    -0.389 OA
HETATM   27  C17 UNL     1      29.272   0.849  54.070  1.00  0.00     0.200 C 
ENDBRANCH  22  23
ENDBRANCH  19  22
ENDBRANCH   3  18
TORSDOF 9
ENDMDL
MODEL 5
REMARK VINA RESULT:      -6.7      3.786      7.937
REMARK  9 active torsions:
REMARK  status: ('A' for Active; 'I' for Inactive)
REMARK    1  A    between atoms: N1_1  and  C1_2 
REMARK    2  A    between atoms: C2_3  and  C3_4 
REMARK    3  A    between atoms: C3_4  and  C4_5 
REMARK    4  A    between atoms: C4_5  and  C8_10 
REMARK    5  A    between atoms: C5_6  and  C6_7 
REMARK    6  A    between atoms: C10_12  and  C11_13 
REMARK    7  A    between atoms: C12_14  and  C13_15 
REMARK    8  A    between atoms: C12_14  and  O1_17 
REMARK    9  A    between atoms: O1_17  and  C14_18 
ROOT
HETATM    1  C8  UNL     1      21.173   1.167  52.796  1.00  0.00     0.067 A 
HETATM    2  C9  UNL     1      22.500   0.860  52.656  1.00  0.00     0.064 A 
HETATM    3  C10 UNL     1      23.123  -0.120  53.398  1.00  0.00     0.062 A 
HETATM    4  N2  UNL     1      22.312  -0.751  54.276  1.00  0.00    -0.242 NA
HETATM    5  C18 UNL     1      21.018  -0.467  54.427  1.00  0.00     0.234 A 
HETATM    6  N3  UNL     1      20.460   0.483  53.691  1.00  0.00    -0.242 NA
ENDROOT
BRANCH   1   7
HETATM    7  C4  UNL     1      20.501   2.194  52.013  1.00  0.00    -0.026 C 
HETATM    8  C5  UNL     1      19.633   1.972  51.050  1.00  0.00     0.012 C 
BRANCH   7   9
HETATM    9  C3  UNL     1      20.832   3.625  52.334  1.00  0.00     0.069 C 
BRANCH   9  10
HETATM   10  C2  UNL     1      21.503   4.178  51.132  1.00  0.00    -0.006 C 
HETATM   11  C1  UNL     1      22.526   5.034  51.363  1.00  0.00     0.076 C 
BRANCH  11  12
HETATM   12  N1  UNL     1      22.694   5.183  52.790  1.00  0.00    -0.408 N 
HETATM   13  H1  UNL     1      22.429   5.849  53.558  1.00  0.00     0.155 HD
HETATM   14  H2  UNL     1      22.831   5.263  53.810  1.00  0.00     0.155 HD
ENDBRANCH  11  12
ENDBRANCH   9  10
ENDBRANCH   7   9
BRANCH   8  15
HETATM   15  C6  UNL     1      19.188   0.662  50.601  1.00  0.00     0.030 C 
HETATM   16  C7  UNL     1      17.924   0.431  50.321  1.00  0.00     0.188 C 
HETATM   17  F1  UNL     1      17.148  -0.579  49.901  1.00  0.00    -0.219 F 
ENDBRANCH   8  15
ENDBRANCH   1   7
BRANCH   3  18
HETATM   18  C11 UNL     1      24.495  -0.542  53.319  1.00  0.00     0.066 C 
HETATM   19  C12 UNL     1      25.536  -0.637  54.159  1.00  0.00     0.077 C 
BRANCH  19  20
HETATM   20  C13 UNL     1      25.789  -0.354  55.590  1.00  0.00     0.286 C 
HETATM   21  F2  UNL     1      24.983  -1.115  56.432  1.00  0.00    -0.248 F 
ENDBRANCH  19  20
BRANCH  19  22
HETATM   22  O1  UNL     1      26.739  -1.102  53.705  1.00  0.00    -0.345 OA
BRANCH  22  23
HETATM   23  C14 UNL     1      27.768  -0.411  53.080  1.00  0.00     0.154 C 
HETATM   24  C15 UNL     1      28.944  -0.385  54.055  1.00  0.00     0.061 C 
HETATM   25  C16 UNL     1      29.422   1.028  53.988  1.00  0.00     0.170 C 
HETATM   26  O2  UNL     1      28.776   1.608  52.898  1.00  0.00    -0.389 OA
HETATM   27  C17 UNL     1      27.512   1.045  52.847  1.00  0.00     0.200 C 
ENDBRANCH  22  23
ENDBRANCH  19  22
ENDBRANCH   3  18
TORSDOF 9
ENDMDL
MODEL 6
REMARK VINA RESULT:      -6.7      5.491      8.883
REMARK  9 active torsions:
REMARK  status: ('A' for Active; 'I' for Inactive)
REMARK    1  A    between atoms: N1_1  and  C1_2 
REMARK    2  A    between atoms: C2_3  and  C3_4 
REMARK    3  A    between atoms: C3_4  and  C4_5 
REMARK    4  A    between atoms: C4_5  and  C8_10 
REMARK    5  A    between atoms: C5_6  and  C6_7 
REMARK    6  A    between atoms: C10_12  and  C11_13 
REMARK    7  A    between atoms: C12_14  and  C13_15 
REMARK    8  A    between atoms: C12_14  and  O1_17 
REMARK    9  A    between atoms: O1_17  and  C14_18 
ROOT
HETATM    1  C8  UNL     1      23.744   1.543  51.474  1.00  0.00     0.067 A 
HETATM    2  C9  UNL     1      24.654   2.536  51.226  1.00  0.00     0.064 A 
HETATM    3  C10 UNL     1      24.586   3.353  50.119  1.00  0.00     0.062 A 
HETATM    4  N2  UNL     1      23.545   3.089  49.297  1.00  0.00    -0.242 NA
HETATM    5  C18 UNL     1      22.650   2.126  49.520  1.00  0.00     0.234 A 
HETATM    6  N3  UNL     1      22.754   1.365  50.599  1.00  0.00    -0.242 NA
ENDROOT
BRANCH   1   7
HETATM    7  C4  UNL     1      23.800   0.678  52.643  1.00  0.00    -0.026 C 
HETATM    8  C5  UNL     1      24.859   0.008  53.045  1.00  0.00     0.012 C 
BRANCH   7   9
HETATM    9  C3  UNL     1      22.542   0.539  53.453  1.00  0.00     0.069 C 
BRANCH   9  10
HETATM   10  C2  UNL     1      22.456  -0.888  53.850  1.00  0.00    -0.006 C 
HETATM   11  C1  UNL     1      21.367  -1.240  54.574  1.00  0.00     0.076 C 
BRANCH  11  12
HETATM   12  N1  UNL     1      20.543  -0.070  54.773  1.00  0.00    -0.408 N 
HETATM   13  H1  UNL     1      19.624   0.321  54.449  1.00  0.00     0.155 HD
HETATM   14  H2  UNL     1      19.976   0.778  54.935  1.00  0.00     0.155 HD
ENDBRANCH  11  12
ENDBRANCH   9  10
ENDBRANCH   7   9
BRANCH   8  15
HETATM   15  C6  UNL     1      26.160   0.019  52.394  1.00  0.00     0.030 C 
HETATM   16  C7  UNL     1      27.271   0.092  53.095  1.00  0.00     0.188 C 
HETATM   17  F1  UNL     1      28.596   0.126  52.891  1.00  0.00    -0.219 F 
ENDBRANCH   8  15
ENDBRANCH   1   7
BRANCH   3  18
HETATM   18  C11 UNL     1      25.465   4.437  49.772  1.00  0.00     0.066 C 
HETATM   19  C12 UNL     1      25.516   5.759  49.990  1.00  0.00     0.077 C 
BRANCH  19  20
HETATM   20  C13 UNL     1      24.691   6.762  50.702  1.00  0.00     0.286 C 
HETATM   21  F2  UNL     1      24.034   6.222  51.805  1.00  0.00    -0.248 F 
ENDBRANCH  19  20
BRANCH  19  22
HETATM   22  O1  UNL     1      26.548   6.496  49.479  1.00  0.00    -0.345 OA
BRANCH  22  23
HETATM   23  C14 UNL     1      27.053   6.520  48.186  1.00  0.00     0.154 C 
HETATM   24  C15 UNL     1      28.492   6.012  48.262  1.00  0.00     0.061 C 
HETATM   25  C16 UNL     1      29.247   6.976  47.406  1.00  0.00     0.170 C 
HETATM   26  O2  UNL     1      28.291   7.725  46.723  1.00  0.00    -0.389 OA
HETATM   27  C17 UNL     1      27.223   7.882  47.591  1.00  0.00     0.200 C 
ENDBRANCH  22  23
ENDBRANCH  19  22
ENDBRANCH   3  18
TORSDOF 9
ENDMDL
MODEL 7
REMARK VINA RESULT:      -6.7      4.640      6.257
REMARK  9 active torsions:
REMARK  status: ('A' for Active; 'I' for Inactive)
REMARK    1  A    between atoms: N1_1  and  C1_2 
REMARK    2  A    between atoms: C2_3  and  C3_4 
REMARK    3  A    between atoms: C3_4  and  C4_5 
REMARK    4  A    between atoms: C4_5  and  C8_10 
REMARK    5  A    between atoms: C5_6  and  C6_7 
REMARK    6  A    between atoms: C10_12  and  C11_13 
REMARK    7  A    between atoms: C12_14  and  C13_15 
REMARK    8  A    between atoms: C12_14  and  O1_17 
REMARK    9  A    between atoms: O1_17  and  C14_18 
ROOT
HETATM    1  C8  UNL     1      24.470   1.550  52.627  1.00  0.00     0.067 A 
HETATM    2  C9  UNL     1      24.110   1.635  51.308  1.00  0.00     0.064 A 
HETATM    3  C10 UNL     1      23.656   2.800  50.732  1.00  0.00     0.062 A 
HETATM    4  N2  UNL     1      23.593   3.852  51.578  1.00  0.00    -0.242 NA
HETATM    5  C18 UNL     1      23.938   3.789  52.866  1.00  0.00     0.234 A 
HETATM    6  N3  UNL     1      24.371   2.647  53.378  1.00  0.00    -0.242 NA
ENDROOT
BRANCH   1   7
HETATM    7  C4  UNL     1      24.959   0.327  53.247  1.00  0.00    -0.026 C 
HETATM    8  C5  UNL     1      24.219  -0.548  53.893  1.00  0.00     0.012 C 
BRANCH   7   9
HETATM    9  C3  UNL     1      26.432   0.046  53.141  1.00  0.00     0.069 C 
BRANCH   9  10
HETATM   10  C2  UNL     1      27.059   0.641  54.347  1.00  0.00    -0.006 C 
HETATM   11  C1  UNL     1      28.197   0.049  54.779  1.00  0.00     0.076 C 
BRANCH  11  12
HETATM   12  N1  UNL     1      28.507  -1.057  53.903  1.00  0.00    -0.408 N 
HETATM   13  H1  UNL     1      28.081  -1.960  53.579  1.00  0.00     0.155 HD
HETATM   14  H2  UNL     1      28.757  -1.834  53.270  1.00  0.00     0.155 HD
ENDBRANCH  11  12
ENDBRANCH   9  10
ENDBRANCH   7   9
BRANCH   8  15
HETATM   15  C6  UNL     1      22.782  -0.450  54.096  1.00  0.00     0.030 C 
HETATM   16  C7  UNL     1      22.063  -1.509  54.398  1.00  0.00     0.188 C 
HETATM   17  F1  UNL     1      20.785  -1.826  54.653  1.00  0.00    -0.219 F 
ENDBRANCH   8  15
ENDBRANCH   1   7
BRANCH   3  18
HETATM   18  C11 UNL     1      23.276   3.012  49.360  1.00  0.00     0.066 C 
HETATM   19  C12 UNL     1      22.478   2.412  48.466  1.00  0.00     0.077 C 
BRANCH  19  20
HETATM   20  C13 UNL     1      21.587   1.230  48.446  1.00  0.00     0.286 C 
HETATM   21  F2  UNL     1      21.470   0.632  49.698  1.00  0.00    -0.248 F 
ENDBRANCH  19  20
BRANCH  19  22
HETATM   22  O1  UNL     1      22.365   2.921  47.202  1.00  0.00    -0.345 OA
BRANCH  22  23
HETATM   23  C14 UNL     1      21.574   3.965  46.743  1.00  0.00     0.154 C 
HETATM   24  C15 UNL     1      21.484   3.821  45.224  1.00  0.00     0.061 C 
HETATM   25  C16 UNL     1      21.700   5.214  44.729  1.00  0.00     0.170 C 
HETATM   26  O2  UNL     1      21.618   6.043  45.846  1.00  0.00    -0.389 OA
HETATM   27  C17 UNL     1      22.162   5.332  46.903  1.00  0.00     0.200 C 
ENDBRANCH  22  23
ENDBRANCH  19  22
ENDBRANCH   3  18
TORSDOF 9
ENDMDL
MODEL 8
REMARK VINA RESULT:      -6.6      2.838      3.966
REMARK  9 active torsions:
REMARK  status: ('A' for Active; 'I' for Inactive)
REMARK    1  A    between atoms: N1_1  and  C1_2 
REMARK    2  A    between atoms: C2_3  and  C3_4 
REMARK    3  A    between atoms: C3_4  and  C4_5 
REMARK    4  A    between atoms: C4_5  and  C8_10 
REMARK    5  A    between atoms: C5_6  and  C6_7 
REMARK    6  A    between atoms: C10_12  and  C11_13 
REMARK    7  A    between atoms: C12_14  and  C13_15 
REMARK    8  A    between atoms: C12_14  and  O1_17 
REMARK    9  A    between atoms: O1_17  and  C14_18 
ROOT
HETATM    1  C8  UNL     1      24.767   0.108  52.931  1.00  0.00     0.067 A 
HETATM    2  C9  UNL     1      23.889   1.082  52.536  1.00  0.00     0.064 A 
HETATM    3  C10 UNL     1      22.592   1.148  52.994  1.00  0.00     0.062 A 
HETATM    4  N2  UNL     1      22.259   0.170  53.865  1.00  0.00    -0.242 NA
HETATM    5  C18 UNL     1      23.099  -0.788  54.261  1.00  0.00     0.234 A 
HETATM    6  N3  UNL     1      24.339  -0.813  53.795  1.00  0.00    -0.242 NA
ENDROOT
BRANCH   1   7
HETATM    7  C4  UNL     1      26.143   0.030  52.461  1.00  0.00    -0.026 C 
HETATM    8  C5  UNL     1      26.791   0.992  51.840  1.00  0.00     0.012 C 
BRANCH   7   9
HETATM    9  C3  UNL     1      26.878  -1.258  52.704  1.00  0.00     0.069 C 
BRANCH   9  10
HETATM   10  C2  UNL     1      28.251  -0.884  53.123  1.00  0.00    -0.006 C 
HETATM   11  C1  UNL     1      29.111  -1.909  53.327  1.00  0.00     0.076 C 
BRANCH  11  12
HETATM   12  N1  UNL     1      28.422  -3.152  53.069  1.00  0.00    -0.408 N 
HETATM   13  H1  UNL     1      28.577  -4.058  52.560  1.00  0.00     0.155 HD
HETATM   14  H2  UNL     1      27.905  -4.031  52.902  1.00  0.00     0.155 HD
ENDBRANCH  11  12
ENDBRANCH   9  10
ENDBRANCH   7   9
BRANCH   8  15
HETATM   15  C6  UNL     1      26.249   2.303  51.520  1.00  0.00     0.030 C 
HETATM   16  C7  UNL     1      26.486   2.873  50.358  1.00  0.00     0.188 C 
HETATM   17  F1  UNL     1      26.188   4.007  49.707  1.00  0.00    -0.219 F 
ENDBRANCH   8  15
ENDBRANCH   1   7
BRANCH   3  18
HETATM   18  C11 UNL     1      21.595   2.134  52.670  1.00  0.00     0.066 C 
HETATM   19  C12 UNL     1      20.309   2.133  52.292  1.00  0.00     0.077 C 
BRANCH  19  20
HETATM   20  C13 UNL     1      19.272   1.112  52.022  1.00  0.00     0.286 C 
HETATM   21  F2  UNL     1      19.818  -0.128  51.701  1.00  0.00    -0.248 F 
ENDBRANCH  19  20
BRANCH  19  22
HETATM   22  O1  UNL     1      19.664   3.316  52.062  1.00  0.00    -0.345 OA
BRANCH  22  23
HETATM   23  C14 UNL     1      19.852   4.235  51.040  1.00  0.00     0.154 C 
HETATM   24  C15 UNL     1      20.070   3.434  49.756  1.00  0.00     0.061 C 
HETATM   25  C16 UNL     1      21.229   4.120  49.110  1.00  0.00     0.170 C 
HETATM   26  O2  UNL     1      21.416   5.312  49.807  1.00  0.00    -0.389 OA
HETATM   27  C17 UNL     1      21.107   5.045  51.131  1.00  0.00     0.200 C 
ENDBRANCH  22  23
ENDBRANCH  19  22
ENDBRANCH   3  18
TORSDOF 9
ENDMDL
MODEL 9
REMARK VINA RESULT:      -6.6      5.241      8.501
REMARK  9 active torsions:
REMARK  status: ('A' for Active; 'I' for Inactive)
REMARK    1  A    between atoms: N1_1  and  C1_2 
REMARK    2  A    between atoms: C2_3  and  C3_4 
REMARK    3  A    between atoms: C3_4  and  C4_5 
REMARK    4  A    between atoms: C4_5  and  C8_10 
REMARK    5  A    between atoms: C5_6  and  C6_7 
REMARK    6  A    between atoms: C10_12  and  C11_13 
REMARK    7  A    between atoms: C12_14  and  C13_15 
REMARK    8  A    between atoms: C12_14  and  O1_17 
REMARK    9  A    between atoms: O1_17  and  C14_18 
ROOT
HETATM    1  C8  UNL     1      23.060   1.300  51.569  1.00  0.00     0.067 A 
HETATM    2  C9  UNL     1      23.730   2.428  51.176  1.00  0.00     0.064 A 
HETATM    3  C10 UNL     1      23.461   3.083  49.995  1.00  0.00     0.062 A 
HETATM    4  N2  UNL     1      22.481   2.517  49.255  1.00  0.00    -0.242 NA
HETATM    5  C18 UNL     1      21.818   1.418  49.620  1.00  0.00     0.234 A 
HETATM    6  N3  UNL     1      22.109   0.821  50.766  1.00  0.00    -0.242 NA
ENDROOT
BRANCH   1   7
HETATM    7  C4  UNL     1      23.328   0.603  52.818  1.00  0.00    -0.026 C 
HETATM    8  C5  UNL     1      24.503   0.151  53.201  1.00  0.00     0.012 C 
BRANCH   7   9
HETATM    9  C3  UNL     1      22.164   0.379  53.742  1.00  0.00     0.069 C 
BRANCH   9  10
HETATM   10  C2  UNL     1      22.213  -1.050  54.139  1.00  0.00    -0.006 C 
HETATM   11  C1  UNL     1      21.019  -1.651  54.348  1.00  0.00     0.076 C 
BRANCH  11  12
HETATM   12  N1  UNL     1      19.967  -0.688  54.116  1.00  0.00    -0.408 N 
HETATM   13  H1  UNL     1      19.067  -0.604  53.581  1.00  0.00     0.155 HD
HETATM   14  H2  UNL     1      19.230   0.021  53.969  1.00  0.00     0.155 HD
ENDBRANCH  11  12
ENDBRANCH   9  10
ENDBRANCH   7   9
BRANCH   8  15
HETATM   15  C6  UNL     1      25.741   0.274  52.446  1.00  0.00     0.030 C 
HETATM   16  C7  UNL     1      26.704   1.077  52.844  1.00  0.00     0.188 C 
HETATM   17  F1  UNL     1      27.930   1.456  52.456  1.00  0.00    -0.219 F 
ENDBRANCH   8  15
ENDBRANCH   1   7
BRANCH   3  18
HETATM   18  C11 UNL     1      24.079   4.282  49.495  1.00  0.00     0.066 C 
HETATM   19  C12 UNL     1      25.327   4.712  49.262  1.00  0.00     0.077 C 
BRANCH  19  20
HETATM   20  C13 UNL     1      26.695   4.162  49.405  1.00  0.00     0.286 C 
HETATM   21  F2  UNL     1      26.733   2.782  49.231  1.00  0.00    -0.248 F 
ENDBRANCH  19  20
BRANCH  19  22
HETATM   22  O1  UNL     1      25.536   5.967  48.764  1.00  0.00    -0.345 OA
BRANCH  22  23
HETATM   23  C14 UNL     1      26.595   6.836  48.988  1.00  0.00     0.154 C 
HETATM   24  C15 UNL     1      26.154   7.801  50.088  1.00  0.00     0.061 C 
HETATM   25  C16 UNL     1      26.594   9.134  49.578  1.00  0.00     0.170 C 
HETATM   26  O2  UNL     1      27.426   8.882  48.489  1.00  0.00    -0.389 OA
HETATM   27  C17 UNL     1      26.914   7.761  47.856  1.00  0.00     0.200 C 
ENDBRANCH  22  23
ENDBRANCH  19  22
ENDBRANCH   3  18
TORSDOF 9
ENDMDL
