MODEL 1
REMARK VINA RESULT:      -8.1      0.000      0.000
REMARK  6 active torsions:
REMARK  status: ('A' for Active; 'I' for Inactive)
REMARK    1  A    between atoms: C2_3  and  C10_13 
REMARK    2  A    between atoms: C3_4  and  C4_5 
REMARK    3  A    between atoms: C7_8  and  O1_9 
REMARK    4  A    between atoms: C8_10  and  O2_11 
REMARK    5  A    between atoms: C10_13  and  C11_15 
REMARK    6  A    between atoms: C11_15  and  C12_16 
ROOT
HETATM    1  N1  UNL     1      25.072  -1.249  56.786  1.00  0.00    -0.191 NA
HETATM    2  C1  UNL     1      24.670  -1.032  55.714  1.00  0.00     0.103 C 
HETATM    3  C2  UNL     1      24.163  -0.789  54.387  1.00  0.00     0.091 C 
HETATM    4  C3  UNL     1      24.926  -0.490  53.366  1.00  0.00     0.038 C 
ENDROOT
BRANCH   3   5
HETATM    5  C10 UNL     1      22.722  -0.870  54.197  1.00  0.00     0.171 C 
HETATM    6  O3  UNL     1      21.954  -0.985  55.170  1.00  0.00    -0.292 OA
BRANCH   5   7
HETATM    7  C11 UNL     1      22.016  -0.826  52.896  1.00  0.00     0.097 C 
BRANCH   7   8
HETATM    8  C12 UNL     1      21.312   0.512  52.801  1.00  0.00     0.038 C 
HETATM    9  C13 UNL     1      22.342   1.476  52.319  1.00  0.00    -0.018 C 
HETATM   10  C14 UNL     1      22.790   1.977  51.198  1.00  0.00    -0.003 C 
HETATM   11  C15 UNL     1      22.260   1.622  49.872  1.00  0.00    -0.000 C 
HETATM   12  C16 UNL     1      21.082   1.066  49.589  1.00  0.00    -0.000 C 
HETATM   13  C17 UNL     1      20.048   0.685  50.577  1.00  0.00    -0.003 C 
HETATM   14  C18 UNL     1      20.159   0.463  51.887  1.00  0.00    -0.018 C 
ENDBRANCH   7   8
ENDBRANCH   5   7
ENDBRANCH   3   5
BRANCH   4  15
HETATM   15  C4  UNL     1      26.376  -0.351  53.388  1.00  0.00    -0.032 A 
HETATM   16  C5  UNL     1      27.352  -1.283  53.108  1.00  0.00     0.014 A 
HETATM   17  C6  UNL     1      28.676  -0.907  53.181  1.00  0.00     0.040 A 
HETATM   18  C7  UNL     1      29.094   0.360  53.521  1.00  0.00     0.098 A 
HETATM   19  C8  UNL     1      28.103   1.280  53.798  1.00  0.00     0.099 A 
HETATM   20  C9  UNL     1      26.752   0.949  53.738  1.00  0.00     0.051 A 
BRANCH  18  21
HETATM   21  O1  UNL     1      30.448   0.657  53.572  1.00  0.00    -0.358 OA
HETATM   22  H4  UNL     1      31.004   0.251  54.319  1.00  0.00     0.217 HD
ENDBRANCH  18  21
BRANCH  19  23
HETATM   23  O2  UNL     1      28.601   2.552  54.138  1.00  0.00    -0.358 OA
HETATM   24  H5  UNL     1      27.906   3.308  54.079  1.00  0.00     0.217 HD
ENDBRANCH  19  23
ENDBRANCH   4  15
TORSDOF 6
ENDMDL
MODEL 2
REMARK VINA RESULT:      -8.1      2.472      7.176
REMARK  6 active torsions:
REMARK  status: ('A' for Active; 'I' for Inactive)
REMARK    1  A    between atoms: C2_3  and  C10_13 
REMARK    2  A    between atoms: C3_4  and  C4_5 
REMARK    3  A    between atoms: C7_8  and  O1_9 
REMARK    4  A    between atoms: C8_10  and  O2_11 
REMARK    5  A    between atoms: C10_13  and  C11_15 
REMARK    6  A    between atoms: C11_15  and  C12_16 
ROOT
HETATM    1  N1  UNL     1      23.432   4.152  53.034  1.00  0.00    -0.191 NA
HETATM    2  C1  UNL     1      23.911   3.196  52.569  1.00  0.00     0.103 C 
HETATM    3  C2  UNL     1      24.506   2.027  51.971  1.00  0.00     0.091 C 
HETATM    4  C3  UNL     1      23.879   0.886  51.837  1.00  0.00     0.038 C 
ENDROOT
BRANCH   3   5
HETATM    5  C10 UNL     1      25.883   2.140  51.512  1.00  0.00     0.171 C 
HETATM    6  O3  UNL     1      26.285   3.169  50.940  1.00  0.00    -0.292 OA
BRANCH   5   7
HETATM    7  C11 UNL     1      26.932   1.105  51.660  1.00  0.00     0.097 C 
BRANCH   7   8
HETATM    8  C12 UNL     1      26.926   0.648  53.104  1.00  0.00     0.038 C 
HETATM    9  C13 UNL     1      26.918  -0.842  53.056  1.00  0.00    -0.018 C 
HETATM   10  C14 UNL     1      27.757  -1.843  53.062  1.00  0.00    -0.003 C 
HETATM   11  C15 UNL     1      29.220  -1.687  53.135  1.00  0.00    -0.000 C 
HETATM   12  C16 UNL     1      29.904  -0.622  53.552  1.00  0.00    -0.000 C 
HETATM   13  C17 UNL     1      29.314   0.647  54.036  1.00  0.00    -0.003 C 
HETATM   14  C18 UNL     1      28.095   1.150  53.844  1.00  0.00    -0.018 C 
ENDBRANCH   7   8
ENDBRANCH   5   7
ENDBRANCH   3   5
BRANCH   4  15
HETATM   15  C4  UNL     1      22.514   0.602  52.257  1.00  0.00    -0.032 A 
HETATM   16  C5  UNL     1      21.320   1.000  51.694  1.00  0.00     0.014 A 
HETATM   17  C6  UNL     1      20.138   0.584  52.268  1.00  0.00     0.040 A 
HETATM   18  C7  UNL     1      20.071  -0.216  53.386  1.00  0.00     0.098 A 
HETATM   19  C8  UNL     1      21.275  -0.605  53.936  1.00  0.00     0.099 A 
HETATM   20  C9  UNL     1      22.495  -0.212  53.393  1.00  0.00     0.051 A 
BRANCH  18  21
HETATM   21  O1  UNL     1      18.839  -0.590  53.903  1.00  0.00    -0.358 OA
HETATM   22  H4  UNL     1      18.215  -1.136  53.316  1.00  0.00     0.217 HD
ENDBRANCH  18  21
BRANCH  19  23
HETATM   23  O2  UNL     1      21.132  -1.420  55.075  1.00  0.00    -0.358 OA
HETATM   24  H5  UNL     1      20.179  -1.445  55.461  1.00  0.00     0.217 HD
ENDBRANCH  19  23
ENDBRANCH   4  15
TORSDOF 6
ENDMDL
MODEL 3
REMARK VINA RESULT:      -8.0      2.702      3.754
REMARK  6 active torsions:
REMARK  status: ('A' for Active; 'I' for Inactive)
REMARK    1  A    between atoms: C2_3  and  C10_13 
REMARK    2  A    between atoms: C3_4  and  C4_5 
REMARK    3  A    between atoms: C7_8  and  O1_9 
REMARK    4  A    between atoms: C8_10  and  O2_11 
REMARK    5  A    between atoms: C10_13  and  C11_15 
REMARK    6  A    between atoms: C11_15  and  C12_16 
ROOT
HETATM    1  N1  UNL     1      26.792   2.864  50.219  1.00  0.00    -0.191 NA
HETATM    2  C1  UNL     1      26.081   2.507  51.070  1.00  0.00     0.103 C 
HETATM    3  C2  UNL     1      25.198   2.090  52.130  1.00  0.00     0.091 C 
HETATM    4  C3  UNL     1      25.578   1.340  53.134  1.00  0.00     0.038 C 
ENDROOT
BRANCH   3   5
HETATM    5  C10 UNL     1      23.811   2.524  52.053  1.00  0.00     0.171 C 
HETATM    6  O3  UNL     1      23.490   3.525  51.386  1.00  0.00    -0.292 OA
BRANCH   5   7
HETATM    7  C11 UNL     1      22.660   1.869  52.716  1.00  0.00     0.097 C 
BRANCH   7   8
HETATM    8  C12 UNL     1      22.345   0.604  51.945  1.00  0.00     0.038 C 
HETATM    9  C13 UNL     1      22.639  -0.521  52.878  1.00  0.00    -0.018 C 
HETATM   10  C14 UNL     1      22.029  -1.270  53.758  1.00  0.00    -0.003 C 
HETATM   11  C15 UNL     1      20.602  -1.141  54.096  1.00  0.00    -0.000 C 
HETATM   12  C16 UNL     1      19.646  -0.554  53.378  1.00  0.00    -0.000 C 
HETATM   13  C17 UNL     1      19.833   0.103  52.064  1.00  0.00    -0.003 C 
HETATM   14  C18 UNL     1      20.945   0.569  51.493  1.00  0.00    -0.018 C 
ENDBRANCH   7   8
ENDBRANCH   5   7
ENDBRANCH   3   5
BRANCH   4  15
HETATM   15  C4  UNL     1      26.916   0.808  53.350  1.00  0.00    -0.032 A 
HETATM   16  C5  UNL     1      28.067   1.457  53.741  1.00  0.00     0.014 A 
HETATM   17  C6  UNL     1      29.226   0.728  53.899  1.00  0.00     0.040 A 
HETATM   18  C7  UNL     1      29.310  -0.630  53.686  1.00  0.00     0.098 A 
HETATM   19  C8  UNL     1      28.149  -1.264  53.295  1.00  0.00     0.099 A 
HETATM   20  C9  UNL     1      26.953  -0.571  53.124  1.00  0.00     0.051 A 
BRANCH  18  21
HETATM   21  O1  UNL     1      30.517  -1.290  53.867  1.00  0.00    -0.358 OA
HETATM   22  H4  UNL     1      31.334  -0.946  53.371  1.00  0.00     0.217 HD
ENDBRANCH  18  21
BRANCH  19  23
HETATM   23  O2  UNL     1      28.307  -2.648  53.097  1.00  0.00    -0.358 OA
HETATM   24  H5  UNL     1      29.037  -2.898  52.417  1.00  0.00     0.217 HD
ENDBRANCH  19  23
ENDBRANCH   4  15
TORSDOF 6
ENDMDL
MODEL 4
REMARK VINA RESULT:      -7.7      1.836      2.561
REMARK  6 active torsions:
REMARK  status: ('A' for Active; 'I' for Inactive)
REMARK    1  A    between atoms: C2_3  and  C10_13 
REMARK    2  A    between atoms: C3_4  and  C4_5 
REMARK    3  A    between atoms: C7_8  and  O1_9 
REMARK    4  A    between atoms: C8_10  and  O2_11 
REMARK    5  A    between atoms: C10_13  and  C11_15 
REMARK    6  A    between atoms: C11_15  and  C12_16 
ROOT
HETATM    1  N1  UNL     1      24.734   2.117  51.297  1.00  0.00    -0.191 NA
HETATM    2  C1  UNL     1      24.303   1.390  52.100  1.00  0.00     0.103 C 
HETATM    3  C2  UNL     1      23.764   0.510  53.107  1.00  0.00     0.091 C 
HETATM    4  C3  UNL     1      24.490  -0.338  53.790  1.00  0.00     0.038 C 
ENDROOT
BRANCH   3   5
HETATM    5  C10 UNL     1      22.330   0.575  53.349  1.00  0.00     0.171 C 
HETATM    6  O3  UNL     1      21.827   0.046  54.357  1.00  0.00    -0.292 OA
BRANCH   5   7
HETATM    7  C11 UNL     1      21.333   1.243  52.480  1.00  0.00     0.097 C 
BRANCH   7   8
HETATM    8  C12 UNL     1      20.914   0.251  51.415  1.00  0.00     0.038 C 
HETATM    9  C13 UNL     1      19.426   0.208  51.467  1.00  0.00    -0.018 C 
HETATM   10  C14 UNL     1      18.392   0.780  50.908  1.00  0.00    -0.003 C 
HETATM   11  C15 UNL     1      18.492   1.823  49.874  1.00  0.00    -0.000 C 
HETATM   12  C16 UNL     1      19.539   2.102  49.099  1.00  0.00    -0.000 C 
HETATM   13  C17 UNL     1      20.843   1.400  49.124  1.00  0.00    -0.003 C 
HETATM   14  C18 UNL     1      21.389   0.647  50.079  1.00  0.00    -0.018 C 
ENDBRANCH   7   8
ENDBRANCH   5   7
ENDBRANCH   3   5
BRANCH   4  15
HETATM   15  C4  UNL     1      25.926  -0.540  53.658  1.00  0.00    -0.032 A 
HETATM   16  C5  UNL     1      26.619  -1.420  52.856  1.00  0.00     0.014 A 
HETATM   17  C6  UNL     1      27.998  -1.414  52.891  1.00  0.00     0.040 A 
HETATM   18  C7  UNL     1      28.738  -0.572  53.690  1.00  0.00     0.098 A 
HETATM   19  C8  UNL     1      28.028   0.302  54.486  1.00  0.00     0.099 A 
HETATM   20  C9  UNL     1      26.636   0.335  54.486  1.00  0.00     0.051 A 
BRANCH  18  21
HETATM   21  O1  UNL     1      30.124  -0.631  53.666  1.00  0.00    -0.358 OA
HETATM   22  H4  UNL     1      30.603  -0.396  52.801  1.00  0.00     0.217 HD
ENDBRANCH  18  21
BRANCH  19  23
HETATM   23  O2  UNL     1      28.847   1.132  55.275  1.00  0.00    -0.358 OA
HETATM   24  H5  UNL     1      29.638   1.551  54.768  1.00  0.00     0.217 HD
ENDBRANCH  19  23
ENDBRANCH   4  15
TORSDOF 6
ENDMDL
MODEL 5
REMARK VINA RESULT:      -7.7      3.617      5.933
REMARK  6 active torsions:
REMARK  status: ('A' for Active; 'I' for Inactive)
REMARK    1  A    between atoms: C2_3  and  C10_13 
REMARK    2  A    between atoms: C3_4  and  C4_5 
REMARK    3  A    between atoms: C7_8  and  O1_9 
REMARK    4  A    between atoms: C8_10  and  O2_11 
REMARK    5  A    between atoms: C10_13  and  C11_15 
REMARK    6  A    between atoms: C11_15  and  C12_16 
ROOT
HETATM    1  N1  UNL     1      20.149   3.158  52.725  1.00  0.00    -0.191 NA
HETATM    2  C1  UNL     1      20.951   2.728  51.996  1.00  0.00     0.103 C 
HETATM    3  C2  UNL     1      21.924   2.192  51.079  1.00  0.00     0.091 C 
HETATM    4  C3  UNL     1      22.646   1.128  51.330  1.00  0.00     0.038 C 
ENDROOT
BRANCH   3   5
HETATM    5  C10 UNL     1      22.110   2.894  49.817  1.00  0.00     0.171 C 
HETATM    6  O3  UNL     1      21.135   3.207  49.109  1.00  0.00    -0.292 OA
BRANCH   5   7
HETATM    7  C11 UNL     1      23.409   3.312  49.241  1.00  0.00     0.097 C 
BRANCH   7   8
HETATM    8  C12 UNL     1      24.157   4.084  50.309  1.00  0.00     0.038 C 
HETATM    9  C13 UNL     1      25.454   3.372  50.488  1.00  0.00    -0.018 C 
HETATM   10  C14 UNL     1      26.680   3.406  50.036  1.00  0.00    -0.003 C 
HETATM   11  C15 UNL     1      27.156   4.369  49.029  1.00  0.00    -0.000 C 
HETATM   12  C16 UNL     1      26.598   5.529  48.685  1.00  0.00    -0.000 C 
HETATM   13  C17 UNL     1      25.356   6.094  49.262  1.00  0.00    -0.003 C 
HETATM   14  C18 UNL     1      24.370   5.489  49.923  1.00  0.00    -0.018 C 
ENDBRANCH   7   8
ENDBRANCH   5   7
ENDBRANCH   3   5
BRANCH   4  15
HETATM   15  C4  UNL     1      22.597   0.325  52.544  1.00  0.00    -0.032 A 
HETATM   16  C5  UNL     1      21.512  -0.231  53.186  1.00  0.00     0.014 A 
HETATM   17  C6  UNL     1      21.720  -0.977  54.326  1.00  0.00     0.040 A 
HETATM   18  C7  UNL     1      22.962  -1.207  54.874  1.00  0.00     0.098 A 
HETATM   19  C8  UNL     1      24.037  -0.643  54.217  1.00  0.00     0.099 A 
HETATM   20  C9  UNL     1      23.878   0.118  53.062  1.00  0.00     0.051 A 
BRANCH  18  21
HETATM   21  O1  UNL     1      23.085  -1.971  56.026  1.00  0.00    -0.358 OA
HETATM   22  H4  UNL     1      22.286  -2.520  56.328  1.00  0.00     0.217 HD
ENDBRANCH  18  21
BRANCH  19  23
HETATM   23  O2  UNL     1      25.273  -0.919  54.830  1.00  0.00    -0.358 OA
HETATM   24  H5  UNL     1      25.487  -1.921  54.923  1.00  0.00     0.217 HD
ENDBRANCH  19  23
ENDBRANCH   4  15
TORSDOF 6
ENDMDL
MODEL 6
REMARK VINA RESULT:      -7.6      2.109      3.033
REMARK  6 active torsions:
REMARK  status: ('A' for Active; 'I' for Inactive)
REMARK    1  A    between atoms: C2_3  and  C10_13 
REMARK    2  A    between atoms: C3_4  and  C4_5 
REMARK    3  A    between atoms: C7_8  and  O1_9 
REMARK    4  A    between atoms: C8_10  and  O2_11 
REMARK    5  A    between atoms: C10_13  and  C11_15 
REMARK    6  A    between atoms: C11_15  and  C12_16 
ROOT
HETATM    1  N1  UNL     1      24.126  -0.915  54.717  1.00  0.00    -0.191 NA
HETATM    2  C1  UNL     1      24.340  -0.243  53.789  1.00  0.00     0.103 C 
HETATM    3  C2  UNL     1      24.591   0.573  52.628  1.00  0.00     0.091 C 
HETATM    4  C3  UNL     1      25.785   0.777  52.132  1.00  0.00     0.038 C 
ENDROOT
BRANCH   3   5
HETATM    5  C10 UNL     1      23.442   1.208  51.997  1.00  0.00     0.171 C 
HETATM    6  O3  UNL     1      23.510   2.374  51.570  1.00  0.00    -0.292 OA
BRANCH   5   7
HETATM    7  C11 UNL     1      22.115   0.584  51.788  1.00  0.00     0.097 C 
BRANCH   7   8
HETATM    8  C12 UNL     1      21.195   1.085  52.881  1.00  0.00     0.038 C 
HETATM    9  C13 UNL     1      20.125   1.856  52.187  1.00  0.00    -0.018 C 
HETATM   10  C14 UNL     1      18.931   1.675  51.687  1.00  0.00    -0.003 C 
HETATM   11  C15 UNL     1      18.223   0.385  51.704  1.00  0.00    -0.000 C 
HETATM   12  C16 UNL     1      18.463  -0.665  52.488  1.00  0.00    -0.000 C 
HETATM   13  C17 UNL     1      19.517  -0.745  53.524  1.00  0.00    -0.003 C 
HETATM   14  C18 UNL     1      20.627  -0.021  53.671  1.00  0.00    -0.018 C 
ENDBRANCH   7   8
ENDBRANCH   5   7
ENDBRANCH   3   5
BRANCH   4  15
HETATM   15  C4  UNL     1      27.034   0.235  52.650  1.00  0.00    -0.032 A 
HETATM   16  C5  UNL     1      28.095   0.885  53.242  1.00  0.00     0.014 A 
HETATM   17  C6  UNL     1      29.175   0.145  53.675  1.00  0.00     0.040 A 
HETATM   18  C7  UNL     1      29.264  -1.223  53.551  1.00  0.00     0.098 A 
HETATM   19  C8  UNL     1      28.193  -1.857  52.956  1.00  0.00     0.099 A 
HETATM   20  C9  UNL     1      27.080  -1.155  52.503  1.00  0.00     0.051 A 
BRANCH  18  21
HETATM   21  O1  UNL     1      30.389  -1.892  54.013  1.00  0.00    -0.358 OA
HETATM   22  H4  UNL     1      30.433  -2.900  53.894  1.00  0.00     0.217 HD
ENDBRANCH  18  21
BRANCH  19  23
HETATM   23  O2  UNL     1      28.351  -3.252  52.862  1.00  0.00    -0.358 OA
HETATM   24  H5  UNL     1      28.038  -3.655  51.969  1.00  0.00     0.217 HD
ENDBRANCH  19  23
ENDBRANCH   4  15
TORSDOF 6
ENDMDL
MODEL 7
REMARK VINA RESULT:      -7.6      3.153      4.413
REMARK  6 active torsions:
REMARK  status: ('A' for Active; 'I' for Inactive)
REMARK    1  A    between atoms: C2_3  and  C10_13 
REMARK    2  A    between atoms: C3_4  and  C4_5 
REMARK    3  A    between atoms: C7_8  and  O1_9 
REMARK    4  A    between atoms: C8_10  and  O2_11 
REMARK    5  A    between atoms: C10_13  and  C11_15 
REMARK    6  A    between atoms: C11_15  and  C12_16 
ROOT
HETATM    1  N1  UNL     1      23.902  -0.441  54.086  1.00  0.00    -0.191 NA
HETATM    2  C1  UNL     1      24.323   0.229  53.231  1.00  0.00     0.103 C 
HETATM    3  C2  UNL     1      24.831   1.044  52.157  1.00  0.00     0.091 C 
HETATM    4  C3  UNL     1      26.100   1.117  51.842  1.00  0.00     0.038 C 
ENDROOT
BRANCH   3   5
HETATM    5  C10 UNL     1      23.866   1.833  51.404  1.00  0.00     0.171 C 
HETATM    6  O3  UNL     1      22.768   1.353  51.070  1.00  0.00    -0.292 OA
BRANCH   5   7
HETATM    7  C11 UNL     1      24.049   3.235  50.963  1.00  0.00     0.097 C 
BRANCH   7   8
HETATM    8  C12 UNL     1      24.474   3.207  49.509  1.00  0.00     0.038 C 
HETATM    9  C13 UNL     1      23.667   4.261  48.832  1.00  0.00    -0.018 C 
HETATM   10  C14 UNL     1      23.746   5.526  48.513  1.00  0.00    -0.003 C 
HETATM   11  C15 UNL     1      24.908   6.377  48.820  1.00  0.00    -0.000 C 
HETATM   12  C16 UNL     1      26.148   5.987  49.113  1.00  0.00    -0.000 C 
HETATM   13  C17 UNL     1      26.615   4.583  49.192  1.00  0.00    -0.003 C 
HETATM   14  C18 UNL     1      25.916   3.459  49.353  1.00  0.00    -0.018 C 
ENDBRANCH   7   8
ENDBRANCH   5   7
ENDBRANCH   3   5
BRANCH   4  15
HETATM   15  C4  UNL     1      27.190   0.412  52.502  1.00  0.00    -0.032 A 
HETATM   16  C5  UNL     1      28.224   0.910  53.265  1.00  0.00     0.014 A 
HETATM   17  C6  UNL     1      29.137   0.031  53.808  1.00  0.00     0.040 A 
HETATM   18  C7  UNL     1      29.083  -1.333  53.634  1.00  0.00     0.098 A 
HETATM   19  C8  UNL     1      28.042  -1.814  52.867  1.00  0.00     0.099 A 
HETATM   20  C9  UNL     1      27.094  -0.968  52.298  1.00  0.00     0.051 A 
BRANCH  18  21
HETATM   21  O1  UNL     1      30.044  -2.148  54.215  1.00  0.00    -0.358 OA
HETATM   22  H4  UNL     1      30.826  -1.708  54.691  1.00  0.00     0.217 HD
ENDBRANCH  18  21
BRANCH  19  23
HETATM   23  O2  UNL     1      28.048  -3.215  52.731  1.00  0.00    -0.358 OA
HETATM   24  H5  UNL     1      28.755  -3.574  52.075  1.00  0.00     0.217 HD
ENDBRANCH  19  23
ENDBRANCH   4  15
TORSDOF 6
ENDMDL
MODEL 8
REMARK VINA RESULT:      -7.4      5.846      8.292
REMARK  6 active torsions:
REMARK  status: ('A' for Active; 'I' for Inactive)
REMARK    1  A    between atoms: C2_3  and  C10_13 
REMARK    2  A    between atoms: C3_4  and  C4_5 
REMARK    3  A    between atoms: C7_8  and  O1_9 
REMARK    4  A    between atoms: C8_10  and  O2_11 
REMARK    5  A    between atoms: C10_13  and  C11_15 
REMARK    6  A    between atoms: C11_15  and  C12_16 
ROOT
HETATM    1  N1  UNL     1      28.297   4.786  48.457  1.00  0.00    -0.191 NA
HETATM    2  C1  UNL     1      27.268   4.700  48.999  1.00  0.00     0.103 C 
HETATM    3  C2  UNL     1      25.989   4.579  49.650  1.00  0.00     0.091 C 
HETATM    4  C3  UNL     1      25.165   5.582  49.819  1.00  0.00     0.038 C 
ENDROOT
BRANCH   3   5
HETATM    5  C10 UNL     1      25.619   3.264  50.154  1.00  0.00     0.171 C 
HETATM    6  O3  UNL     1      24.434   2.882  50.136  1.00  0.00    -0.292 OA
BRANCH   5   7
HETATM    7  C11 UNL     1      26.549   2.260  50.720  1.00  0.00     0.097 C 
BRANCH   7   8
HETATM    8  C12 UNL     1      26.101   1.966  52.137  1.00  0.00     0.038 C 
HETATM    9  C13 UNL     1      25.870   0.494  52.190  1.00  0.00    -0.018 C 
HETATM   10  C14 UNL     1      26.511  -0.604  52.490  1.00  0.00    -0.003 C 
HETATM   11  C15 UNL     1      27.912  -0.638  52.943  1.00  0.00    -0.000 C 
HETATM   12  C16 UNL     1      28.626   0.363  53.455  1.00  0.00    -0.000 C 
HETATM   13  C17 UNL     1      28.140   1.745  53.675  1.00  0.00    -0.003 C 
HETATM   14  C18 UNL     1      27.106   2.383  53.128  1.00  0.00    -0.018 C 
ENDBRANCH   7   8
ENDBRANCH   5   7
ENDBRANCH   3   5
BRANCH   4  15
HETATM   15  C4  UNL     1      25.389   6.957  49.394  1.00  0.00    -0.032 A 
HETATM   16  C5  UNL     1      24.971   7.602  48.249  1.00  0.00     0.014 A 
HETATM   17  C6  UNL     1      25.295   8.931  48.074  1.00  0.00     0.040 A 
HETATM   18  C7  UNL     1      26.020   9.667  48.983  1.00  0.00     0.098 A 
HETATM   19  C8  UNL     1      26.430   9.006  50.123  1.00  0.00     0.099 A 
HETATM   20  C9  UNL     1      26.128   7.665  50.346  1.00  0.00     0.051 A 
BRANCH  18  21
HETATM   21  O1  UNL     1      26.305  11.002  48.730  1.00  0.00    -0.358 OA
HETATM   22  H4  UNL     1      25.553  11.602  48.404  1.00  0.00     0.217 HD
ENDBRANCH  18  21
BRANCH  19  23
HETATM   23  O2  UNL     1      27.166   9.818  51.007  1.00  0.00    -0.358 OA
HETATM   24  H5  UNL     1      27.376  10.757  50.643  1.00  0.00     0.217 HD
ENDBRANCH  19  23
ENDBRANCH   4  15
TORSDOF 6
ENDMDL
MODEL 9
REMARK VINA RESULT:      -7.3      3.251      4.170
REMARK  6 active torsions:
REMARK  status: ('A' for Active; 'I' for Inactive)
REMARK    1  A    between atoms: C2_3  and  C10_13 
REMARK    2  A    between atoms: C3_4  and  C4_5 
REMARK    3  A    between atoms: C7_8  and  O1_9 
REMARK    4  A    between atoms: C8_10  and  O2_11 
REMARK    5  A    between atoms: C10_13  and  C11_15 
REMARK    6  A    between atoms: C11_15  and  C12_16 
ROOT
HETATM    1  N1  UNL     1      26.969   3.107  50.657  1.00  0.00    -0.191 NA
HETATM    2  C1  UNL     1      26.174   2.395  51.126  1.00  0.00     0.103 C 
HETATM    3  C2  UNL     1      25.182   1.533  51.719  1.00  0.00     0.091 C 
HETATM    4  C3  UNL     1      25.475   0.522  52.497  1.00  0.00     0.038 C 
ENDROOT
BRANCH   3   5
HETATM    5  C10 UNL     1      23.787   1.811  51.409  1.00  0.00     0.171 C 
HETATM    6  O3  UNL     1      22.890   1.010  51.727  1.00  0.00    -0.292 OA
BRANCH   5   7
HETATM    7  C11 UNL     1      23.277   3.018  50.719  1.00  0.00     0.097 C 
BRANCH   7   8
HETATM    8  C12 UNL     1      22.728   3.954  51.776  1.00  0.00     0.038 C 
HETATM    9  C13 UNL     1      23.703   5.077  51.867  1.00  0.00    -0.018 C 
HETATM   10  C14 UNL     1      23.906   6.264  51.359  1.00  0.00    -0.003 C 
HETATM   11  C15 UNL     1      23.020   6.892  50.365  1.00  0.00    -0.000 C 
HETATM   12  C16 UNL     1      21.754   6.579  50.090  1.00  0.00    -0.000 C 
HETATM   13  C17 UNL     1      20.968   5.509  50.745  1.00  0.00    -0.003 C 
HETATM   14  C18 UNL     1      21.383   4.443  51.432  1.00  0.00    -0.018 C 
ENDBRANCH   7   8
ENDBRANCH   5   7
ENDBRANCH   3   5
BRANCH   4  15
HETATM   15  C4  UNL     1      26.812   0.099  52.889  1.00  0.00    -0.032 A 
HETATM   16  C5  UNL     1      27.859   0.845  53.387  1.00  0.00     0.014 A 
HETATM   17  C6  UNL     1      29.040   0.210  53.707  1.00  0.00     0.040 A 
HETATM   18  C7  UNL     1      29.245  -1.143  53.558  1.00  0.00     0.098 A 
HETATM   19  C8  UNL     1      28.187  -1.874  53.058  1.00  0.00     0.099 A 
HETATM   20  C9  UNL     1      26.974  -1.279  52.721  1.00  0.00     0.051 A 
BRANCH  18  21
HETATM   21  O1  UNL     1      30.466  -1.704  53.903  1.00  0.00    -0.358 OA
HETATM   22  H4  UNL     1      30.630  -1.945  54.877  1.00  0.00     0.217 HD
ENDBRANCH  18  21
BRANCH  19  23
HETATM   23  O2  UNL     1      28.466  -3.248  52.932  1.00  0.00    -0.358 OA
HETATM   24  H5  UNL     1      29.114  -3.615  53.642  1.00  0.00     0.217 HD
ENDBRANCH  19  23
ENDBRANCH   4  15
TORSDOF 6
ENDMDL
