MODEL 1
REMARK VINA RESULT:      -8.1      0.000      0.000
REMARK  1 active torsions:
REMARK  status: ('A' for Active; 'I' for Inactive)
REMARK    1  A    between atoms: O1_2  and  C2_3 
ROOT
HETATM    1  C2  UNL     1      26.459   1.554  53.837  1.00  0.00     0.069 A 
HETATM    2  C3  UNL     1      26.417   0.383  54.583  1.00  0.00     0.039 A 
HETATM    3  C4  UNL     1      25.355  -0.507  54.489  1.00  0.00     0.041 A 
HETATM    4  C5  UNL     1      24.323  -0.198  53.624  1.00  0.00     0.089 A 
HETATM    5  C6  UNL     1      24.312   0.968  52.847  1.00  0.00     0.032 A 
HETATM    6  C7  UNL     1      25.399   1.831  52.974  1.00  0.00     0.053 A 
HETATM    7  C8  UNL     1      23.307   1.456  51.884  1.00  0.00     0.101 C 
HETATM    8  C9  UNL     1      22.047   1.012  51.786  1.00  0.00     0.103 C 
HETATM    9  N1  UNL     1      21.471   0.011  52.578  1.00  0.00    -0.236 NA
HETATM   10  C10 UNL     1      21.968  -0.894  53.338  1.00  0.00     0.259 C 
HETATM   11  O2  UNL     1      23.316  -1.183  53.628  1.00  0.00    -0.303 OA
HETATM   12  C11 UNL     1      21.105   1.558  50.806  1.00  0.00     0.247 C 
HETATM   13  F1  UNL     1      19.811   1.218  51.245  1.00  0.00    -0.238 F 
HETATM   14  C12 UNL     1      21.322   0.912  49.511  1.00  0.00     0.014 C 
HETATM   15  C13 UNL     1      21.918   1.358  48.423  1.00  0.00    -0.008 C 
HETATM   16  C14 UNL     1      22.559   2.631  48.133  1.00  0.00     0.149 C 
HETATM   17  N2  UNL     1      22.575   3.573  49.216  1.00  0.00    -0.362 N 
HETATM   18  C15 UNL     1      23.440   3.052  50.207  1.00  0.00     0.197 C 
HETATM   19 CL1  UNL     1      24.854   4.042  49.792  1.00  0.00    -0.043 Cl
HETATM   20  N3  UNL     1      24.021   2.439  51.159  1.00  0.00    -0.217 NA
HETATM   21  H13 UNL     1      22.115   4.507  49.432  1.00  0.00     0.162 HD
ENDROOT
BRANCH   1  22
HETATM   22  O1  UNL     1      27.497   2.473  53.895  1.00  0.00    -0.356 OA
HETATM   23  C1  UNL     1      28.817   1.989  53.833  1.00  0.00     0.210 C 
ENDBRANCH   1  22
TORSDOF 1
ENDMDL
MODEL 2
REMARK VINA RESULT:      -8.1      2.651      4.209
REMARK  1 active torsions:
REMARK  status: ('A' for Active; 'I' for Inactive)
REMARK    1  A    between atoms: O1_2  and  C2_3 
ROOT
HETATM    1  C2  UNL     1      27.561   0.472  53.736  1.00  0.00     0.069 A 
HETATM    2  C3  UNL     1      28.143   1.558  53.094  1.00  0.00     0.039 A 
HETATM    3  C4  UNL     1      27.408   2.400  52.269  1.00  0.00     0.041 A 
HETATM    4  C5  UNL     1      26.064   2.130  52.097  1.00  0.00     0.089 A 
HETATM    5  C6  UNL     1      25.425   1.051  52.720  1.00  0.00     0.032 A 
HETATM    6  C7  UNL     1      26.201   0.233  53.538  1.00  0.00     0.053 A 
HETATM    7  C8  UNL     1      24.017   0.615  52.650  1.00  0.00     0.101 C 
HETATM    8  C9  UNL     1      23.129   1.004  51.727  1.00  0.00     0.103 C 
HETATM    9  N1  UNL     1      23.384   1.890  50.673  1.00  0.00    -0.236 NA
HETATM   10  C10 UNL     1      24.321   2.737  50.452  1.00  0.00     0.259 C 
HETATM   11  O2  UNL     1      25.444   3.060  51.239  1.00  0.00    -0.303 OA
HETATM   12  C11 UNL     1      21.748   0.515  51.722  1.00  0.00     0.247 C 
HETATM   13  F1  UNL     1      21.235   0.746  50.431  1.00  0.00    -0.238 F 
HETATM   14  C12 UNL     1      20.952   1.299  52.666  1.00  0.00     0.014 C 
HETATM   15  C13 UNL     1      20.512   0.996  53.872  1.00  0.00    -0.008 C 
HETATM   16  C14 UNL     1      20.665  -0.209  54.673  1.00  0.00     0.149 C 
HETATM   17  N2  UNL     1      21.444  -1.254  54.073  1.00  0.00    -0.362 N 
HETATM   18  C15 UNL     1      22.781  -0.795  54.015  1.00  0.00     0.197 C 
HETATM   19 CL1  UNL     1      23.364  -1.668  55.447  1.00  0.00    -0.043 Cl
HETATM   20  N3  UNL     1      23.905  -0.254  53.761  1.00  0.00    -0.217 NA
HETATM   21  H13 UNL     1      21.260  -2.226  53.684  1.00  0.00     0.162 HD
ENDROOT
BRANCH   1  22
HETATM   22  O1  UNL     1      28.252  -0.397  54.569  1.00  0.00    -0.356 OA
HETATM   23  C1  UNL     1      29.501  -0.878  54.136  1.00  0.00     0.210 C 
ENDBRANCH   1  22
TORSDOF 1
ENDMDL
MODEL 3
REMARK VINA RESULT:      -8.0      3.081      4.610
REMARK  1 active torsions:
REMARK  status: ('A' for Active; 'I' for Inactive)
REMARK    1  A    between atoms: O1_2  and  C2_3 
ROOT
HETATM    1  C2  UNL     1      21.615  -0.932  54.295  1.00  0.00     0.069 A 
HETATM    2  C3  UNL     1      20.275  -0.959  53.928  1.00  0.00     0.039 A 
HETATM    3  C4  UNL     1      19.728   0.003  53.089  1.00  0.00     0.041 A 
HETATM    4  C5  UNL     1      20.556   1.004  52.619  1.00  0.00     0.089 A 
HETATM    5  C6  UNL     1      21.914   1.080  52.955  1.00  0.00     0.032 A 
HETATM    6  C7  UNL     1      22.419   0.094  53.800  1.00  0.00     0.053 A 
HETATM    7  C8  UNL     1      22.935   2.067  52.555  1.00  0.00     0.101 C 
HETATM    8  C9  UNL     1      22.686   3.268  52.018  1.00  0.00     0.103 C 
HETATM    9  N1  UNL     1      21.416   3.791  51.746  1.00  0.00    -0.236 NA
HETATM   10  C10 UNL     1      20.255   3.256  51.645  1.00  0.00     0.259 C 
HETATM   11  O2  UNL     1      19.872   1.907  51.782  1.00  0.00    -0.303 OA
HETATM   12  C11 UNL     1      23.760   4.195  51.657  1.00  0.00     0.247 C 
HETATM   13  F1  UNL     1      23.181   5.474  51.551  1.00  0.00    -0.238 F 
HETATM   14  C12 UNL     1      24.291   3.835  50.341  1.00  0.00     0.014 C 
HETATM   15  C13 UNL     1      25.409   3.219  50.011  1.00  0.00    -0.008 C 
HETATM   16  C14 UNL     1      26.490   2.689  50.827  1.00  0.00     0.149 C 
HETATM   17  N2  UNL     1      26.319   2.833  52.245  1.00  0.00    -0.362 N 
HETATM   18  C15 UNL     1      25.252   1.986  52.623  1.00  0.00     0.197 C 
HETATM   19 CL1  UNL     1      26.251   0.653  53.237  1.00  0.00    -0.043 Cl
HETATM   20  N3  UNL     1      24.146   1.408  52.876  1.00  0.00    -0.217 NA
HETATM   21  H13 UNL     1      26.777   3.396  53.023  1.00  0.00     0.162 HD
ENDROOT
BRANCH   1  22
HETATM   22  O1  UNL     1      22.209  -1.868  55.129  1.00  0.00    -0.356 OA
HETATM   23  C1  UNL     1      23.471  -1.567  55.673  1.00  0.00     0.210 C 
ENDBRANCH   1  22
TORSDOF 1
ENDMDL
MODEL 4
REMARK VINA RESULT:      -8.0      2.656      3.431
REMARK  1 active torsions:
REMARK  status: ('A' for Active; 'I' for Inactive)
REMARK    1  A    between atoms: O1_2  and  C2_3 
ROOT
HETATM    1  C2  UNL     1      24.012  -0.378  53.725  1.00  0.00     0.069 A 
HETATM    2  C3  UNL     1      22.756  -0.926  53.947  1.00  0.00     0.039 A 
HETATM    3  C4  UNL     1      21.594  -0.270  53.561  1.00  0.00     0.041 A 
HETATM    4  C5  UNL     1      21.716   0.959  52.942  1.00  0.00     0.089 A 
HETATM    5  C6  UNL     1      22.957   1.559  52.693  1.00  0.00     0.032 A 
HETATM    6  C7  UNL     1      24.095   0.865  53.097  1.00  0.00     0.053 A 
HETATM    7  C8  UNL     1      23.274   2.851  52.054  1.00  0.00     0.101 C 
HETATM    8  C9  UNL     1      22.405   3.849  51.851  1.00  0.00     0.103 C 
HETATM    9  N1  UNL     1      21.052   3.838  52.209  1.00  0.00    -0.236 NA
HETATM   10  C10 UNL     1      20.240   2.897  52.522  1.00  0.00     0.259 C 
HETATM   11  O2  UNL     1      20.463   1.509  52.606  1.00  0.00    -0.303 OA
HETATM   12  C11 UNL     1      22.804   5.108  51.217  1.00  0.00     0.247 C 
HETATM   13  F1  UNL     1      21.826   6.064  51.549  1.00  0.00    -0.238 F 
HETATM   14  C12 UNL     1      22.793   4.944  49.763  1.00  0.00     0.014 C 
HETATM   15  C13 UNL     1      23.789   4.795  48.912  1.00  0.00    -0.008 C 
HETATM   16  C14 UNL     1      25.228   4.742  49.119  1.00  0.00     0.149 C 
HETATM   17  N2  UNL     1      25.658   4.847  50.485  1.00  0.00    -0.362 N 
HETATM   18  C15 UNL     1      25.245   3.666  51.143  1.00  0.00     0.197 C 
HETATM   19 CL1  UNL     1      26.812   2.834  51.084  1.00  0.00    -0.043 Cl
HETATM   20  N3  UNL     1      24.648   2.715  51.744  1.00  0.00    -0.217 NA
HETATM   21  H13 UNL     1      26.177   5.562  51.076  1.00  0.00     0.162 HD
ENDROOT
BRANCH   1  22
HETATM   22  O1  UNL     1      25.202  -0.993  54.091  1.00  0.00    -0.356 OA
HETATM   23  C1  UNL     1      26.361  -0.688  53.354  1.00  0.00     0.210 C 
ENDBRANCH   1  22
TORSDOF 1
ENDMDL
MODEL 5
REMARK VINA RESULT:      -7.9      2.409      4.366
REMARK  1 active torsions:
REMARK  status: ('A' for Active; 'I' for Inactive)
REMARK    1  A    between atoms: O1_2  and  C2_3 
ROOT
HETATM    1  C2  UNL     1      23.760  -0.809  54.180  1.00  0.00     0.069 A 
HETATM    2  C3  UNL     1      24.768  -0.820  55.136  1.00  0.00     0.039 A 
HETATM    3  C4  UNL     1      25.878   0.008  55.038  1.00  0.00     0.041 A 
HETATM    4  C5  UNL     1      25.962   0.857  53.951  1.00  0.00     0.089 A 
HETATM    5  C6  UNL     1      24.976   0.911  52.958  1.00  0.00     0.032 A 
HETATM    6  C7  UNL     1      23.880   0.062  53.098  1.00  0.00     0.053 A 
HETATM    7  C8  UNL     1      24.901   1.743  51.741  1.00  0.00     0.101 C 
HETATM    8  C9  UNL     1      25.925   2.407  51.192  1.00  0.00     0.103 C 
HETATM    9  N1  UNL     1      27.238   2.428  51.677  1.00  0.00    -0.236 NA
HETATM   10  C10 UNL     1      27.755   2.118  52.808  1.00  0.00     0.259 C 
HETATM   11  O2  UNL     1      27.135   1.636  53.978  1.00  0.00    -0.303 OA
HETATM   12  C11 UNL     1      25.768   3.206  49.973  1.00  0.00     0.247 C 
HETATM   13  F1  UNL     1      27.056   3.390  49.434  1.00  0.00    -0.238 F 
HETATM   14  C12 UNL     1      25.236   4.524  50.321  1.00  0.00     0.014 C 
HETATM   15  C13 UNL     1      24.021   5.017  50.185  1.00  0.00    -0.008 C 
HETATM   16  C14 UNL     1      22.801   4.432  49.650  1.00  0.00     0.149 C 
HETATM   17  N2  UNL     1      22.915   3.071  49.207  1.00  0.00    -0.362 N 
HETATM   18  C15 UNL     1      23.117   2.274  50.357  1.00  0.00     0.197 C 
HETATM   19 CL1  UNL     1      21.442   1.710  50.519  1.00  0.00    -0.043 Cl
HETATM   20  N3  UNL     1      23.538   1.636  51.375  1.00  0.00    -0.217 NA
HETATM   21  H13 UNL     1      22.887   2.560  48.275  1.00  0.00     0.162 HD
ENDROOT
BRANCH   1  22
HETATM   22  O1  UNL     1      22.632  -1.616  54.234  1.00  0.00    -0.356 OA
HETATM   23  C1  UNL     1      21.382  -0.998  54.426  1.00  0.00     0.210 C 
ENDBRANCH   1  22
TORSDOF 1
ENDMDL
MODEL 6
REMARK VINA RESULT:      -7.9      3.172      6.181
REMARK  1 active torsions:
REMARK  status: ('A' for Active; 'I' for Inactive)
REMARK    1  A    between atoms: O1_2  and  C2_3 
ROOT
HETATM    1  C2  UNL     1      19.716  -0.013  52.407  1.00  0.00     0.069 A 
HETATM    2  C3  UNL     1      19.183   0.350  51.177  1.00  0.00     0.039 A 
HETATM    3  C4  UNL     1      19.963   0.936  50.187  1.00  0.00     0.041 A 
HETATM    4  C5  UNL     1      21.300   1.153  50.457  1.00  0.00     0.089 A 
HETATM    5  C6  UNL     1      21.890   0.807  51.679  1.00  0.00     0.032 A 
HETATM    6  C7  UNL     1      21.070   0.222  52.642  1.00  0.00     0.053 A 
HETATM    7  C8  UNL     1      23.284   0.965  52.137  1.00  0.00     0.101 C 
HETATM    8  C9  UNL     1      24.202   1.755  51.567  1.00  0.00     0.103 C 
HETATM    9  N1  UNL     1      23.998   2.563  50.442  1.00  0.00    -0.236 NA
HETATM   10  C10 UNL     1      23.095   2.581  49.533  1.00  0.00     0.259 C 
HETATM   11  O2  UNL     1      21.968   1.751  49.370  1.00  0.00    -0.303 OA
HETATM   12  C11 UNL     1      25.566   1.864  52.092  1.00  0.00     0.247 C 
HETATM   13  F1  UNL     1      26.113   3.053  51.573  1.00  0.00    -0.238 F 
HETATM   14  C12 UNL     1      26.369   0.748  51.592  1.00  0.00     0.014 C 
HETATM   15  C13 UNL     1      26.774  -0.352  52.197  1.00  0.00    -0.008 C 
HETATM   16  C14 UNL     1      26.565  -0.832  53.554  1.00  0.00     0.149 C 
HETATM   17  N2  UNL     1      25.763   0.014  54.391  1.00  0.00    -0.362 N 
HETATM   18  C15 UNL     1      24.444  -0.027  53.882  1.00  0.00     0.197 C 
HETATM   19 CL1  UNL     1      23.804  -1.196  55.056  1.00  0.00    -0.043 Cl
HETATM   20  N3  UNL     1      23.344   0.099  53.254  1.00  0.00    -0.217 NA
HETATM   21  H13 UNL     1      25.923   0.627  55.246  1.00  0.00     0.162 HD
ENDROOT
BRANCH   1  22
HETATM   22  O1  UNL     1      18.980  -0.600  53.427  1.00  0.00    -0.356 OA
HETATM   23  C1  UNL     1      17.792  -1.274  53.085  1.00  0.00     0.210 C 
ENDBRANCH   1  22
TORSDOF 1
ENDMDL
MODEL 7
REMARK VINA RESULT:      -7.8      2.439      3.987
REMARK  1 active torsions:
REMARK  status: ('A' for Active; 'I' for Inactive)
REMARK    1  A    between atoms: O1_2  and  C2_3 
ROOT
HETATM    1  C2  UNL     1      26.092  -0.177  54.046  1.00  0.00     0.069 A 
HETATM    2  C3  UNL     1      27.399   0.253  53.858  1.00  0.00     0.039 A 
HETATM    3  C4  UNL     1      27.715   1.260  52.955  1.00  0.00     0.041 A 
HETATM    4  C5  UNL     1      26.685   1.833  52.235  1.00  0.00     0.089 A 
HETATM    5  C6  UNL     1      25.349   1.440  52.384  1.00  0.00     0.032 A 
HETATM    6  C7  UNL     1      25.079   0.426  53.301  1.00  0.00     0.053 A 
HETATM    7  C8  UNL     1      24.134   1.933  51.706  1.00  0.00     0.101 C 
HETATM    8  C9  UNL     1      24.115   2.662  50.583  1.00  0.00     0.103 C 
HETATM    9  N1  UNL     1      25.240   3.081  49.863  1.00  0.00    -0.236 NA
HETATM   10  C10 UNL     1      26.485   3.161  50.158  1.00  0.00     0.259 C 
HETATM   11  O2  UNL     1      27.146   2.837  51.360  1.00  0.00    -0.303 OA
HETATM   12  C11 UNL     1      22.862   3.104  49.966  1.00  0.00     0.247 C 
HETATM   13  F1  UNL     1      23.156   3.439  48.631  1.00  0.00    -0.238 F 
HETATM   14  C12 UNL     1      22.392   4.317  50.637  1.00  0.00     0.014 C 
HETATM   15  C13 UNL     1      21.422   4.487  51.514  1.00  0.00    -0.008 C 
HETATM   16  C14 UNL     1      20.493   3.540  52.113  1.00  0.00     0.149 C 
HETATM   17  N2  UNL     1      20.659   2.174  51.707  1.00  0.00    -0.362 N 
HETATM   18  C15 UNL     1      21.888   1.727  52.246  1.00  0.00     0.197 C 
HETATM   19 CL1  UNL     1      21.205   0.860  53.637  1.00  0.00    -0.043 Cl
HETATM   20  N3  UNL     1      23.096   1.448  52.536  1.00  0.00    -0.217 NA
HETATM   21  H13 UNL     1      20.110   1.469  51.131  1.00  0.00     0.162 HD
ENDROOT
BRANCH   1  22
HETATM   22  O1  UNL     1      25.726  -1.178  54.935  1.00  0.00    -0.356 OA
HETATM   23  C1  UNL     1      24.402  -1.190  55.413  1.00  0.00     0.210 C 
ENDBRANCH   1  22
TORSDOF 1
ENDMDL
MODEL 8
REMARK VINA RESULT:      -7.8      3.115      4.628
REMARK  1 active torsions:
REMARK  status: ('A' for Active; 'I' for Inactive)
REMARK    1  A    between atoms: O1_2  and  C2_3 
ROOT
HETATM    1  C2  UNL     1      24.884   3.337  51.038  1.00  0.00     0.069 A 
HETATM    2  C3  UNL     1      26.147   2.856  50.716  1.00  0.00     0.039 A 
HETATM    3  C4  UNL     1      26.616   1.646  51.211  1.00  0.00     0.041 A 
HETATM    4  C5  UNL     1      25.788   0.919  52.043  1.00  0.00     0.089 A 
HETATM    5  C6  UNL     1      24.506   1.354  52.400  1.00  0.00     0.032 A 
HETATM    6  C7  UNL     1      24.077   2.574  51.881  1.00  0.00     0.053 A 
HETATM    7  C8  UNL     1      23.496   0.719  53.269  1.00  0.00     0.101 C 
HETATM    8  C9  UNL     1      23.733  -0.276  54.133  1.00  0.00     0.103 C 
HETATM    9  N1  UNL     1      24.976  -0.881  54.360  1.00  0.00    -0.236 NA
HETATM   10  C10 UNL     1      26.072  -0.897  53.696  1.00  0.00     0.259 C 
HETATM   11  O2  UNL     1      26.389  -0.282  52.469  1.00  0.00    -0.303 OA
HETATM   12  C11 UNL     1      22.675  -0.847  54.969  1.00  0.00     0.247 C 
HETATM   13  F1  UNL     1      23.307  -1.519  56.033  1.00  0.00    -0.238 F 
HETATM   14  C12 UNL     1      21.927  -1.839  54.196  1.00  0.00     0.014 C 
HETATM   15  C13 UNL     1      20.736  -1.764  53.635  1.00  0.00    -0.008 C 
HETATM   16  C14 UNL     1      19.763  -0.683  53.589  1.00  0.00     0.149 C 
HETATM   17  N2  UNL     1      20.159   0.530  54.246  1.00  0.00    -0.362 N 
HETATM   18  C15 UNL     1      21.217   1.085  53.491  1.00  0.00     0.197 C 
HETATM   19 CL1  UNL     1      20.245   2.291  52.623  1.00  0.00    -0.043 Cl
HETATM   20  N3  UNL     1      22.312   1.415  52.930  1.00  0.00    -0.217 NA
HETATM   21  H13 UNL     1      19.861   1.068  55.114  1.00  0.00     0.162 HD
ENDROOT
BRANCH   1  22
HETATM   22  O1  UNL     1      24.370   4.539  50.570  1.00  0.00    -0.356 OA
HETATM   23  C1  UNL     1      23.710   5.379  51.486  1.00  0.00     0.210 C 
ENDBRANCH   1  22
TORSDOF 1
ENDMDL
MODEL 9
REMARK VINA RESULT:      -7.6      2.524      3.215
REMARK  1 active torsions:
REMARK  status: ('A' for Active; 'I' for Inactive)
REMARK    1  A    between atoms: O1_2  and  C2_3 
ROOT
HETATM    1  C2  UNL     1      25.807   2.916  51.105  1.00  0.00     0.069 A 
HETATM    2  C3  UNL     1      26.769   1.952  51.381  1.00  0.00     0.039 A 
HETATM    3  C4  UNL     1      26.455   0.778  52.054  1.00  0.00     0.041 A 
HETATM    4  C5  UNL     1      25.146   0.586  52.450  1.00  0.00     0.089 A 
HETATM    5  C6  UNL     1      24.135   1.523  52.197  1.00  0.00     0.032 A 
HETATM    6  C7  UNL     1      24.496   2.685  51.520  1.00  0.00     0.053 A 
HETATM    7  C8  UNL     1      22.701   1.487  52.543  1.00  0.00     0.101 C 
HETATM    8  C9  UNL     1      22.141   0.668  53.442  1.00  0.00     0.103 C 
HETATM    9  N1  UNL     1      22.817  -0.293  54.204  1.00  0.00    -0.236 NA
HETATM   10  C10 UNL     1      23.970  -0.841  54.092  1.00  0.00     0.259 C 
HETATM   11  O2  UNL     1      24.970  -0.641  53.119  1.00  0.00    -0.303 OA
HETATM   12  C11 UNL     1      20.706   0.703  53.736  1.00  0.00     0.247 C 
HETATM   13  F1  UNL     1      20.525   0.071  54.981  1.00  0.00    -0.238 F 
HETATM   14  C12 UNL     1      19.985  -0.079  52.731  1.00  0.00     0.014 C 
HETATM   15  C13 UNL     1      19.261   0.315  51.701  1.00  0.00    -0.008 C 
HETATM   16  C14 UNL     1      18.932   1.645  51.211  1.00  0.00     0.149 C 
HETATM   17  N2  UNL     1      19.502   2.733  51.953  1.00  0.00    -0.362 N 
HETATM   18  C15 UNL     1      20.899   2.700  51.732  1.00  0.00     0.197 C 
HETATM   19 CL1  UNL     1      20.946   3.979  50.501  1.00  0.00    -0.043 Cl
HETATM   20  N3  UNL     1      22.154   2.487  51.705  1.00  0.00    -0.217 NA
HETATM   21  H13 UNL     1      19.141   3.504  52.590  1.00  0.00     0.162 HD
ENDROOT
BRANCH   1  22
HETATM   22  O1  UNL     1      26.071   4.103  50.436  1.00  0.00    -0.356 OA
HETATM   23  C1  UNL     1      26.831   4.044  49.253  1.00  0.00     0.210 C 
ENDBRANCH   1  22
TORSDOF 1
ENDMDL
