MODEL 1
REMARK VINA RESULT:      -9.7      0.000      0.000
REMARK  4 active torsions:
REMARK  status: ('A' for Active; 'I' for Inactive)
REMARK    1  A    between atoms: C7_7  and  N1_8 
REMARK    2  A    between atoms: N1_8  and  C8_9 
REMARK    3  A    between atoms: C12_15  and  O1_16 
REMARK    4  A    between atoms: O1_16  and  C13_17 
ROOT
HETATM    1  C1  UNL     1      16.683  -4.519  53.834  1.00  0.00     0.018 C 
HETATM    2  C2  UNL     1      16.817  -3.420  53.358  1.00  0.00    -0.078 C 
HETATM    3  C3  UNL     1      16.961  -2.108  52.778  1.00  0.00     0.019 A 
HETATM    4  C4  UNL     1      15.867  -1.478  52.226  1.00  0.00     0.021 A 
HETATM    5  C5  UNL     1      16.051  -0.224  51.679  1.00  0.00     0.004 A 
HETATM    6  C6  UNL     1      17.305   0.331  51.710  1.00  0.00     0.029 A 
HETATM    7  C7  UNL     1      18.431  -0.241  52.241  1.00  0.00     0.034 A 
HETATM    8  C23 UNL     1      18.192  -1.493  52.776  1.00  0.00     0.050 A 
ENDROOT
BRANCH   7   9
HETATM    9  N1  UNL     1      19.738   0.285  52.302  1.00  0.00    -0.344 N 
HETATM   10  H5  UNL     1      19.989   1.091  51.691  1.00  0.00     0.167 HD
BRANCH   9  11
HETATM   11  C8  UNL     1      20.780  -0.185  53.135  1.00  0.00     0.118 C 
HETATM   12  N2  UNL     1      20.512  -1.069  54.021  1.00  0.00    -0.228 NA
HETATM   13  C9  UNL     1      21.522  -1.587  54.865  1.00  0.00     0.235 C 
HETATM   14  N3  UNL     1      22.774  -1.216  54.769  1.00  0.00    -0.245 NA
HETATM   15  C10 UNL     1      23.114  -0.277  53.757  1.00  0.00     0.053 C 
HETATM   16  C11 UNL     1      24.403  -0.061  53.551  1.00  0.00     0.067 C 
HETATM   17  C22 UNL     1      22.077   0.503  53.078  1.00  0.00     0.143 C 
HETATM   18  C12 UNL     1      24.857   0.862  52.520  1.00  0.00     0.103 C 
HETATM   19  C18 UNL     1      23.902   1.444  51.790  1.00  0.00     0.109 C 
HETATM   20  O3  UNL     1      24.204   2.351  50.788  1.00  0.00    -0.348 OA
HETATM   21  C21 UNL     1      22.422   1.254  51.868  1.00  0.00     0.198 C 
HETATM   22  C19 UNL     1      23.456   3.531  50.586  1.00  0.00     0.201 C 
HETATM   23  C20 UNL     1      21.992   3.150  50.631  1.00  0.00     0.195 C 
HETATM   24  O4  UNL     1      21.793   2.492  51.861  1.00  0.00    -0.376 OA
BRANCH  18  25
HETATM   25  O1  UNL     1      26.182   1.114  52.314  1.00  0.00    -0.343 OA
BRANCH  25  26
HETATM   26  C13 UNL     1      27.216   1.105  53.260  1.00  0.00     0.133 C 
HETATM   27  C14 UNL     1      28.091   2.331  53.178  1.00  0.00     0.058 C 
HETATM   28  C15 UNL     1      29.252   2.147  54.132  1.00  0.00     0.170 C 
HETATM   29  O2  UNL     1      29.011   1.132  55.051  1.00  0.00    -0.391 OA
HETATM   30  C16 UNL     1      28.975  -0.121  54.430  1.00  0.00     0.170 C 
HETATM   31  C17 UNL     1      28.076  -0.112  53.210  1.00  0.00     0.058 C 
ENDBRANCH  25  26
ENDBRANCH  18  25
ENDBRANCH   9  11
ENDBRANCH   7   9
TORSDOF 4
ENDMDL
MODEL 2
REMARK VINA RESULT:      -9.5      3.816      5.773
REMARK  4 active torsions:
REMARK  status: ('A' for Active; 'I' for Inactive)
REMARK    1  A    between atoms: C7_7  and  N1_8 
REMARK    2  A    between atoms: N1_8  and  C8_9 
REMARK    3  A    between atoms: C12_15  and  O1_16 
REMARK    4  A    between atoms: O1_16  and  C13_17 
ROOT
HETATM    1  C1  UNL     1      18.062  -1.286  53.244  1.00  0.00     0.018 C 
HETATM    2  C2  UNL     1      19.230  -1.073  53.450  1.00  0.00    -0.078 C 
HETATM    3  C3  UNL     1      20.627  -0.829  53.713  1.00  0.00     0.019 A 
HETATM    4  C4  UNL     1      21.320  -1.662  54.563  1.00  0.00     0.021 A 
HETATM    5  C5  UNL     1      22.654  -1.390  54.790  1.00  0.00     0.004 A 
HETATM    6  C6  UNL     1      23.222  -0.309  54.163  1.00  0.00     0.029 A 
HETATM    7  C7  UNL     1      22.589   0.556  53.309  1.00  0.00     0.034 A 
HETATM    8  C23 UNL     1      21.259   0.238  53.117  1.00  0.00     0.050 A 
ENDROOT
BRANCH   7   9
HETATM    9  N1  UNL     1      23.123   1.676  52.639  1.00  0.00    -0.344 N 
HETATM   10  H5  UNL     1      22.522   2.516  52.496  1.00  0.00     0.167 HD
BRANCH   9  11
HETATM   11  C8  UNL     1      24.437   1.782  52.124  1.00  0.00     0.118 C 
HETATM   12  N2  UNL     1      25.265   0.831  52.343  1.00  0.00    -0.228 NA
HETATM   13  C9  UNL     1      26.583   0.879  51.832  1.00  0.00     0.235 C 
HETATM   14  N3  UNL     1      27.014   1.871  51.094  1.00  0.00    -0.245 NA
HETATM   15  C10 UNL     1      26.100   2.916  50.787  1.00  0.00     0.053 C 
HETATM   16  C11 UNL     1      26.492   3.806  49.890  1.00  0.00     0.067 C 
HETATM   17  C22 UNL     1      24.848   3.062  51.532  1.00  0.00     0.143 C 
HETATM   18  C12 UNL     1      25.620   4.901  49.485  1.00  0.00     0.103 C 
HETATM   19  C18 UNL     1      24.410   4.929  50.048  1.00  0.00     0.109 C 
HETATM   20  O3  UNL     1      23.495   5.926  49.756  1.00  0.00    -0.348 OA
HETATM   21  C21 UNL     1      23.814   3.966  51.023  1.00  0.00     0.198 C 
HETATM   22  C19 UNL     1      22.691   6.528  50.748  1.00  0.00     0.201 C 
HETATM   23  C20 UNL     1      22.118   5.416  51.601  1.00  0.00     0.195 C 
HETATM   24  O4  UNL     1      23.218   4.668  52.064  1.00  0.00    -0.376 OA
BRANCH  18  25
HETATM   25  O1  UNL     1      26.021   5.841  48.580  1.00  0.00    -0.343 OA
BRANCH  25  26
HETATM   26  C13 UNL     1      27.018   6.814  48.735  1.00  0.00     0.133 C 
HETATM   27  C14 UNL     1      26.543   8.197  48.367  1.00  0.00     0.058 C 
HETATM   28  C15 UNL     1      27.730   9.135  48.427  1.00  0.00     0.170 C 
HETATM   29  O2  UNL     1      28.793   8.580  49.131  1.00  0.00    -0.391 OA
HETATM   30  C16 UNL     1      29.346   7.493  48.448  1.00  0.00     0.170 C 
HETATM   31  C17 UNL     1      28.278   6.517  47.996  1.00  0.00     0.058 C 
ENDBRANCH  25  26
ENDBRANCH  18  25
ENDBRANCH   9  11
ENDBRANCH   7   9
TORSDOF 4
ENDMDL
MODEL 3
REMARK VINA RESULT:      -9.2      2.716      8.529
REMARK  4 active torsions:
REMARK  status: ('A' for Active; 'I' for Inactive)
REMARK    1  A    between atoms: C7_7  and  N1_8 
REMARK    2  A    between atoms: N1_8  and  C8_9 
REMARK    3  A    between atoms: C12_15  and  O1_16 
REMARK    4  A    between atoms: O1_16  and  C13_17 
ROOT
HETATM    1  C1  UNL     1      28.935  -2.385  53.063  1.00  0.00     0.018 C 
HETATM    2  C2  UNL     1      28.303  -1.359  53.083  1.00  0.00    -0.078 C 
HETATM    3  C3  UNL     1      27.560  -0.124  53.122  1.00  0.00     0.019 A 
HETATM    4  C4  UNL     1      28.158   1.023  53.594  1.00  0.00     0.021 A 
HETATM    5  C5  UNL     1      27.409   2.181  53.617  1.00  0.00     0.004 A 
HETATM    6  C6  UNL     1      26.111   2.136  53.170  1.00  0.00     0.029 A 
HETATM    7  C7  UNL     1      25.459   1.031  52.690  1.00  0.00     0.034 A 
HETATM    8  C23 UNL     1      26.254  -0.099  52.689  1.00  0.00     0.050 A 
ENDROOT
BRANCH   7   9
HETATM    9  N1  UNL     1      24.134   0.930  52.219  1.00  0.00    -0.344 N 
HETATM   10  H5  UNL     1      23.878   1.393  51.321  1.00  0.00     0.167 HD
BRANCH   9  11
HETATM   11  C8  UNL     1      23.079   0.238  52.860  1.00  0.00     0.118 C 
HETATM   12  N2  UNL     1      23.333  -0.428  53.923  1.00  0.00    -0.228 NA
HETATM   13  C9  UNL     1      22.310  -1.119  54.614  1.00  0.00     0.235 C 
HETATM   14  N3  UNL     1      21.060  -1.092  54.225  1.00  0.00    -0.245 NA
HETATM   15  C10 UNL     1      20.736  -0.314  53.079  1.00  0.00     0.053 C 
HETATM   16  C11 UNL     1      19.451  -0.145  52.816  1.00  0.00     0.067 C 
HETATM   17  C22 UNL     1      21.784   0.156  52.171  1.00  0.00     0.143 C 
HETATM   18  C12 UNL     1      19.013   0.656  51.681  1.00  0.00     0.103 C 
HETATM   19  C18 UNL     1      19.979   1.222  50.953  1.00  0.00     0.109 C 
HETATM   20  O3  UNL     1      19.693   1.996  49.842  1.00  0.00    -0.348 OA
HETATM   21  C21 UNL     1      21.458   1.168  51.164  1.00  0.00     0.198 C 
HETATM   22  C19 UNL     1      20.446   1.916  48.650  1.00  0.00     0.201 C 
HETATM   23  C20 UNL     1      21.909   1.938  49.039  1.00  0.00     0.195 C 
HETATM   24  O4  UNL     1      22.089   0.887  49.959  1.00  0.00    -0.376 OA
BRANCH  18  25
HETATM   25  O1  UNL     1      17.692   0.818  51.382  1.00  0.00    -0.343 OA
BRANCH  25  26
HETATM   26  C13 UNL     1      16.804   1.771  51.900  1.00  0.00     0.133 C 
HETATM   27  C14 UNL     1      15.462   1.183  52.257  1.00  0.00     0.058 C 
HETATM   28  C15 UNL     1      14.542   2.315  52.660  1.00  0.00     0.170 C 
HETATM   29  O2  UNL     1      15.247   3.480  52.942  1.00  0.00    -0.391 OA
HETATM   30  C16 UNL     1      15.837   4.012  51.791  1.00  0.00     0.170 C 
HETATM   31  C17 UNL     1      16.598   2.954  51.016  1.00  0.00     0.058 C 
ENDBRANCH  25  26
ENDBRANCH  18  25
ENDBRANCH   9  11
ENDBRANCH   7   9
TORSDOF 4
ENDMDL
MODEL 4
REMARK VINA RESULT:      -9.0      3.590      8.694
REMARK  4 active torsions:
REMARK  status: ('A' for Active; 'I' for Inactive)
REMARK    1  A    between atoms: C7_7  and  N1_8 
REMARK    2  A    between atoms: N1_8  and  C8_9 
REMARK    3  A    between atoms: C12_15  and  O1_16 
REMARK    4  A    between atoms: O1_16  and  C13_17 
ROOT
HETATM    1  C1  UNL     1      23.632   8.490  49.124  1.00  0.00     0.018 C 
HETATM    2  C2  UNL     1      24.589   7.769  48.993  1.00  0.00    -0.078 C 
HETATM    3  C3  UNL     1      25.741   6.919  48.825  1.00  0.00     0.019 A 
HETATM    4  C4  UNL     1      26.921   7.448  48.349  1.00  0.00     0.021 A 
HETATM    5  C5  UNL     1      27.997   6.597  48.200  1.00  0.00     0.004 A 
HETATM    6  C6  UNL     1      27.843   5.274  48.530  1.00  0.00     0.029 A 
HETATM    7  C7  UNL     1      26.700   4.687  49.006  1.00  0.00     0.034 A 
HETATM    8  C23 UNL     1      25.655   5.581  49.136  1.00  0.00     0.050 A 
ENDROOT
BRANCH   7   9
HETATM    9  N1  UNL     1      26.488   3.338  49.361  1.00  0.00    -0.344 N 
HETATM   10  H5  UNL     1      26.548   2.605  48.623  1.00  0.00     0.167 HD
BRANCH   9  11
HETATM   11  C8  UNL     1      26.195   2.862  50.660  1.00  0.00     0.118 C 
HETATM   12  N2  UNL     1      27.160   2.666  51.479  1.00  0.00    -0.228 NA
HETATM   13  C9  UNL     1      26.918   2.211  52.796  1.00  0.00     0.235 C 
HETATM   14  N3  UNL     1      25.711   1.996  53.253  1.00  0.00    -0.245 NA
HETATM   15  C10 UNL     1      24.615   2.258  52.386  1.00  0.00     0.053 C 
HETATM   16  C11 UNL     1      23.406   2.219  52.923  1.00  0.00     0.067 C 
HETATM   17  C22 UNL     1      24.821   2.429  50.947  1.00  0.00     0.143 C 
HETATM   18  C12 UNL     1      22.219   2.499  52.127  1.00  0.00     0.103 C 
HETATM   19  C18 UNL     1      22.430   2.820  50.848  1.00  0.00     0.109 C 
HETATM   20  O3  UNL     1      21.384   3.095  49.985  1.00  0.00    -0.348 OA
HETATM   21  C21 UNL     1      23.731   2.961  50.125  1.00  0.00     0.198 C 
HETATM   22  C19 UNL     1      21.360   2.629  48.652  1.00  0.00     0.201 C 
HETATM   23  C20 UNL     1      22.723   2.906  48.054  1.00  0.00     0.195 C 
HETATM   24  O4  UNL     1      23.661   2.295  48.909  1.00  0.00    -0.376 OA
BRANCH  18  25
HETATM   25  O1  UNL     1      20.965   2.436  52.661  1.00  0.00    -0.343 OA
BRANCH  25  26
HETATM   26  C13 UNL     1      20.197   1.293  52.920  1.00  0.00     0.133 C 
HETATM   27  C14 UNL     1      20.979   0.214  53.626  1.00  0.00     0.058 C 
HETATM   28  C15 UNL     1      20.105  -1.018  53.720  1.00  0.00     0.170 C 
HETATM   29  O2  UNL     1      18.767  -0.723  53.487  1.00  0.00    -0.391 OA
HETATM   30  C16 UNL     1      18.551  -0.344  52.159  1.00  0.00     0.170 C 
HETATM   31  C17 UNL     1      19.544   0.711  51.712  1.00  0.00     0.058 C 
ENDBRANCH  25  26
ENDBRANCH  18  25
ENDBRANCH   9  11
ENDBRANCH   7   9
TORSDOF 4
ENDMDL
MODEL 5
REMARK VINA RESULT:      -9.0      3.999      7.058
REMARK  4 active torsions:
REMARK  status: ('A' for Active; 'I' for Inactive)
REMARK    1  A    between atoms: C7_7  and  N1_8 
REMARK    2  A    between atoms: N1_8  and  C8_9 
REMARK    3  A    between atoms: C12_15  and  O1_16 
REMARK    4  A    between atoms: O1_16  and  C13_17 
ROOT
HETATM    1  C1  UNL     1      20.412  11.280  49.178  1.00  0.00     0.018 C 
HETATM    2  C2  UNL     1      20.387  10.086  49.342  1.00  0.00    -0.078 C 
HETATM    3  C3  UNL     1      20.337   8.658  49.533  1.00  0.00     0.019 A 
HETATM    4  C4  UNL     1      19.340   7.920  48.934  1.00  0.00     0.021 A 
HETATM    5  C5  UNL     1      19.327   6.557  49.147  1.00  0.00     0.004 A 
HETATM    6  C6  UNL     1      20.303   6.004  49.939  1.00  0.00     0.029 A 
HETATM    7  C7  UNL     1      21.319   6.681  50.562  1.00  0.00     0.034 A 
HETATM    8  C23 UNL     1      21.284   8.040  50.316  1.00  0.00     0.050 A 
ENDROOT
BRANCH   7   9
HETATM    9  N1  UNL     1      22.344   6.164  51.381  1.00  0.00    -0.344 N 
HETATM   10  H5  UNL     1      22.234   6.204  52.417  1.00  0.00     0.167 HD
BRANCH   9  11
HETATM   11  C8  UNL     1      23.547   5.575  50.927  1.00  0.00     0.118 C 
HETATM   12  N2  UNL     1      24.384   6.298  50.281  1.00  0.00    -0.228 NA
HETATM   13  C9  UNL     1      25.611   5.763  49.824  1.00  0.00     0.235 C 
HETATM   14  N3  UNL     1      25.966   4.524  50.058  1.00  0.00    -0.245 NA
HETATM   15  C10 UNL     1      25.083   3.712  50.821  1.00  0.00     0.053 C 
HETATM   16  C11 UNL     1      25.541   2.532  51.207  1.00  0.00     0.067 C 
HETATM   17  C22 UNL     1      23.694   4.118  51.045  1.00  0.00     0.143 C 
HETATM   18  C12 UNL     1      24.725   1.636  52.015  1.00  0.00     0.103 C 
HETATM   19  C18 UNL     1      23.517   2.088  52.358  1.00  0.00     0.109 C 
HETATM   20  O3  UNL     1      22.642   1.325  53.113  1.00  0.00    -0.348 OA
HETATM   21  C21 UNL     1      22.894   3.410  52.047  1.00  0.00     0.198 C 
HETATM   22  C19 UNL     1      21.259   1.264  52.836  1.00  0.00     0.201 C 
HETATM   23  C20 UNL     1      20.781   2.683  52.612  1.00  0.00     0.195 C 
HETATM   24  O4  UNL     1      21.595   3.217  51.594  1.00  0.00    -0.376 OA
BRANCH  18  25
HETATM   25  O1  UNL     1      25.174   0.405  52.398  1.00  0.00    -0.343 OA
BRANCH  25  26
HETATM   26  C13 UNL     1      26.453   0.062  52.860  1.00  0.00     0.133 C 
HETATM   27  C14 UNL     1      26.839  -1.352  52.505  1.00  0.00     0.058 C 
HETATM   28  C15 UNL     1      28.161  -1.662  53.175  1.00  0.00     0.170 C 
HETATM   29  O2  UNL     1      28.811  -0.508  53.598  1.00  0.00    -0.391 OA
HETATM   30  C16 UNL     1      28.121   0.114  54.644  1.00  0.00     0.170 C 
HETATM   31  C17 UNL     1      26.647   0.269  54.323  1.00  0.00     0.058 C 
ENDBRANCH  25  26
ENDBRANCH  18  25
ENDBRANCH   9  11
ENDBRANCH   7   9
TORSDOF 4
ENDMDL
MODEL 6
REMARK VINA RESULT:      -9.0      5.347      8.254
REMARK  4 active torsions:
REMARK  status: ('A' for Active; 'I' for Inactive)
REMARK    1  A    between atoms: C7_7  and  N1_8 
REMARK    2  A    between atoms: N1_8  and  C8_9 
REMARK    3  A    between atoms: C12_15  and  O1_16 
REMARK    4  A    between atoms: O1_16  and  C13_17 
ROOT
HETATM    1  C1  UNL     1      23.283   7.395  44.240  1.00  0.00     0.018 C 
HETATM    2  C2  UNL     1      23.238   7.699  45.406  1.00  0.00    -0.078 C 
HETATM    3  C3  UNL     1      23.173   8.079  46.795  1.00  0.00     0.019 A 
HETATM    4  C4  UNL     1      22.153   8.893  47.237  1.00  0.00     0.021 A 
HETATM    5  C5  UNL     1      22.131   9.234  48.574  1.00  0.00     0.004 A 
HETATM    6  C6  UNL     1      23.120   8.751  49.394  1.00  0.00     0.029 A 
HETATM    7  C7  UNL     1      24.158   7.941  49.018  1.00  0.00     0.034 A 
HETATM    8  C23 UNL     1      24.133   7.629  47.672  1.00  0.00     0.050 A 
ENDROOT
BRANCH   7   9
HETATM    9  N1  UNL     1      25.196   7.416  49.817  1.00  0.00    -0.344 N 
HETATM   10  H5  UNL     1      25.465   7.916  50.690  1.00  0.00     0.167 HD
BRANCH   9  11
HETATM   11  C8  UNL     1      25.931   6.238  49.547  1.00  0.00     0.118 C 
HETATM   12  N2  UNL     1      27.004   6.324  48.854  1.00  0.00    -0.228 NA
HETATM   13  C9  UNL     1      27.787   5.180  48.574  1.00  0.00     0.235 C 
HETATM   14  N3  UNL     1      27.477   3.991  49.027  1.00  0.00    -0.245 NA
HETATM   15  C10 UNL     1      26.321   3.872  49.847  1.00  0.00     0.053 C 
HETATM   16  C11 UNL     1      26.133   2.708  50.446  1.00  0.00     0.067 C 
HETATM   17  C22 UNL     1      25.329   4.946  49.906  1.00  0.00     0.143 C 
HETATM   18  C12 UNL     1      24.995   2.491  51.329  1.00  0.00     0.103 C 
HETATM   19  C18 UNL     1      24.183   3.536  51.511  1.00  0.00     0.109 C 
HETATM   20  O3  UNL     1      23.060   3.452  52.315  1.00  0.00    -0.348 OA
HETATM   21  C21 UNL     1      24.302   4.916  50.951  1.00  0.00     0.198 C 
HETATM   22  C19 UNL     1      21.827   4.041  51.956  1.00  0.00     0.201 C 
HETATM   23  C20 UNL     1      22.122   5.446  51.476  1.00  0.00     0.195 C 
HETATM   24  O4  UNL     1      23.074   5.320  50.445  1.00  0.00    -0.376 OA
BRANCH  18  25
HETATM   25  O1  UNL     1      24.773   1.288  51.934  1.00  0.00    -0.343 OA
BRANCH  25  26
HETATM   26  C13 UNL     1      25.646   0.568  52.761  1.00  0.00     0.133 C 
HETATM   27  C14 UNL     1      26.295   1.432  53.813  1.00  0.00     0.058 C 
HETATM   28  C15 UNL     1      27.321   0.593  54.546  1.00  0.00     0.170 C 
HETATM   29  O2  UNL     1      27.133  -0.766  54.323  1.00  0.00    -0.391 OA
HETATM   30  C16 UNL     1      27.406  -1.110  52.996  1.00  0.00     0.170 C 
HETATM   31  C17 UNL     1      26.704  -0.182  52.025  1.00  0.00     0.058 C 
ENDBRANCH  25  26
ENDBRANCH  18  25
ENDBRANCH   9  11
ENDBRANCH   7   9
TORSDOF 4
ENDMDL
MODEL 7
REMARK VINA RESULT:      -9.0      3.742      8.093
REMARK  4 active torsions:
REMARK  status: ('A' for Active; 'I' for Inactive)
REMARK    1  A    between atoms: C7_7  and  N1_8 
REMARK    2  A    between atoms: N1_8  and  C8_9 
REMARK    3  A    between atoms: C12_15  and  O1_16 
REMARK    4  A    between atoms: O1_16  and  C13_17 
ROOT
HETATM    1  C1  UNL     1      29.077   2.471  53.807  1.00  0.00     0.018 C 
HETATM    2  C2  UNL     1      28.032   1.872  53.780  1.00  0.00    -0.078 C 
HETATM    3  C3  UNL     1      26.789   1.141  53.759  1.00  0.00     0.019 A 
HETATM    4  C4  UNL     1      26.558   0.153  54.690  1.00  0.00     0.021 A 
HETATM    5  C5  UNL     1      25.357  -0.524  54.631  1.00  0.00     0.004 A 
HETATM    6  C6  UNL     1      24.456  -0.183  53.653  1.00  0.00     0.029 A 
HETATM    7  C7  UNL     1      24.624   0.787  52.701  1.00  0.00     0.034 A 
HETATM    8  C23 UNL     1      25.841   1.432  52.805  1.00  0.00     0.050 A 
ENDROOT
BRANCH   7   9
HETATM    9  N1  UNL     1      23.733   1.178  51.679  1.00  0.00    -0.344 N 
HETATM   10  H5  UNL     1      23.847   0.774  50.725  1.00  0.00     0.167 HD
BRANCH   9  11
HETATM   11  C8  UNL     1      22.664   2.093  51.821  1.00  0.00     0.118 C 
HETATM   12  N2  UNL     1      21.565   1.683  52.335  1.00  0.00    -0.228 NA
HETATM   13  C9  UNL     1      20.472   2.563  52.518  1.00  0.00     0.235 C 
HETATM   14  N3  UNL     1      20.534   3.832  52.204  1.00  0.00    -0.245 NA
HETATM   15  C10 UNL     1      21.760   4.330  51.683  1.00  0.00     0.053 C 
HETATM   16  C11 UNL     1      21.864   5.642  51.553  1.00  0.00     0.067 C 
HETATM   17  C22 UNL     1      22.794   3.416  51.196  1.00  0.00     0.143 C 
HETATM   18  C12 UNL     1      23.087   6.255  51.054  1.00  0.00     0.103 C 
HETATM   19  C18 UNL     1      24.090   5.420  50.770  1.00  0.00     0.109 C 
HETATM   20  O3  UNL     1      25.299   5.878  50.277  1.00  0.00    -0.348 OA
HETATM   21  C21 UNL     1      24.137   3.934  50.923  1.00  0.00     0.198 C 
HETATM   22  C19 UNL     1      25.997   5.211  49.246  1.00  0.00     0.201 C 
HETATM   23  C20 UNL     1      26.006   3.736  49.589  1.00  0.00     0.195 C 
HETATM   24  O4  UNL     1      24.659   3.365  49.768  1.00  0.00    -0.376 OA
BRANCH  18  25
HETATM   25  O1  UNL     1      23.200   7.605  50.889  1.00  0.00    -0.343 OA
BRANCH  25  26
HETATM   26  C13 UNL     1      22.882   8.362  49.753  1.00  0.00     0.133 C 
HETATM   27  C14 UNL     1      21.893   7.668  48.850  1.00  0.00     0.058 C 
HETATM   28  C15 UNL     1      21.739   8.498  47.594  1.00  0.00     0.170 C 
HETATM   29  O2  UNL     1      22.226   9.789  47.763  1.00  0.00    -0.391 OA
HETATM   30  C16 UNL     1      23.616   9.795  47.916  1.00  0.00     0.170 C 
HETATM   31  C17 UNL     1      24.066   8.782  48.951  1.00  0.00     0.058 C 
ENDBRANCH  25  26
ENDBRANCH  18  25
ENDBRANCH   9  11
ENDBRANCH   7   9
TORSDOF 4
ENDMDL
MODEL 8
REMARK VINA RESULT:      -9.0      2.759      4.019
REMARK  4 active torsions:
REMARK  status: ('A' for Active; 'I' for Inactive)
REMARK    1  A    between atoms: C7_7  and  N1_8 
REMARK    2  A    between atoms: N1_8  and  C8_9 
REMARK    3  A    between atoms: C12_15  and  O1_16 
REMARK    4  A    between atoms: O1_16  and  C13_17 
ROOT
HETATM    1  C1  UNL     1      16.049   4.530  49.227  1.00  0.00     0.018 C 
HETATM    2  C2  UNL     1      17.170   4.088  49.256  1.00  0.00    -0.078 C 
HETATM    3  C3  UNL     1      18.507   3.549  49.274  1.00  0.00     0.019 A 
HETATM    4  C4  UNL     1      19.062   3.052  48.115  1.00  0.00     0.021 A 
HETATM    5  C5  UNL     1      20.343   2.542  48.178  1.00  0.00     0.004 A 
HETATM    6  C6  UNL     1      20.999   2.556  49.384  1.00  0.00     0.029 A 
HETATM    7  C7  UNL     1      20.504   3.034  50.569  1.00  0.00     0.034 A 
HETATM    8  C23 UNL     1      19.221   3.532  50.450  1.00  0.00     0.050 A 
ENDROOT
BRANCH   7   9
HETATM    9  N1  UNL     1      21.134   3.074  51.830  1.00  0.00    -0.344 N 
HETATM   10  H5  UNL     1      21.427   3.995  52.222  1.00  0.00     0.167 HD
BRANCH   9  11
HETATM   11  C8  UNL     1      21.417   1.955  52.648  1.00  0.00     0.118 C 
HETATM   12  N2  UNL     1      20.469   1.434  53.332  1.00  0.00    -0.228 NA
HETATM   13  C9  UNL     1      20.695   0.301  54.149  1.00  0.00     0.235 C 
HETATM   14  N3  UNL     1      21.864  -0.284  54.228  1.00  0.00    -0.245 NA
HETATM   15  C10 UNL     1      22.924   0.238  53.436  1.00  0.00     0.053 C 
HETATM   16  C11 UNL     1      24.036  -0.477  53.383  1.00  0.00     0.067 C 
HETATM   17  C22 UNL     1      22.823   1.565  52.828  1.00  0.00     0.143 C 
HETATM   18  C12 UNL     1      25.171  -0.044  52.580  1.00  0.00     0.103 C 
HETATM   19  C18 UNL     1      25.007   1.088  51.891  1.00  0.00     0.109 C 
HETATM   20  O3  UNL     1      26.016   1.611  51.101  1.00  0.00    -0.348 OA
HETATM   21  C21 UNL     1      23.797   1.962  51.809  1.00  0.00     0.198 C 
HETATM   22  C19 UNL     1      26.301   2.994  51.055  1.00  0.00     0.201 C 
HETATM   23  C20 UNL     1      24.982   3.722  50.907  1.00  0.00     0.195 C 
HETATM   24  O4  UNL     1      24.171   3.289  51.975  1.00  0.00    -0.376 OA
BRANCH  18  25
HETATM   25  O1  UNL     1      26.334  -0.757  52.535  1.00  0.00    -0.343 OA
BRANCH  25  26
HETATM   26  C13 UNL     1      27.588  -0.390  53.043  1.00  0.00     0.133 C 
HETATM   27  C14 UNL     1      28.567  -1.537  53.061  1.00  0.00     0.058 C 
HETATM   28  C15 UNL     1      29.826  -1.072  53.761  1.00  0.00     0.170 C 
HETATM   29  O2  UNL     1      29.885   0.314  53.854  1.00  0.00    -0.391 OA
HETATM   30  C16 UNL     1      28.902   0.811  54.716  1.00  0.00     0.170 C 
HETATM   31  C17 UNL     1      27.538   0.231  54.397  1.00  0.00     0.058 C 
ENDBRANCH  25  26
ENDBRANCH  18  25
ENDBRANCH   9  11
ENDBRANCH   7   9
TORSDOF 4
ENDMDL
MODEL 9
REMARK VINA RESULT:      -8.9      2.708      8.781
REMARK  4 active torsions:
REMARK  status: ('A' for Active; 'I' for Inactive)
REMARK    1  A    between atoms: C7_7  and  N1_8 
REMARK    2  A    between atoms: N1_8  and  C8_9 
REMARK    3  A    between atoms: C12_15  and  O1_16 
REMARK    4  A    between atoms: O1_16  and  C13_17 
ROOT
HETATM    1  C1  UNL     1      26.711   3.884  49.393  1.00  0.00     0.018 C 
HETATM    2  C2  UNL     1      26.403   3.068  50.225  1.00  0.00    -0.078 C 
HETATM    3  C3  UNL     1      26.048   2.079  51.213  1.00  0.00     0.019 A 
HETATM    4  C4  UNL     1      26.942   1.084  51.539  1.00  0.00     0.021 A 
HETATM    5  C5  UNL     1      26.560   0.156  52.487  1.00  0.00     0.004 A 
HETATM    6  C6  UNL     1      25.316   0.269  53.055  1.00  0.00     0.029 A 
HETATM    7  C7  UNL     1      24.383   1.232  52.775  1.00  0.00     0.034 A 
HETATM    8  C23 UNL     1      24.816   2.133  51.822  1.00  0.00     0.050 A 
ENDROOT
BRANCH   7   9
HETATM    9  N1  UNL     1      23.096   1.395  53.329  1.00  0.00    -0.344 N 
HETATM   10  H5  UNL     1      22.790   2.345  53.628  1.00  0.00     0.167 HD
BRANCH   9  11
HETATM   11  C8  UNL     1      22.145   0.366  53.525  1.00  0.00     0.118 C 
HETATM   12  N2  UNL     1      22.429  -0.595  54.320  1.00  0.00    -0.228 NA
HETATM   13  C9  UNL     1      21.504  -1.637  54.567  1.00  0.00     0.235 C 
HETATM   14  N3  UNL     1      20.313  -1.659  54.026  1.00  0.00    -0.245 NA
HETATM   15  C10 UNL     1      19.945  -0.575  53.182  1.00  0.00     0.053 C 
HETATM   16  C11 UNL     1      18.680  -0.518  52.801  1.00  0.00     0.067 C 
HETATM   17  C22 UNL     1      20.956   0.346  52.661  1.00  0.00     0.143 C 
HETATM   18  C12 UNL     1      18.196   0.566  51.957  1.00  0.00     0.103 C 
HETATM   19  C18 UNL     1      19.092   1.498  51.624  1.00  0.00     0.109 C 
HETATM   20  O3  UNL     1      18.759   2.572  50.817  1.00  0.00    -0.348 OA
HETATM   21  C21 UNL     1      20.528   1.595  52.026  1.00  0.00     0.198 C 
HETATM   22  C19 UNL     1      19.615   3.047  49.799  1.00  0.00     0.201 C 
HETATM   23  C20 UNL     1      21.006   3.146  50.390  1.00  0.00     0.195 C 
HETATM   24  O4  UNL     1      21.306   1.872  50.909  1.00  0.00    -0.376 OA
BRANCH  18  25
HETATM   25  O1  UNL     1      16.899   0.624  51.535  1.00  0.00    -0.343 OA
BRANCH  25  26
HETATM   26  C13 UNL     1      15.865   1.424  52.041  1.00  0.00     0.133 C 
HETATM   27  C14 UNL     1      14.780   0.617  52.709  1.00  0.00     0.058 C 
HETATM   28  C15 UNL     1      13.654   1.558  53.081  1.00  0.00     0.170 C 
HETATM   29  O2  UNL     1      14.059   2.887  53.055  1.00  0.00    -0.391 OA
HETATM   30  C16 UNL     1      14.340   3.310  51.752  1.00  0.00     0.170 C 
HETATM   31  C17 UNL     1      15.248   2.332  51.033  1.00  0.00     0.058 C 
ENDBRANCH  25  26
ENDBRANCH  18  25
ENDBRANCH   9  11
ENDBRANCH   7   9
TORSDOF 4
ENDMDL
