MODEL 1
REMARK VINA RESULT:      -9.1      0.000      0.000
REMARK  5 active torsions:
REMARK  status: ('A' for Active; 'I' for Inactive)
REMARK    1  A    between atoms: C3_3  and  C4_4 
REMARK    2  A    between atoms: C4_4  and  C5_5 
REMARK    3  A    between atoms: C6_6  and  C7_7 
REMARK    4  A    between atoms: C7_7  and  C8_8 
REMARK    5  A    between atoms: C18_20  and  S1_21 
ROOT
HETATM    1  C7  UNL     1      26.052   1.189  52.378  1.00  0.00     0.297 C 
HETATM    2  N1  UNL     1      25.624   2.294  53.156  1.00  0.00    -0.253 NA
HETATM    3  C14 UNL     1      24.362   2.268  53.270  1.00  0.00     0.137 C 
HETATM    4  C15 UNL     1      23.811   1.082  52.543  1.00  0.00     0.232 A 
HETATM    5  C16 UNL     1      23.182   1.395  51.267  1.00  0.00     0.026 A 
HETATM    6  C17 UNL     1      21.877   1.075  51.312  1.00  0.00     0.020 A 
HETATM    7  C18 UNL     1      21.623   0.542  52.632  1.00  0.00     0.030 A 
HETATM    8  C20 UNL     1      22.717   0.527  53.379  1.00  0.00     0.045 A 
HETATM    9  N2  UNL     1      24.974   0.226  52.466  1.00  0.00     0.145 N 
HETATM   10  H21 UNL     1      25.077  -0.256  53.381  1.00  0.00     0.322 HD
ENDROOT
BRANCH   1  11
HETATM   11  C6  UNL     1      26.217   1.694  50.979  1.00  0.00     0.040 C 
HETATM   12  C5  UNL     1      26.548   2.950  50.724  1.00  0.00    -0.022 C 
BRANCH  12  13
HETATM   13  C4  UNL     1      26.760   3.644  49.405  1.00  0.00     0.053 C 
BRANCH  13  14
HETATM   14  C3  UNL     1      26.084   4.949  49.365  1.00  0.00    -0.027 C 
HETATM   15  C2  UNL     1      26.564   6.074  48.879  1.00  0.00    -0.035 C 
HETATM   16  C1  UNL     1      27.905   6.159  48.289  1.00  0.00     0.036 C 
ENDBRANCH  13  14
ENDBRANCH  12  13
ENDBRANCH   1  11
BRANCH   1  17
HETATM   17  C8  UNL     1      27.328   0.606  52.882  1.00  0.00     0.006 A 
HETATM   18  C9  UNL     1      27.469  -0.771  52.774  1.00  0.00     0.015 A 
HETATM   19  C10 UNL     1      28.609  -1.405  53.211  1.00  0.00     0.043 A 
HETATM   20  C11 UNL     1      29.596  -0.633  53.754  1.00  0.00     0.116 A 
HETATM   21  F1  UNL     1      30.722  -1.265  54.184  1.00  0.00    -0.206 F 
HETATM   22  C12 UNL     1      29.456   0.735  53.862  1.00  0.00     0.043 A 
HETATM   23  C13 UNL     1      28.304   1.386  53.422  1.00  0.00     0.015 A 
ENDBRANCH   1  17
BRANCH   7  24
HETATM   24  S1  UNL     1      20.032  -0.022  53.173  1.00  0.00     0.045 S 
HETATM   25  C19 UNL     1      18.824   0.007  51.872  1.00  0.00     0.133 C 
HETATM   26  O1  UNL     1      20.093  -1.345  53.890  1.00  0.00    -0.253 OA
ENDBRANCH   7  24
TORSDOF 5
ENDMDL
MODEL 2
REMARK VINA RESULT:      -8.2      3.155      5.280
REMARK  5 active torsions:
REMARK  status: ('A' for Active; 'I' for Inactive)
REMARK    1  A    between atoms: C3_3  and  C4_4 
REMARK    2  A    between atoms: C4_4  and  C5_5 
REMARK    3  A    between atoms: C6_6  and  C7_7 
REMARK    4  A    between atoms: C7_7  and  C8_8 
REMARK    5  A    between atoms: C18_20  and  S1_21 
ROOT
HETATM    1  C7  UNL     1      25.422   1.334  52.806  1.00  0.00     0.297 C 
HETATM    2  N1  UNL     1      25.050   0.995  51.481  1.00  0.00    -0.253 NA
HETATM    3  C14 UNL     1      24.417   1.961  50.958  1.00  0.00     0.137 C 
HETATM    4  C15 UNL     1      24.310   3.086  51.938  1.00  0.00     0.232 A 
HETATM    5  C16 UNL     1      22.998   3.225  52.557  1.00  0.00     0.026 A 
HETATM    6  C17 UNL     1      22.460   4.411  52.222  1.00  0.00     0.020 A 
HETATM    7  C18 UNL     1      23.418   5.079  51.369  1.00  0.00     0.030 A 
HETATM    8  C20 UNL     1      24.505   4.346  51.178  1.00  0.00     0.045 A 
HETATM    9  N2  UNL     1      25.393   2.781  52.847  1.00  0.00     0.145 N 
HETATM   10  H21 UNL     1      26.277   3.111  52.412  1.00  0.00     0.322 HD
ENDROOT
BRANCH   1  11
HETATM   11  C6  UNL     1      24.381   0.744  53.703  1.00  0.00     0.040 C 
HETATM   12  C5  UNL     1      23.649  -0.296  53.336  1.00  0.00    -0.022 C 
BRANCH  12  13
HETATM   13  C4  UNL     1      22.565  -1.028  54.082  1.00  0.00     0.053 C 
BRANCH  13  14
HETATM   14  C3  UNL     1      21.583  -0.099  54.660  1.00  0.00    -0.027 C 
HETATM   15  C2  UNL     1      20.552   0.444  54.047  1.00  0.00    -0.035 C 
HETATM   16  C1  UNL     1      20.249   0.168  52.638  1.00  0.00     0.036 C 
ENDBRANCH  13  14
ENDBRANCH  12  13
ENDBRANCH   1  11
BRANCH   1  17
HETATM   17  C8  UNL     1      26.776   0.819  53.159  1.00  0.00     0.006 A 
HETATM   18  C9  UNL     1      27.060  -0.490  52.793  1.00  0.00     0.015 A 
HETATM   19  C10 UNL     1      28.281  -1.058  53.075  1.00  0.00     0.043 A 
HETATM   20  C11 UNL     1      29.203  -0.289  53.725  1.00  0.00     0.116 A 
HETATM   21  F1  UNL     1      30.410  -0.856  54.001  1.00  0.00    -0.206 F 
HETATM   22  C12 UNL     1      28.922   1.011  54.089  1.00  0.00     0.043 A 
HETATM   23  C13 UNL     1      27.687   1.595  53.808  1.00  0.00     0.015 A 
ENDBRANCH   1  17
BRANCH   7  24
HETATM   24  S1  UNL     1      23.156   6.686  50.670  1.00  0.00     0.045 S 
HETATM   25  C19 UNL     1      21.455   7.188  50.744  1.00  0.00     0.133 C 
HETATM   26  O1  UNL     1      24.101   7.723  51.218  1.00  0.00    -0.253 OA
ENDBRANCH   7  24
TORSDOF 5
ENDMDL
MODEL 3
REMARK VINA RESULT:      -8.2      4.191      7.421
REMARK  5 active torsions:
REMARK  status: ('A' for Active; 'I' for Inactive)
REMARK    1  A    between atoms: C3_3  and  C4_4 
REMARK    2  A    between atoms: C4_4  and  C5_5 
REMARK    3  A    between atoms: C6_6  and  C7_7 
REMARK    4  A    between atoms: C7_7  and  C8_8 
REMARK    5  A    between atoms: C18_20  and  S1_21 
ROOT
HETATM    1  C7  UNL     1      23.625   2.249  51.529  1.00  0.00     0.297 C 
HETATM    2  N1  UNL     1      23.675   3.231  52.550  1.00  0.00    -0.253 NA
HETATM    3  C14 UNL     1      24.616   2.960  53.353  1.00  0.00     0.137 C 
HETATM    4  C15 UNL     1      25.314   1.711  52.915  1.00  0.00     0.232 A 
HETATM    5  C16 UNL     1      24.984   0.528  53.699  1.00  0.00     0.026 A 
HETATM    6  C17 UNL     1      26.085   0.072  54.320  1.00  0.00     0.020 A 
HETATM    7  C18 UNL     1      27.169   0.956  53.953  1.00  0.00     0.030 A 
HETATM    8  C20 UNL     1      26.766   1.921  53.139  1.00  0.00     0.045 A 
HETATM    9  N2  UNL     1      24.944   1.651  51.518  1.00  0.00     0.145 N 
HETATM   10  H21 UNL     1      25.564   2.301  50.995  1.00  0.00     0.322 HD
ENDROOT
BRANCH   1  11
HETATM   11  C6  UNL     1      22.583   1.259  51.942  1.00  0.00     0.040 C 
HETATM   12  C5  UNL     1      21.587   1.589  52.750  1.00  0.00    -0.022 C 
BRANCH  12  13
HETATM   13  C4  UNL     1      20.453   0.752  53.278  1.00  0.00     0.053 C 
BRANCH  13  14
HETATM   14  C3  UNL     1      20.711  -0.685  53.099  1.00  0.00    -0.027 C 
HETATM   15  C2  UNL     1      21.396  -1.471  53.903  1.00  0.00    -0.035 C 
HETATM   16  C1  UNL     1      22.015  -0.976  55.137  1.00  0.00     0.036 C 
ENDBRANCH  13  14
ENDBRANCH  12  13
ENDBRANCH   1  11
BRANCH   1  17
HETATM   17  C8  UNL     1      23.297   2.836  50.199  1.00  0.00     0.006 A 
HETATM   18  C9  UNL     1      22.572   2.035  49.326  1.00  0.00     0.015 A 
HETATM   19  C10 UNL     1      22.221   2.485  48.074  1.00  0.00     0.043 A 
HETATM   20  C11 UNL     1      22.608   3.746  47.721  1.00  0.00     0.116 A 
HETATM   21  F1  UNL     1      22.257   4.186  46.482  1.00  0.00    -0.206 F 
HETATM   22  C12 UNL     1      23.328   4.542  48.587  1.00  0.00     0.043 A 
HETATM   23  C13 UNL     1      23.690   4.094  49.857  1.00  0.00     0.015 A 
ENDBRANCH   1  17
BRANCH   7  24
HETATM   24  S1  UNL     1      28.833   0.760  54.530  1.00  0.00     0.045 S 
HETATM   25  C19 UNL     1      29.776  -0.353  53.517  1.00  0.00     0.133 C 
HETATM   26  O1  UNL     1      29.529   2.076  54.764  1.00  0.00    -0.253 OA
ENDBRANCH   7  24
TORSDOF 5
ENDMDL
MODEL 4
REMARK VINA RESULT:      -8.1      4.162      7.164
REMARK  5 active torsions:
REMARK  status: ('A' for Active; 'I' for Inactive)
REMARK    1  A    between atoms: C3_3  and  C4_4 
REMARK    2  A    between atoms: C4_4  and  C5_5 
REMARK    3  A    between atoms: C6_6  and  C7_7 
REMARK    4  A    between atoms: C7_7  and  C8_8 
REMARK    5  A    between atoms: C18_20  and  S1_21 
ROOT
HETATM    1  C7  UNL     1      23.460   1.476  52.083  1.00  0.00     0.297 C 
HETATM    2  N1  UNL     1      23.759   2.409  53.108  1.00  0.00    -0.253 NA
HETATM    3  C14 UNL     1      24.468   3.346  52.635  1.00  0.00     0.137 C 
HETATM    4  C15 UNL     1      24.714   3.111  51.178  1.00  0.00     0.232 A 
HETATM    5  C16 UNL     1      26.051   2.624  50.863  1.00  0.00     0.026 A 
HETATM    6  C17 UNL     1      26.693   3.521  50.094  1.00  0.00     0.020 A 
HETATM    7  C18 UNL     1      25.781   4.625  49.890  1.00  0.00     0.030 A 
HETATM    8  C20 UNL     1      24.621   4.428  50.501  1.00  0.00     0.045 A 
HETATM    9  N2  UNL     1      23.633   2.209  50.846  1.00  0.00     0.145 N 
HETATM   10  H21 UNL     1      22.773   2.777  50.712  1.00  0.00     0.322 HD
ENDROOT
BRANCH   1  11
HETATM   11  C6  UNL     1      24.464   0.374  52.206  1.00  0.00     0.040 C 
HETATM   12  C5  UNL     1      25.022   0.063  53.366  1.00  0.00    -0.022 C 
BRANCH  12  13
HETATM   13  C4  UNL     1      26.038  -0.997  53.696  1.00  0.00     0.053 C 
BRANCH  13  14
HETATM   14  C3  UNL     1      27.270  -0.830  52.910  1.00  0.00    -0.027 C 
HETATM   15  C2  UNL     1      28.425  -0.368  53.340  1.00  0.00    -0.035 C 
HETATM   16  C1  UNL     1      28.627   0.059  54.729  1.00  0.00     0.036 C 
ENDBRANCH  13  14
ENDBRANCH  12  13
ENDBRANCH   1  11
BRANCH   1  17
HETATM   17  C8  UNL     1      22.074   0.942  52.195  1.00  0.00     0.006 A 
HETATM   18  C9  UNL     1      21.629   0.626  53.472  1.00  0.00     0.015 A 
HETATM   19  C10 UNL     1      20.365   0.125  53.681  1.00  0.00     0.043 A 
HETATM   20  C11 UNL     1      19.563  -0.049  52.589  1.00  0.00     0.116 A 
HETATM   21  F1  UNL     1      18.313  -0.544  52.802  1.00  0.00    -0.206 F 
HETATM   22  C12 UNL     1      20.004   0.264  51.321  1.00  0.00     0.043 A 
HETATM   23  C13 UNL     1      21.284   0.771  51.099  1.00  0.00     0.015 A 
ENDBRANCH   1  17
BRANCH   7  24
HETATM   24  S1  UNL     1      26.179   6.063  48.934  1.00  0.00     0.045 S 
HETATM   25  C19 UNL     1      26.016   7.565  49.867  1.00  0.00     0.133 C 
HETATM   26  O1  UNL     1      27.506   5.948  48.230  1.00  0.00    -0.253 OA
ENDBRANCH   7  24
TORSDOF 5
ENDMDL
MODEL 5
REMARK VINA RESULT:      -8.1      1.614      2.033
REMARK  5 active torsions:
REMARK  status: ('A' for Active; 'I' for Inactive)
REMARK    1  A    between atoms: C3_3  and  C4_4 
REMARK    2  A    between atoms: C4_4  and  C5_5 
REMARK    3  A    between atoms: C6_6  and  C7_7 
REMARK    4  A    between atoms: C7_7  and  C8_8 
REMARK    5  A    between atoms: C18_20  and  S1_21 
ROOT
HETATM    1  C7  UNL     1      25.569   2.042  51.610  1.00  0.00     0.297 C 
HETATM    2  N1  UNL     1      25.243   3.201  52.357  1.00  0.00    -0.253 NA
HETATM    3  C14 UNL     1      24.000   3.429  52.265  1.00  0.00     0.137 C 
HETATM    4  C15 UNL     1      23.356   2.388  51.406  1.00  0.00     0.232 A 
HETATM    5  C16 UNL     1      23.023   2.836  50.060  1.00  0.00     0.026 A 
HETATM    6  C17 UNL     1      21.692   2.786  49.879  1.00  0.00     0.020 A 
HETATM    7  C18 UNL     1      21.120   2.300  51.116  1.00  0.00     0.030 A 
HETATM    8  C20 UNL     1      22.049   2.056  52.028  1.00  0.00     0.045 A 
HETATM    9  N2  UNL     1      24.324   1.315  51.480  1.00  0.00     0.145 N 
HETATM   10  H21 UNL     1      24.175   0.812  52.377  1.00  0.00     0.322 HD
ENDROOT
BRANCH   1  11
HETATM   11  C6  UNL     1      26.062   2.519  50.281  1.00  0.00     0.040 C 
HETATM   12  C5  UNL     1      26.661   3.690  50.136  1.00  0.00    -0.022 C 
BRANCH  12  13
HETATM   13  C4  UNL     1      27.222   4.344  48.901  1.00  0.00     0.053 C 
BRANCH  13  14
HETATM   14  C3  UNL     1      26.748   5.728  48.759  1.00  0.00    -0.027 C 
HETATM   15  C2  UNL     1      27.420   6.746  48.263  1.00  0.00    -0.035 C 
HETATM   16  C1  UNL     1      28.794   6.607  47.769  1.00  0.00     0.036 C 
ENDBRANCH  13  14
ENDBRANCH  12  13
ENDBRANCH   1  11
BRANCH   1  17
HETATM   17  C8  UNL     1      26.602   1.208  52.287  1.00  0.00     0.006 A 
HETATM   18  C9  UNL     1      27.598   1.888  52.977  1.00  0.00     0.015 A 
HETATM   19  C10 UNL     1      28.599   1.209  53.634  1.00  0.00     0.043 A 
HETATM   20  C11 UNL     1      28.576  -0.156  53.586  1.00  0.00     0.116 A 
HETATM   21  F1  UNL     1      29.567  -0.822  54.239  1.00  0.00    -0.206 F 
HETATM   22  C12 UNL     1      27.588  -0.831  52.902  1.00  0.00     0.043 A 
HETATM   23  C13 UNL     1      26.571  -0.152  52.232  1.00  0.00     0.015 A 
ENDBRANCH   1  17
BRANCH   7  24
HETATM   24  S1  UNL     1      19.382   2.062  51.366  1.00  0.00     0.045 S 
HETATM   25  C19 UNL     1      19.008   0.472  52.062  1.00  0.00     0.133 C 
HETATM   26  O1  UNL     1      18.739   3.199  52.117  1.00  0.00    -0.253 OA
ENDBRANCH   7  24
TORSDOF 5
ENDMDL
MODEL 6
REMARK VINA RESULT:      -8.1      3.803      7.041
REMARK  5 active torsions:
REMARK  status: ('A' for Active; 'I' for Inactive)
REMARK    1  A    between atoms: C3_3  and  C4_4 
REMARK    2  A    between atoms: C4_4  and  C5_5 
REMARK    3  A    between atoms: C6_6  and  C7_7 
REMARK    4  A    between atoms: C7_7  and  C8_8 
REMARK    5  A    between atoms: C18_20  and  S1_21 
ROOT
HETATM    1  C7  UNL     1      24.560   2.585  52.191  1.00  0.00     0.297 C 
HETATM    2  N1  UNL     1      25.125   2.973  53.431  1.00  0.00    -0.253 NA
HETATM    3  C14 UNL     1      25.945   2.089  53.819  1.00  0.00     0.137 C 
HETATM    4  C15 UNL     1      26.004   0.978  52.818  1.00  0.00     0.232 A 
HETATM    5  C16 UNL     1      25.294  -0.231  53.215  1.00  0.00     0.026 A 
HETATM    6  C17 UNL     1      26.162  -1.251  53.334  1.00  0.00     0.020 A 
HETATM    7  C18 UNL     1      27.471  -0.725  53.014  1.00  0.00     0.030 A 
HETATM    8  C20 UNL     1      27.425   0.564  52.708  1.00  0.00     0.045 A 
HETATM    9  N2  UNL     1      25.496   1.632  51.632  1.00  0.00     0.145 N 
HETATM   10  H21 UNL     1      26.272   2.184  51.215  1.00  0.00     0.322 HD
ENDROOT
BRANCH   1  11
HETATM   11  C6  UNL     1      23.249   1.937  52.506  1.00  0.00     0.040 C 
HETATM   12  C5  UNL     1      22.576   1.244  51.601  1.00  0.00    -0.022 C 
BRANCH  12  13
HETATM   13  C4  UNL     1      21.258   0.525  51.717  1.00  0.00     0.053 C 
BRANCH  13  14
HETATM   14  C3  UNL     1      21.380  -0.704  52.514  1.00  0.00    -0.027 C 
HETATM   15  C2  UNL     1      21.136  -0.840  53.801  1.00  0.00    -0.035 C 
HETATM   16  C1  UNL     1      20.690   0.283  54.633  1.00  0.00     0.036 C 
ENDBRANCH  13  14
ENDBRANCH  12  13
ENDBRANCH   1  11
BRANCH   1  17
HETATM   17  C8  UNL     1      24.368   3.743  51.272  1.00  0.00     0.006 A 
HETATM   18  C9  UNL     1      25.074   3.713  50.077  1.00  0.00     0.015 A 
HETATM   19  C10 UNL     1      24.967   4.735  49.162  1.00  0.00     0.043 A 
HETATM   20  C11 UNL     1      24.141   5.778  49.470  1.00  0.00     0.116 A 
HETATM   21  F1  UNL     1      24.037   6.786  48.561  1.00  0.00    -0.206 F 
HETATM   22  C12 UNL     1      23.440   5.809  50.658  1.00  0.00     0.043 A 
HETATM   23  C13 UNL     1      23.543   4.778  51.591  1.00  0.00     0.015 A 
ENDBRANCH   1  17
BRANCH   7  24
HETATM   24  S1  UNL     1      28.951  -1.700  53.031  1.00  0.00     0.045 S 
HETATM   25  C19 UNL     1      30.291  -0.883  53.861  1.00  0.00     0.133 C 
HETATM   26  O1  UNL     1      28.720  -3.104  53.524  1.00  0.00    -0.253 OA
ENDBRANCH   7  24
TORSDOF 5
ENDMDL
MODEL 7
REMARK VINA RESULT:      -8.0      3.610      6.083
REMARK  5 active torsions:
REMARK  status: ('A' for Active; 'I' for Inactive)
REMARK    1  A    between atoms: C3_3  and  C4_4 
REMARK    2  A    between atoms: C4_4  and  C5_5 
REMARK    3  A    between atoms: C6_6  and  C7_7 
REMARK    4  A    between atoms: C7_7  and  C8_8 
REMARK    5  A    between atoms: C18_20  and  S1_21 
ROOT
HETATM    1  C7  UNL     1      24.489   2.302  52.110  1.00  0.00     0.297 C 
HETATM    2  N1  UNL     1      24.423   2.160  50.701  1.00  0.00    -0.253 NA
HETATM    3  C14 UNL     1      24.109   3.270  50.178  1.00  0.00     0.137 C 
HETATM    4  C15 UNL     1      23.930   4.302  51.246  1.00  0.00     0.232 A 
HETATM    5  C16 UNL     1      22.542   4.627  51.546  1.00  0.00     0.026 A 
HETATM    6  C17 UNL     1      22.303   5.918  51.257  1.00  0.00     0.020 A 
HETATM    7  C18 UNL     1      23.543   6.470  50.755  1.00  0.00     0.030 A 
HETATM    8  C20 UNL     1      24.513   5.568  50.732  1.00  0.00     0.045 A 
HETATM    9  N2  UNL     1      24.680   3.719  52.337  1.00  0.00     0.145 N 
HETATM   10  H21 UNL     1      25.687   3.916  52.174  1.00  0.00     0.322 HD
ENDROOT
BRANCH   1  11
HETATM   11  C6  UNL     1      23.172   1.838  52.645  1.00  0.00     0.040 C 
HETATM   12  C5  UNL     1      22.484   0.867  52.065  1.00  0.00    -0.022 C 
BRANCH  12  13
HETATM   13  C4  UNL     1      21.158   0.263  52.442  1.00  0.00     0.053 C 
BRANCH  13  14
HETATM   14  C3  UNL     1      20.873   0.432  53.874  1.00  0.00    -0.027 C 
HETATM   15  C2  UNL     1      21.207  -0.387  54.849  1.00  0.00    -0.035 C 
HETATM   16  C1  UNL     1      21.943  -1.632  54.604  1.00  0.00     0.036 C 
ENDBRANCH  13  14
ENDBRANCH  12  13
ENDBRANCH   1  11
BRANCH   1  17
HETATM   17  C8  UNL     1      25.607   1.514  52.703  1.00  0.00     0.006 A 
HETATM   18  C9  UNL     1      26.083   0.446  51.953  1.00  0.00     0.015 A 
HETATM   19  C10 UNL     1      27.112  -0.343  52.413  1.00  0.00     0.043 A 
HETATM   20  C11 UNL     1      27.648  -0.039  53.632  1.00  0.00     0.116 A 
HETATM   21  F1  UNL     1      28.665  -0.823  54.083  1.00  0.00    -0.206 F 
HETATM   22  C12 UNL     1      27.175   1.020  54.378  1.00  0.00     0.043 A 
HETATM   23  C13 UNL     1      26.132   1.825  53.919  1.00  0.00     0.015 A 
ENDBRANCH   1  17
BRANCH   7  24
HETATM   24  S1  UNL     1      23.728   8.155  50.237  1.00  0.00     0.045 S 
HETATM   25  C19 UNL     1      25.426   8.602  49.978  1.00  0.00     0.133 C 
HETATM   26  O1  UNL     1      22.842   8.509  49.071  1.00  0.00    -0.253 OA
ENDBRANCH   7  24
TORSDOF 5
ENDMDL
MODEL 8
REMARK VINA RESULT:      -7.9      3.768      6.502
REMARK  5 active torsions:
REMARK  status: ('A' for Active; 'I' for Inactive)
REMARK    1  A    between atoms: C3_3  and  C4_4 
REMARK    2  A    between atoms: C4_4  and  C5_5 
REMARK    3  A    between atoms: C6_6  and  C7_7 
REMARK    4  A    between atoms: C7_7  and  C8_8 
REMARK    5  A    between atoms: C18_20  and  S1_21 
ROOT
HETATM    1  C7  UNL     1      23.807   1.714  52.273  1.00  0.00     0.297 C 
HETATM    2  N1  UNL     1      23.867   2.881  53.076  1.00  0.00    -0.253 NA
HETATM    3  C14 UNL     1      23.953   3.903  52.333  1.00  0.00     0.137 C 
HETATM    4  C15 UNL     1      23.956   3.488  50.896  1.00  0.00     0.232 A 
HETATM    5  C16 UNL     1      25.263   3.537  50.255  1.00  0.00     0.026 A 
HETATM    6  C17 UNL     1      25.246   4.435  49.254  1.00  0.00     0.020 A 
HETATM    7  C18 UNL     1      23.914   4.996  49.219  1.00  0.00     0.030 A 
HETATM    8  C20 UNL     1      23.132   4.475  50.154  1.00  0.00     0.045 A 
HETATM    9  N2  UNL     1      23.356   2.173  50.976  1.00  0.00     0.145 N 
HETATM   10  H21 UNL     1      22.326   2.296  51.042  1.00  0.00     0.322 HD
ENDROOT
BRANCH   1  11
HETATM   11  C6  UNL     1      25.200   1.175  52.204  1.00  0.00     0.040 C 
HETATM   12  C5  UNL     1      26.040   1.276  53.222  1.00  0.00    -0.022 C 
BRANCH  12  13
HETATM   13  C4  UNL     1      27.464   0.805  53.351  1.00  0.00     0.053 C 
BRANCH  13  14
HETATM   14  C3  UNL     1      27.576  -0.646  53.141  1.00  0.00    -0.027 C 
HETATM   15  C2  UNL     1      28.668  -1.376  53.230  1.00  0.00    -0.035 C 
HETATM   16  C1  UNL     1      29.971  -0.792  53.567  1.00  0.00     0.036 C 
ENDBRANCH  13  14
ENDBRANCH  12  13
ENDBRANCH   1  11
BRANCH   1  17
HETATM   17  C8  UNL     1      22.873   0.695  52.830  1.00  0.00     0.006 A 
HETATM   18  C9  UNL     1      21.553   1.089  53.004  1.00  0.00     0.015 A 
HETATM   19  C10 UNL     1      20.613   0.221  53.513  1.00  0.00     0.043 A 
HETATM   20  C11 UNL     1      21.025  -1.040  53.838  1.00  0.00     0.116 A 
HETATM   21  F1  UNL     1      20.092  -1.894  54.340  1.00  0.00    -0.206 F 
HETATM   22  C12 UNL     1      22.336  -1.431  53.665  1.00  0.00     0.043 A 
HETATM   23  C13 UNL     1      23.295  -0.559  53.151  1.00  0.00     0.015 A 
ENDBRANCH   1  17
BRANCH   7  24
HETATM   24  S1  UNL     1      23.400   6.233  48.058  1.00  0.00     0.045 S 
HETATM   25  C19 UNL     1      24.732   7.301  47.572  1.00  0.00     0.133 C 
HETATM   26  O1  UNL     1      22.648   5.658  46.886  1.00  0.00    -0.253 OA
ENDBRANCH   7  24
TORSDOF 5
ENDMDL
MODEL 9
REMARK VINA RESULT:      -7.9      3.544      6.389
REMARK  5 active torsions:
REMARK  status: ('A' for Active; 'I' for Inactive)
REMARK    1  A    between atoms: C3_3  and  C4_4 
REMARK    2  A    between atoms: C4_4  and  C5_5 
REMARK    3  A    between atoms: C6_6  and  C7_7 
REMARK    4  A    between atoms: C7_7  and  C8_8 
REMARK    5  A    between atoms: C18_20  and  S1_21 
ROOT
HETATM    1  C7  UNL     1      24.429   3.874  50.638  1.00  0.00     0.297 C 
HETATM    2  N1  UNL     1      23.999   4.394  51.884  1.00  0.00    -0.253 NA
HETATM    3  C14 UNL     1      24.236   3.550  52.799  1.00  0.00     0.137 C 
HETATM    4  C15 UNL     1      24.880   2.334  52.214  1.00  0.00     0.232 A 
HETATM    5  C16 UNL     1      23.995   1.184  52.084  1.00  0.00     0.026 A 
HETATM    6  C17 UNL     1      24.442   0.176  52.853  1.00  0.00     0.020 A 
HETATM    7  C18 UNL     1      25.641   0.649  53.507  1.00  0.00     0.030 A 
HETATM    8  C20 UNL     1      25.932   1.896  53.165  1.00  0.00     0.045 A 
HETATM    9  N2  UNL     1      25.403   2.856  50.970  1.00  0.00     0.145 N 
HETATM   10  H21 UNL     1      26.293   3.349  51.180  1.00  0.00     0.322 HD
ENDROOT
BRANCH   1  11
HETATM   11  C6  UNL     1      23.221   3.278  49.987  1.00  0.00     0.040 C 
HETATM   12  C5  UNL     1      23.285   2.679  48.808  1.00  0.00    -0.022 C 
BRANCH  12  13
HETATM   13  C4  UNL     1      22.200   2.025  47.996  1.00  0.00     0.053 C 
BRANCH  13  14
HETATM   14  C3  UNL     1      21.402   1.094  48.807  1.00  0.00    -0.027 C 
HETATM   15  C2  UNL     1      20.211   1.315  49.323  1.00  0.00    -0.035 C 
HETATM   16  C1  UNL     1      19.505   2.588  49.137  1.00  0.00     0.036 C 
ENDBRANCH  13  14
ENDBRANCH  12  13
ENDBRANCH   1  11
BRANCH   1  17
HETATM   17  C8  UNL     1      25.033   4.923  49.768  1.00  0.00     0.006 A 
HETATM   18  C9  UNL     1      26.373   4.764  49.439  1.00  0.00     0.015 A 
HETATM   19  C10 UNL     1      27.023   5.679  48.643  1.00  0.00     0.043 A 
HETATM   20  C11 UNL     1      26.304   6.747  48.188  1.00  0.00     0.116 A 
HETATM   21  F1  UNL     1      26.952   7.649  47.400  1.00  0.00    -0.206 F 
HETATM   22  C12 UNL     1      24.974   6.906  48.514  1.00  0.00     0.043 A 
HETATM   23  C13 UNL     1      24.307   5.984  49.321  1.00  0.00     0.015 A 
ENDBRANCH   1  17
BRANCH   7  24
HETATM   24  S1  UNL     1      26.598  -0.332  54.631  1.00  0.00     0.045 S 
HETATM   25  C19 UNL     1      28.235   0.313  54.870  1.00  0.00     0.133 C 
HETATM   26  O1  UNL     1      25.879  -0.608  55.926  1.00  0.00    -0.253 OA
ENDBRANCH   7  24
TORSDOF 5
ENDMDL
