MODEL 1
REMARK VINA RESULT:      -8.1      0.000      0.000
REMARK  2 active torsions:
REMARK  status: ('A' for Active; 'I' for Inactive)
REMARK    1  A    between atoms: C2_2  and  O1_3 
REMARK    2  A    between atoms: O1_3  and  C3_4 
ROOT
HETATM    1  C3  UNL     1      26.003   0.232  53.556  1.00  0.00     0.121 C 
HETATM    2  C4  UNL     1      25.265  -0.868  54.273  1.00  0.00     0.133 C 
HETATM    3  N1  UNL     1      24.054  -0.570  54.487  1.00  0.00    -0.255 NA
HETATM    4  C5  UNL     1      23.171  -1.450  55.145  1.00  0.00     0.234 C 
HETATM    5  N2  UNL     1      21.922  -1.718  54.904  1.00  0.00    -0.225 NA
HETATM    6  C6  UNL     1      21.282  -1.064  53.833  1.00  0.00     0.127 C 
HETATM    7  C7  UNL     1      21.792  -0.468  52.751  1.00  0.00     0.059 C 
HETATM    8  C8  UNL     1      21.621   0.840  52.056  1.00  0.00     0.177 C 
HETATM    9  C9  UNL     1      20.606   0.791  51.003  1.00  0.00     0.009 C 
HETATM   10  C10 UNL     1      19.407   0.223  51.101  1.00  0.00     0.000 C 
HETATM   11  C11 UNL     1      18.505  -0.338  52.100  1.00  0.00     0.017 C 
HETATM   12  C12 UNL     1      18.648  -0.780  53.363  1.00  0.00     0.089 C 
HETATM   13  N3  UNL     1      19.855  -1.132  54.082  1.00  0.00    -0.351 N 
HETATM   14  O2  UNL     1      22.888   1.120  51.444  1.00  0.00    -0.350 OA
HETATM   15  C13 UNL     1      24.041   0.895  52.224  1.00  0.00     0.142 C 
HETATM   16  C14 UNL     1      25.082   1.173  52.932  1.00  0.00    -0.018 C 
HETATM   17  C15 UNL     1      25.842   2.290  53.454  1.00  0.00     0.043 C 
HETATM   18  C16 UNL     1      26.456   1.345  54.460  1.00  0.00     0.053 C 
HETATM   19  H12 UNL     1      19.647  -1.542  55.025  1.00  0.00     0.166 HD
ENDROOT
BRANCH   1  20
HETATM   20  O1  UNL     1      27.090  -0.249  52.801  1.00  0.00    -0.362 OA
BRANCH  20  21
HETATM   21  C2  UNL     1      28.109  -0.903  53.474  1.00  0.00     0.152 C 
HETATM   22  C1  UNL     1      29.432  -0.668  53.490  1.00  0.00     0.037 C 
ENDBRANCH  20  21
ENDBRANCH   1  20
TORSDOF 2
ENDMDL
MODEL 2
REMARK VINA RESULT:      -7.8      2.014      6.815
REMARK  2 active torsions:
REMARK  status: ('A' for Active; 'I' for Inactive)
REMARK    1  A    between atoms: C2_2  and  O1_3 
REMARK    2  A    between atoms: O1_3  and  C3_4 
ROOT
HETATM    1  C3  UNL     1      21.726   0.368  52.886  1.00  0.00     0.121 C 
HETATM    2  C4  UNL     1      22.368   1.689  52.550  1.00  0.00     0.133 C 
HETATM    3  N1  UNL     1      23.415   1.898  53.230  1.00  0.00    -0.255 NA
HETATM    4  C5  UNL     1      24.182   3.072  53.082  1.00  0.00     0.234 C 
HETATM    5  N2  UNL     1      25.471   3.234  53.079  1.00  0.00    -0.225 NA
HETATM    6  C6  UNL     1      26.298   2.105  53.243  1.00  0.00     0.127 C 
HETATM    7  C7  UNL     1      26.045   0.808  53.044  1.00  0.00     0.059 C 
HETATM    8  C8  UNL     1      26.231  -0.459  53.807  1.00  0.00     0.177 C 
HETATM    9  C9  UNL     1      27.502  -1.117  53.507  1.00  0.00     0.009 C 
HETATM   10  C10 UNL     1      28.687  -0.520  53.416  1.00  0.00     0.000 C 
HETATM   11  C11 UNL     1      29.331   0.755  53.709  1.00  0.00     0.017 C 
HETATM   12  C12 UNL     1      28.893   2.004  53.949  1.00  0.00     0.089 C 
HETATM   13  N3  UNL     1      27.589   2.584  53.700  1.00  0.00    -0.351 N 
HETATM   14  O2  UNL     1      25.167  -1.324  53.382  1.00  0.00    -0.350 OA
HETATM   15  C13 UNL     1      23.880  -0.757  53.283  1.00  0.00     0.142 C 
HETATM   16  C14 UNL     1      22.652  -0.511  53.588  1.00  0.00    -0.018 C 
HETATM   17  C15 UNL     1      21.630  -0.838  54.561  1.00  0.00     0.043 C 
HETATM   18  C16 UNL     1      20.887   0.405  54.133  1.00  0.00     0.053 C 
HETATM   19  H12 UNL     1      27.570   3.613  53.900  1.00  0.00     0.166 HD
ENDROOT
BRANCH   1  20
HETATM   20  O1  UNL     1      20.978  -0.157  51.816  1.00  0.00    -0.362 OA
BRANCH  20  21
HETATM   21  C2  UNL     1      19.741   0.408  51.550  1.00  0.00     0.152 C 
HETATM   22  C1  UNL     1      18.515  -0.142  51.551  1.00  0.00     0.037 C 
ENDBRANCH  20  21
ENDBRANCH   1  20
TORSDOF 2
ENDMDL
MODEL 3
REMARK VINA RESULT:      -7.8      2.128      3.112
REMARK  2 active torsions:
REMARK  status: ('A' for Active; 'I' for Inactive)
REMARK    1  A    between atoms: C2_2  and  O1_3 
REMARK    2  A    between atoms: O1_3  and  C3_4 
ROOT
HETATM    1  C3  UNL     1      26.257   0.923  53.068  1.00  0.00     0.121 C 
HETATM    2  C4  UNL     1      25.474   1.898  52.228  1.00  0.00     0.133 C 
HETATM    3  N1  UNL     1      24.470   1.356  51.678  1.00  0.00    -0.255 NA
HETATM    4  C5  UNL     1      23.591   2.079  50.845  1.00  0.00     0.234 C 
HETATM    5  N2  UNL     1      22.296   2.026  50.749  1.00  0.00    -0.225 NA
HETATM    6  C6  UNL     1      21.590   1.128  51.574  1.00  0.00     0.127 C 
HETATM    7  C7  UNL     1      21.943   0.548  52.725  1.00  0.00     0.059 C 
HETATM    8  C8  UNL     1      21.933  -0.833  53.287  1.00  0.00     0.177 C 
HETATM    9  C9  UNL     1      20.706  -1.134  54.024  1.00  0.00     0.009 C 
HETATM   10  C10 UNL     1      19.469  -0.848  53.629  1.00  0.00     0.000 C 
HETATM   11  C11 UNL     1      18.739  -0.402  52.449  1.00  0.00     0.017 C 
HETATM   12  C12 UNL     1      19.081   0.199  51.295  1.00  0.00     0.089 C 
HETATM   13  N3  UNL     1      20.303   0.895  50.948  1.00  0.00    -0.351 N 
HETATM   14  O2  UNL     1      23.033  -0.882  54.208  1.00  0.00    -0.350 OA
HETATM   15  C13 UNL     1      24.252  -0.315  53.783  1.00  0.00     0.142 C 
HETATM   16  C14 UNL     1      25.474  -0.266  53.374  1.00  0.00    -0.018 C 
HETATM   17  C15 UNL     1      26.595  -1.115  53.028  1.00  0.00     0.043 C 
HETATM   18  C16 UNL     1      27.187   0.051  52.271  1.00  0.00     0.053 C 
HETATM   19  H12 UNL     1      20.245   1.348  50.005  1.00  0.00     0.166 HD
ENDROOT
BRANCH   1  20
HETATM   20  O1  UNL     1      26.961   1.553  54.111  1.00  0.00    -0.362 OA
BRANCH  20  21
HETATM   21  C2  UNL     1      28.113   2.252  53.788  1.00  0.00     0.152 C 
HETATM   22  C1  UNL     1      29.366   2.128  54.257  1.00  0.00     0.037 C 
ENDBRANCH  20  21
ENDBRANCH   1  20
TORSDOF 2
ENDMDL
MODEL 4
REMARK VINA RESULT:      -7.7      1.980      6.513
REMARK  2 active torsions:
REMARK  status: ('A' for Active; 'I' for Inactive)
REMARK    1  A    between atoms: C2_2  and  O1_3 
REMARK    2  A    between atoms: O1_3  and  C3_4 
ROOT
HETATM    1  C3  UNL     1      21.862   1.372  52.167  1.00  0.00     0.121 C 
HETATM    2  C4  UNL     1      22.176   0.521  53.370  1.00  0.00     0.133 C 
HETATM    3  N1  UNL     1      23.338   0.021  53.313  1.00  0.00    -0.255 NA
HETATM    4  C5  UNL     1      23.847  -0.810  54.331  1.00  0.00     0.234 C 
HETATM    5  N2  UNL     1      25.038  -0.865  54.849  1.00  0.00    -0.225 NA
HETATM    6  C6  UNL     1      26.029   0.014  54.368  1.00  0.00     0.127 C 
HETATM    7  C7  UNL     1      25.916   1.174  53.715  1.00  0.00     0.059 C 
HETATM    8  C8  UNL     1      26.504   1.785  52.489  1.00  0.00     0.177 C 
HETATM    9  C9  UNL     1      27.706   2.570  52.771  1.00  0.00     0.009 C 
HETATM   10  C10 UNL     1      28.710   2.203  53.562  1.00  0.00     0.000 C 
HETATM   11  C11 UNL     1      29.222   1.030  54.261  1.00  0.00     0.017 C 
HETATM   12  C12 UNL     1      28.701  -0.156  54.628  1.00  0.00     0.089 C 
HETATM   13  N3  UNL     1      27.314  -0.564  54.711  1.00  0.00    -0.351 N 
HETATM   14  O2  UNL     1      25.498   2.674  51.981  1.00  0.00    -0.350 OA
HETATM   15  C13 UNL     1      24.173   2.191  51.948  1.00  0.00     0.142 C 
HETATM   16  C14 UNL     1      23.073   1.744  51.448  1.00  0.00    -0.018 C 
HETATM   17  C15 UNL     1      22.451   1.396  50.187  1.00  0.00     0.043 C 
HETATM   18  C16 UNL     1      21.443   0.579  50.960  1.00  0.00     0.053 C 
HETATM   19  H12 UNL     1      27.209  -1.521  55.126  1.00  0.00     0.166 HD
ENDROOT
BRANCH   1  20
HETATM   20  O1  UNL     1      20.909   2.369  52.445  1.00  0.00    -0.362 OA
BRANCH  20  21
HETATM   21  C2  UNL     1      19.580   2.093  52.167  1.00  0.00     0.152 C 
HETATM   22  C1  UNL     1      18.622   2.872  51.638  1.00  0.00     0.037 C 
ENDBRANCH  20  21
ENDBRANCH   1  20
TORSDOF 2
ENDMDL
MODEL 5
REMARK VINA RESULT:      -7.2      1.638      2.041
REMARK  2 active torsions:
REMARK  status: ('A' for Active; 'I' for Inactive)
REMARK    1  A    between atoms: C2_2  and  O1_3 
REMARK    2  A    between atoms: O1_3  and  C3_4 
ROOT
HETATM    1  C3  UNL     1      24.290   1.528  52.572  1.00  0.00     0.121 C 
HETATM    2  C4  UNL     1      23.910   0.324  53.394  1.00  0.00     0.133 C 
HETATM    3  N1  UNL     1      22.690   0.343  53.734  1.00  0.00    -0.255 NA
HETATM    4  C5  UNL     1      22.112  -0.684  54.507  1.00  0.00     0.234 C 
HETATM    5  N2  UNL     1      20.944  -1.246  54.413  1.00  0.00    -0.225 NA
HETATM    6  C6  UNL     1      20.062  -0.814  53.402  1.00  0.00     0.127 C 
HETATM    7  C7  UNL     1      20.304  -0.171  52.256  1.00  0.00     0.059 C 
HETATM    8  C8  UNL     1      19.759   1.024  51.551  1.00  0.00     0.177 C 
HETATM    9  C9  UNL     1      18.684   0.687  50.618  1.00  0.00     0.009 C 
HETATM   10  C10 UNL     1      17.670  -0.138  50.863  1.00  0.00     0.000 C 
HETATM   11  C11 UNL     1      17.031  -0.841  51.969  1.00  0.00     0.017 C 
HETATM   12  C12 UNL     1      17.402  -1.174  53.219  1.00  0.00     0.089 C 
HETATM   13  N3  UNL     1      18.724  -1.199  53.810  1.00  0.00    -0.351 N 
HETATM   14  O2  UNL     1      20.856   1.559  50.796  1.00  0.00    -0.350 OA
HETATM   15  C13 UNL     1      22.102   1.649  51.449  1.00  0.00     0.142 C 
HETATM   16  C14 UNL     1      23.115   2.196  52.030  1.00  0.00    -0.018 C 
HETATM   17  C15 UNL     1      23.638   3.484  52.436  1.00  0.00     0.043 C 
HETATM   18  C16 UNL     1      24.556   2.760  53.393  1.00  0.00     0.053 C 
HETATM   19  H12 UNL     1      18.716  -1.597  54.779  1.00  0.00     0.166 HD
ENDROOT
BRANCH   1  20
HETATM   20  O1  UNL     1      25.377   1.275  51.715  1.00  0.00    -0.362 OA
BRANCH  20  21
HETATM   21  C2  UNL     1      26.502   0.671  52.254  1.00  0.00     0.152 C 
HETATM   22  C1  UNL     1      26.880  -0.618  52.256  1.00  0.00     0.037 C 
ENDBRANCH  20  21
ENDBRANCH   1  20
TORSDOF 2
ENDMDL
MODEL 6
REMARK VINA RESULT:      -7.0      4.512      7.315
REMARK  2 active torsions:
REMARK  status: ('A' for Active; 'I' for Inactive)
REMARK    1  A    between atoms: C2_2  and  O1_3 
REMARK    2  A    between atoms: O1_3  and  C3_4 
ROOT
HETATM    1  C3  UNL     1      22.666   1.566  51.867  1.00  0.00     0.121 C 
HETATM    2  C4  UNL     1      22.057   2.943  51.910  1.00  0.00     0.133 C 
HETATM    3  N1  UNL     1      22.932   3.850  52.027  1.00  0.00    -0.255 NA
HETATM    4  C5  UNL     1      22.591   5.217  52.087  1.00  0.00     0.234 C 
HETATM    5  N2  UNL     1      23.172   6.248  51.551  1.00  0.00    -0.225 NA
HETATM    6  C6  UNL     1      24.331   6.047  50.774  1.00  0.00     0.127 C 
HETATM    7  C7  UNL     1      24.780   4.952  50.154  1.00  0.00     0.059 C 
HETATM    8  C8  UNL     1      26.071   4.212  50.069  1.00  0.00     0.177 C 
HETATM    9  C9  UNL     1      26.899   4.648  48.944  1.00  0.00     0.009 C 
HETATM   10  C10 UNL     1      27.130   5.909  48.589  1.00  0.00     0.000 C 
HETATM   11  C11 UNL     1      26.958   7.268  49.086  1.00  0.00     0.017 C 
HETATM   12  C12 UNL     1      26.200   7.839  50.041  1.00  0.00     0.089 C 
HETATM   13  N3  UNL     1      25.039   7.312  50.729  1.00  0.00    -0.351 N 
HETATM   14  O2  UNL     1      25.714   2.838  49.855  1.00  0.00    -0.350 OA
HETATM   15  C13 UNL     1      24.666   2.318  50.643  1.00  0.00     0.142 C 
HETATM   16  C14 UNL     1      24.090   1.623  51.563  1.00  0.00    -0.018 C 
HETATM   17  C15 UNL     1      24.373   0.687  52.632  1.00  0.00     0.043 C 
HETATM   18  C16 UNL     1      23.023   1.022  53.222  1.00  0.00     0.053 C 
HETATM   19  H12 UNL     1      24.595   8.026  51.356  1.00  0.00     0.166 HD
ENDROOT
BRANCH   1  20
HETATM   20  O1  UNL     1      21.865   0.642  51.171  1.00  0.00    -0.362 OA
BRANCH  20  21
HETATM   21  C2  UNL     1      21.153   1.096  50.073  1.00  0.00     0.152 C 
HETATM   22  C1  UNL     1      21.468   1.083  48.766  1.00  0.00     0.037 C 
ENDBRANCH  20  21
ENDBRANCH   1  20
TORSDOF 2
ENDMDL
MODEL 7
REMARK VINA RESULT:      -7.0      3.776      5.500
REMARK  2 active torsions:
REMARK  status: ('A' for Active; 'I' for Inactive)
REMARK    1  A    between atoms: C2_2  and  O1_3 
REMARK    2  A    between atoms: O1_3  and  C3_4 
ROOT
HETATM    1  C3  UNL     1      23.564   5.167  50.701  1.00  0.00     0.121 C 
HETATM    2  C4  UNL     1      22.173   5.168  51.279  1.00  0.00     0.133 C 
HETATM    3  N1  UNL     1      21.653   4.014  51.276  1.00  0.00    -0.255 NA
HETATM    4  C5  UNL     1      20.355   3.775  51.772  1.00  0.00     0.234 C 
HETATM    5  N2  UNL     1      19.897   2.783  52.475  1.00  0.00    -0.225 NA
HETATM    6  C6  UNL     1      20.777   1.744  52.836  1.00  0.00     0.127 C 
HETATM    7  C7  UNL     1      22.111   1.725  52.917  1.00  0.00     0.059 C 
HETATM    8  C8  UNL     1      23.210   0.843  52.433  1.00  0.00     0.177 C 
HETATM    9  C9  UNL     1      23.581  -0.183  53.408  1.00  0.00     0.009 C 
HETATM   10  C10 UNL     1      22.736  -0.935  54.108  1.00  0.00     0.000 C 
HETATM   11  C11 UNL     1      21.322  -1.286  54.165  1.00  0.00     0.017 C 
HETATM   12  C12 UNL     1      20.192  -0.746  53.673  1.00  0.00     0.089 C 
HETATM   13  N3  UNL     1      19.963   0.583  53.142  1.00  0.00    -0.351 N 
HETATM   14  O2  UNL     1      24.340   1.706  52.241  1.00  0.00    -0.350 OA
HETATM   15  C13 UNL     1      24.105   2.938  51.595  1.00  0.00     0.142 C 
HETATM   16  C14 UNL     1      24.122   3.822  50.657  1.00  0.00    -0.018 C 
HETATM   17  C15 UNL     1      24.574   4.035  49.298  1.00  0.00     0.043 C 
HETATM   18  C16 UNL     1      23.592   5.178  49.197  1.00  0.00     0.053 C 
HETATM   19  H12 UNL     1      18.952   0.751  52.924  1.00  0.00     0.166 HD
ENDROOT
BRANCH   1  20
HETATM   20  O1  UNL     1      24.360   6.212  51.206  1.00  0.00    -0.362 OA
BRANCH  20  21
HETATM   21  C2  UNL     1      24.041   7.508  50.837  1.00  0.00     0.152 C 
HETATM   22  C1  UNL     1      24.763   8.426  50.173  1.00  0.00     0.037 C 
ENDBRANCH  20  21
ENDBRANCH   1  20
TORSDOF 2
ENDMDL
MODEL 8
REMARK VINA RESULT:      -6.8      2.554      6.389
REMARK  2 active torsions:
REMARK  status: ('A' for Active; 'I' for Inactive)
REMARK    1  A    between atoms: C2_2  and  O1_3 
REMARK    2  A    between atoms: O1_3  and  C3_4 
ROOT
HETATM    1  C3  UNL     1      21.418   2.438  50.028  1.00  0.00     0.121 C 
HETATM    2  C4  UNL     1      21.244   1.667  51.310  1.00  0.00     0.133 C 
HETATM    3  N1  UNL     1      22.241   0.928  51.563  1.00  0.00    -0.255 NA
HETATM    4  C5  UNL     1      22.298   0.116  52.714  1.00  0.00     0.234 C 
HETATM    5  N2  UNL     1      23.293  -0.139  53.510  1.00  0.00    -0.225 NA
HETATM    6  C6  UNL     1      24.544   0.454  53.243  1.00  0.00     0.127 C 
HETATM    7  C7  UNL     1      24.855   1.538  52.528  1.00  0.00     0.059 C 
HETATM    8  C8  UNL     1      25.832   1.881  51.455  1.00  0.00     0.177 C 
HETATM    9  C9  UNL     1      27.087   2.416  51.984  1.00  0.00     0.009 C 
HETATM   10  C10 UNL     1      27.770   1.925  53.014  1.00  0.00     0.000 C 
HETATM   11  C11 UNL     1      27.824   0.748  53.872  1.00  0.00     0.017 C 
HETATM   12  C12 UNL     1      26.973  -0.255  54.158  1.00  0.00     0.089 C 
HETATM   13  N3  UNL     1      25.548  -0.347  53.918  1.00  0.00    -0.351 N 
HETATM   14  O2  UNL     1      25.202   2.907  50.674  1.00  0.00    -0.350 OA
HETATM   15  C13 UNL     1      23.845   2.718  50.341  1.00  0.00     0.142 C 
HETATM   16  C14 UNL     1      22.814   2.468  49.609  1.00  0.00    -0.018 C 
HETATM   17  C15 UNL     1      22.432   2.133  48.253  1.00  0.00     0.043 C 
HETATM   18  C16 UNL     1      21.113   1.634  48.794  1.00  0.00     0.053 C 
HETATM   19  H12 UNL     1      25.132  -1.212  54.340  1.00  0.00     0.166 HD
ENDROOT
BRANCH   1  20
HETATM   20  O1  UNL     1      20.685   3.639  50.016  1.00  0.00    -0.362 OA
BRANCH  20  21
HETATM   21  C2  UNL     1      20.839   4.505  51.086  1.00  0.00     0.152 C 
HETATM   22  C1  UNL     1      21.420   5.715  51.149  1.00  0.00     0.037 C 
ENDBRANCH  20  21
ENDBRANCH   1  20
TORSDOF 2
ENDMDL
MODEL 9
REMARK VINA RESULT:      -6.8      4.229      7.114
REMARK  2 active torsions:
REMARK  status: ('A' for Active; 'I' for Inactive)
REMARK    1  A    between atoms: C2_2  and  O1_3 
REMARK    2  A    between atoms: O1_3  and  C3_4 
ROOT
HETATM    1  C3  UNL     1      22.118   1.535  51.768  1.00  0.00     0.121 C 
HETATM    2  C4  UNL     1      23.558   1.507  52.209  1.00  0.00     0.133 C 
HETATM    3  N1  UNL     1      24.350   1.832  51.277  1.00  0.00    -0.255 NA
HETATM    4  C5  UNL     1      25.747   1.877  51.462  1.00  0.00     0.234 C 
HETATM    5  N2  UNL     1      26.623   2.730  51.023  1.00  0.00    -0.225 NA
HETATM    6  C6  UNL     1      26.182   3.809  50.230  1.00  0.00     0.127 C 
HETATM    7  C7  UNL     1      24.972   4.364  50.118  1.00  0.00     0.059 C 
HETATM    8  C8  UNL     1      24.064   4.759  49.003  1.00  0.00     0.177 C 
HETATM    9  C9  UNL     1      24.252   6.150  48.588  1.00  0.00     0.009 C 
HETATM   10  C10 UNL     1      25.420   6.754  48.394  1.00  0.00     0.000 C 
HETATM   11  C11 UNL     1      26.840   6.447  48.269  1.00  0.00     0.017 C 
HETATM   12  C12 UNL     1      27.614   5.395  48.595  1.00  0.00     0.089 C 
HETATM   13  N3  UNL     1      27.329   4.285  49.481  1.00  0.00    -0.351 N 
HETATM   14  O2  UNL     1      22.734   4.623  49.524  1.00  0.00    -0.350 OA
HETATM   15  C13 UNL     1      22.451   3.459  50.268  1.00  0.00     0.142 C 
HETATM   16  C14 UNL     1      21.952   2.302  50.541  1.00  0.00    -0.018 C 
HETATM   17  C15 UNL     1      21.120   1.258  49.980  1.00  0.00     0.043 C 
HETATM   18  C16 UNL     1      21.696   0.310  51.005  1.00  0.00     0.053 C 
HETATM   19  H12 UNL     1      28.164   3.666  49.618  1.00  0.00     0.166 HD
ENDROOT
BRANCH   1  20
HETATM   20  O1  UNL     1      21.231   1.769  52.835  1.00  0.00    -0.362 OA
BRANCH  20  21
HETATM   21  C2  UNL     1      20.711   0.671  53.500  1.00  0.00     0.152 C 
HETATM   22  C1  UNL     1      21.183  -0.008  54.559  1.00  0.00     0.037 C 
ENDBRANCH  20  21
ENDBRANCH   1  20
TORSDOF 2
ENDMDL
