MODEL 1
REMARK VINA RESULT:      -8.2      0.000      0.000
REMARK  3 active torsions:
REMARK  status: ('A' for Active; 'I' for Inactive)
REMARK    1  A    between atoms: C7_8  and  C8_9 
REMARK    2  A    between atoms: C8_9  and  C9_10 
REMARK    3  A    between atoms: C9_10  and  C10_11 
ROOT
HETATM    1  C10 UNL     1      26.055   1.051  53.316  1.00  0.00     0.245 C 
HETATM    2  N1  UNL     1      26.782   1.474  54.547  1.00  0.00    -0.251 NA
HETATM    3  C11 UNL     1      27.769   0.716  54.986  1.00  0.00     0.229 C 
HETATM    4  N2  UNL     1      28.290  -0.488  54.483  1.00  0.00    -0.258 NA
HETATM    5  C12 UNL     1      29.179  -0.451  53.515  1.00  0.00     0.094 C 
HETATM    6  C13 UNL     1      29.435  -1.908  53.294  1.00  0.00     0.073 C 
HETATM    7  C14 UNL     1      28.182  -2.602  52.797  1.00  0.00    -0.024 C 
HETATM    8  C15 UNL     1      26.899  -2.381  52.383  1.00  0.00    -0.005 C 
HETATM    9  C16 UNL     1      26.779  -0.924  52.455  1.00  0.00     0.197 C 
HETATM   10  O1  UNL     1      25.889  -0.348  53.317  1.00  0.00    -0.361 OA
ENDROOT
BRANCH   1  11
HETATM   11  C9  UNL     1      24.745   1.705  53.186  1.00  0.00     0.060 C 
BRANCH  11  12
HETATM   12  C8  UNL     1      24.105   1.314  51.865  1.00  0.00     0.043 C 
BRANCH  12  13
HETATM   13  C7  UNL     1      22.744   0.813  52.147  1.00  0.00    -0.052 A 
HETATM   14  C2  UNL     1      21.782   0.812  51.143  1.00  0.00    -0.054 A 
HETATM   15  C1  UNL     1      21.972   1.292  49.772  1.00  0.00     0.049 C 
HETATM   16  C3  UNL     1      20.564   0.301  51.576  1.00  0.00     0.031 A 
HETATM   17  C4  UNL     1      20.235  -0.179  52.834  1.00  0.00     0.034 A 
HETATM   18 CL1  UNL     1      18.636  -0.780  53.164  1.00  0.00    -0.084 Cl
HETATM   19  C5  UNL     1      21.264  -0.133  53.757  1.00  0.00     0.024 A 
HETATM   20  C6  UNL     1      22.515   0.359  53.425  1.00  0.00     0.009 A 
ENDBRANCH  12  13
ENDBRANCH  11  12
ENDBRANCH   1  11
TORSDOF 3
ENDMDL
MODEL 2
REMARK VINA RESULT:      -8.2      1.175      2.034
REMARK  3 active torsions:
REMARK  status: ('A' for Active; 'I' for Inactive)
REMARK    1  A    between atoms: C7_8  and  C8_9 
REMARK    2  A    between atoms: C8_9  and  C9_10 
REMARK    3  A    between atoms: C9_10  and  C10_11 
ROOT
HETATM    1  C10 UNL     1      25.623   0.399  52.759  1.00  0.00     0.245 C 
HETATM    2  N1  UNL     1      25.937   1.164  53.999  1.00  0.00    -0.251 NA
HETATM    3  C11 UNL     1      26.998   0.814  54.702  1.00  0.00     0.229 C 
HETATM    4  N2  UNL     1      27.940  -0.207  54.489  1.00  0.00    -0.258 NA
HETATM    5  C12 UNL     1      28.949   0.007  53.675  1.00  0.00     0.094 C 
HETATM    6  C13 UNL     1      29.662  -1.306  53.737  1.00  0.00     0.073 C 
HETATM    7  C14 UNL     1      28.793  -2.414  53.177  1.00  0.00    -0.024 C 
HETATM    8  C15 UNL     1      27.609  -2.662  52.542  1.00  0.00    -0.005 C 
HETATM    9  C16 UNL     1      27.052  -1.321  52.355  1.00  0.00     0.197 C 
HETATM   10  O1  UNL     1      25.881  -0.970  52.965  1.00  0.00    -0.361 OA
ENDROOT
BRANCH   1  11
HETATM   11  C9  UNL     1      24.231   0.581  52.326  1.00  0.00     0.060 C 
BRANCH  11  12
HETATM   12  C8  UNL     1      23.397   1.098  53.486  1.00  0.00     0.043 C 
BRANCH  12  13
HETATM   13  C7  UNL     1      22.130   0.340  53.512  1.00  0.00    -0.052 A 
HETATM   14  C2  UNL     1      21.993  -0.759  54.354  1.00  0.00    -0.054 A 
HETATM   15  C1  UNL     1      23.025  -1.286  55.251  1.00  0.00     0.049 C 
HETATM   16  C3  UNL     1      20.738  -1.347  54.259  1.00  0.00     0.031 A 
HETATM   17  C4  UNL     1      19.673  -0.968  53.457  1.00  0.00     0.034 A 
HETATM   18 CL1  UNL     1      18.175  -1.853  53.495  1.00  0.00    -0.084 Cl
HETATM   19  C5  UNL     1      19.914   0.135  52.660  1.00  0.00     0.024 A 
HETATM   20  C6  UNL     1      21.133   0.793  52.680  1.00  0.00     0.009 A 
ENDBRANCH  12  13
ENDBRANCH  11  12
ENDBRANCH   1  11
TORSDOF 3
ENDMDL
MODEL 3
REMARK VINA RESULT:      -8.1      1.537      2.391
REMARK  3 active torsions:
REMARK  status: ('A' for Active; 'I' for Inactive)
REMARK    1  A    between atoms: C7_8  and  C8_9 
REMARK    2  A    between atoms: C8_9  and  C9_10 
REMARK    3  A    between atoms: C9_10  and  C10_11 
ROOT
HETATM    1  C10 UNL     1      26.860   1.404  53.069  1.00  0.00     0.245 C 
HETATM    2  N1  UNL     1      27.659   1.729  54.285  1.00  0.00    -0.251 NA
HETATM    3  C11 UNL     1      28.431   0.790  54.800  1.00  0.00     0.229 C 
HETATM    4  N2  UNL     1      28.651  -0.537  54.392  1.00  0.00    -0.258 NA
HETATM    5  C12 UNL     1      29.530  -0.783  53.447  1.00  0.00     0.094 C 
HETATM    6  C13 UNL     1      29.430  -2.271  53.332  1.00  0.00     0.073 C 
HETATM    7  C14 UNL     1      28.051  -2.679  52.853  1.00  0.00    -0.024 C 
HETATM    8  C15 UNL     1      26.862  -2.188  52.393  1.00  0.00    -0.005 C 
HETATM    9  C16 UNL     1      27.095  -0.743  52.363  1.00  0.00     0.197 C 
HETATM   10  O1  UNL     1      26.363   0.090  53.161  1.00  0.00    -0.361 OA
ENDROOT
BRANCH   1  11
HETATM   11  C9  UNL     1      25.748   2.341  52.863  1.00  0.00     0.060 C 
BRANCH  11  12
HETATM   12  C8  UNL     1      24.438   1.675  53.247  1.00  0.00     0.043 C 
BRANCH  12  13
HETATM   13  C7  UNL     1      23.574   1.639  52.048  1.00  0.00    -0.052 A 
HETATM   14  C2  UNL     1      22.495   0.763  51.994  1.00  0.00    -0.054 A 
HETATM   15  C1  UNL     1      22.110  -0.189  53.039  1.00  0.00     0.049 C 
HETATM   16  C3  UNL     1      21.787   0.867  50.803  1.00  0.00     0.031 A 
HETATM   17  C4  UNL     1      22.034   1.709  49.730  1.00  0.00     0.034 A 
HETATM   18 CL1  UNL     1      21.012   1.677  48.323  1.00  0.00    -0.084 Cl
HETATM   19  C5  UNL     1      23.130   2.538  49.887  1.00  0.00     0.024 A 
HETATM   20  C6  UNL     1      23.902   2.511  51.036  1.00  0.00     0.009 A 
ENDBRANCH  12  13
ENDBRANCH  11  12
ENDBRANCH   1  11
TORSDOF 3
ENDMDL
MODEL 4
REMARK VINA RESULT:      -7.9      4.562      7.017
REMARK  3 active torsions:
REMARK  status: ('A' for Active; 'I' for Inactive)
REMARK    1  A    between atoms: C7_8  and  C8_9 
REMARK    2  A    between atoms: C8_9  and  C9_10 
REMARK    3  A    between atoms: C9_10  and  C10_11 
ROOT
HETATM    1  C10 UNL     1      24.772   3.260  50.831  1.00  0.00     0.245 C 
HETATM    2  N1  UNL     1      23.979   4.328  51.504  1.00  0.00    -0.251 NA
HETATM    3  C11 UNL     1      24.185   5.583  51.149  1.00  0.00     0.229 C 
HETATM    4  N2  UNL     1      25.066   6.131  50.200  1.00  0.00    -0.258 NA
HETATM    5  C12 UNL     1      24.709   6.169  48.936  1.00  0.00     0.094 C 
HETATM    6  C13 UNL     1      25.912   6.798  48.309  1.00  0.00     0.073 C 
HETATM    7  C14 UNL     1      27.125   5.902  48.461  1.00  0.00    -0.024 C 
HETATM    8  C15 UNL     1      27.528   4.669  48.888  1.00  0.00    -0.005 C 
HETATM    9  C16 UNL     1      26.276   4.046  49.320  1.00  0.00     0.197 C 
HETATM   10  O1  UNL     1      26.094   3.701  50.630  1.00  0.00    -0.361 OA
ENDROOT
BRANCH   1  11
HETATM   11  C9  UNL     1      24.779   2.004  51.593  1.00  0.00     0.060 C 
BRANCH  11  12
HETATM   12  C8  UNL     1      25.619   2.171  52.848  1.00  0.00     0.043 C 
BRANCH  12  13
HETATM   13  C7  UNL     1      26.527   1.010  52.949  1.00  0.00    -0.052 A 
HETATM   14  C2  UNL     1      27.859   1.198  53.302  1.00  0.00    -0.054 A 
HETATM   15  C1  UNL     1      28.500   2.486  53.582  1.00  0.00     0.049 C 
HETATM   16  C3  UNL     1      28.566   0.003  53.359  1.00  0.00     0.031 A 
HETATM   17  C4  UNL     1      28.101  -1.280  53.115  1.00  0.00     0.034 A 
HETATM   18 CL1  UNL     1      29.166  -2.650  53.245  1.00  0.00    -0.084 Cl
HETATM   19  C5  UNL     1      26.763  -1.354  52.772  1.00  0.00     0.024 A 
HETATM   20  C6  UNL     1      25.972  -0.221  52.687  1.00  0.00     0.009 A 
ENDBRANCH  12  13
ENDBRANCH  11  12
ENDBRANCH   1  11
TORSDOF 3
ENDMDL
MODEL 5
REMARK VINA RESULT:      -7.8      3.173      3.971
REMARK  3 active torsions:
REMARK  status: ('A' for Active; 'I' for Inactive)
REMARK    1  A    between atoms: C7_8  and  C8_9 
REMARK    2  A    between atoms: C8_9  and  C9_10 
REMARK    3  A    between atoms: C9_10  and  C10_11 
ROOT
HETATM    1  C10 UNL     1      25.917   0.967  53.213  1.00  0.00     0.245 C 
HETATM    2  N1  UNL     1      26.558   1.428  54.478  1.00  0.00    -0.251 NA
HETATM    3  C11 UNL     1      27.552   0.716  54.974  1.00  0.00     0.229 C 
HETATM    4  N2  UNL     1      28.152  -0.466  54.508  1.00  0.00    -0.258 NA
HETATM    5  C12 UNL     1      29.089  -0.394  53.589  1.00  0.00     0.094 C 
HETATM    6  C13 UNL     1      29.420  -1.839  53.392  1.00  0.00     0.073 C 
HETATM    7  C14 UNL     1      28.228  -2.590  52.834  1.00  0.00    -0.024 C 
HETATM    8  C15 UNL     1      26.960  -2.428  52.351  1.00  0.00    -0.005 C 
HETATM    9  C16 UNL     1      26.772  -0.978  52.406  1.00  0.00     0.197 C 
HETATM   10  O1  UNL     1      25.813  -0.438  53.215  1.00  0.00    -0.361 OA
ENDROOT
BRANCH   1  11
HETATM   11  C9  UNL     1      24.589   1.562  53.009  1.00  0.00     0.060 C 
BRANCH  11  12
HETATM   12  C8  UNL     1      24.367   1.824  51.529  1.00  0.00     0.043 C 
BRANCH  12  13
HETATM   13  C7  UNL     1      24.307   3.287  51.328  1.00  0.00    -0.052 A 
HETATM   14  C2  UNL     1      25.178   3.903  50.436  1.00  0.00    -0.054 A 
HETATM   15  C1  UNL     1      26.214   3.231  49.646  1.00  0.00     0.049 C 
HETATM   16  C3  UNL     1      24.979   5.276  50.362  1.00  0.00     0.031 A 
HETATM   17  C4  UNL     1      24.052   6.045  51.048  1.00  0.00     0.034 A 
HETATM   18 CL1  UNL     1      23.972   7.766  50.804  1.00  0.00    -0.084 Cl
HETATM   19  C5  UNL     1      23.235   5.334  51.909  1.00  0.00     0.024 A 
HETATM   20  C6  UNL     1      23.355   3.962  52.055  1.00  0.00     0.009 A 
ENDBRANCH  12  13
ENDBRANCH  11  12
ENDBRANCH   1  11
TORSDOF 3
ENDMDL
MODEL 6
REMARK VINA RESULT:      -7.7      2.474      3.547
REMARK  3 active torsions:
REMARK  status: ('A' for Active; 'I' for Inactive)
REMARK    1  A    between atoms: C7_8  and  C8_9 
REMARK    2  A    between atoms: C8_9  and  C9_10 
REMARK    3  A    between atoms: C9_10  and  C10_11 
ROOT
HETATM    1  C10 UNL     1      23.310  -0.257  53.785  1.00  0.00     0.245 C 
HETATM    2  N1  UNL     1      23.463  -0.991  55.075  1.00  0.00    -0.251 NA
HETATM    3  C11 UNL     1      24.682  -1.234  55.519  1.00  0.00     0.229 C 
HETATM    4  N2  UNL     1      25.935  -0.914  54.969  1.00  0.00    -0.258 NA
HETATM    5  C12 UNL     1      26.445   0.279  55.177  1.00  0.00     0.094 C 
HETATM    6  C13 UNL     1      27.734   0.184  54.425  1.00  0.00     0.073 C 
HETATM    7  C14 UNL     1      27.476   0.001  52.942  1.00  0.00    -0.024 C 
HETATM    8  C15 UNL     1      26.489  -0.026  51.998  1.00  0.00    -0.005 C 
HETATM    9  C16 UNL     1      25.282   0.251  52.778  1.00  0.00     0.197 C 
HETATM   10  O1  UNL     1      24.292  -0.686  52.873  1.00  0.00    -0.361 OA
ENDROOT
BRANCH   1  11
HETATM   11  C9  UNL     1      21.975  -0.434  53.196  1.00  0.00     0.060 C 
BRANCH  11  12
HETATM   12  C8  UNL     1      21.347   0.924  52.934  1.00  0.00     0.043 C 
BRANCH  12  13
HETATM   13  C7  UNL     1      21.663   1.313  51.544  1.00  0.00    -0.052 A 
HETATM   14  C2  UNL     1      22.509   2.389  51.298  1.00  0.00    -0.054 A 
HETATM   15  C1  UNL     1      23.139   3.234  52.315  1.00  0.00     0.049 C 
HETATM   16  C3  UNL     1      22.705   2.610  49.940  1.00  0.00     0.031 A 
HETATM   17  C4  UNL     1      22.174   1.904  48.872  1.00  0.00     0.034 A 
HETATM   18 CL1  UNL     1      22.555   2.353  47.234  1.00  0.00    -0.084 Cl
HETATM   19  C5  UNL     1      21.347   0.854  49.227  1.00  0.00     0.024 A 
HETATM   20  C6  UNL     1      21.087   0.552  50.553  1.00  0.00     0.009 A 
ENDBRANCH  12  13
ENDBRANCH  11  12
ENDBRANCH   1  11
TORSDOF 3
ENDMDL
MODEL 7
REMARK VINA RESULT:      -7.5      4.562      6.500
REMARK  3 active torsions:
REMARK  status: ('A' for Active; 'I' for Inactive)
REMARK    1  A    between atoms: C7_8  and  C8_9 
REMARK    2  A    between atoms: C8_9  and  C9_10 
REMARK    3  A    between atoms: C9_10  and  C10_11 
ROOT
HETATM    1  C10 UNL     1      24.046   4.126  50.729  1.00  0.00     0.245 C 
HETATM    2  N1  UNL     1      23.670   5.390  51.424  1.00  0.00    -0.251 NA
HETATM    3  C11 UNL     1      24.340   6.490  51.133  1.00  0.00     0.229 C 
HETATM    4  N2  UNL     1      25.406   6.702  50.242  1.00  0.00    -0.258 NA
HETATM    5  C12 UNL     1      25.150   6.908  48.969  1.00  0.00     0.094 C 
HETATM    6  C13 UNL     1      26.529   7.066  48.413  1.00  0.00     0.073 C 
HETATM    7  C14 UNL     1      27.318   5.782  48.565  1.00  0.00    -0.024 C 
HETATM    8  C15 UNL     1      27.219   4.474  48.949  1.00  0.00    -0.005 C 
HETATM    9  C16 UNL     1      25.806   4.346  49.308  1.00  0.00     0.197 C 
HETATM   10  O1  UNL     1      25.445   4.053  50.594  1.00  0.00    -0.361 OA
ENDROOT
BRANCH   1  11
HETATM   11  C9  UNL     1      23.553   2.933  51.432  1.00  0.00     0.060 C 
BRANCH  11  12
HETATM   12  C8  UNL     1      24.280   2.784  52.758  1.00  0.00     0.043 C 
BRANCH  12  13
HETATM   13  C7  UNL     1      24.979   1.483  52.753  1.00  0.00    -0.052 A 
HETATM   14  C2  UNL     1      24.312   0.333  53.162  1.00  0.00    -0.054 A 
HETATM   15  C1  UNL     1      22.928   0.267  53.639  1.00  0.00     0.049 C 
HETATM   16  C3  UNL     1      25.113  -0.800  53.085  1.00  0.00     0.031 A 
HETATM   17  C4  UNL     1      26.431  -0.891  52.665  1.00  0.00     0.034 A 
HETATM   18 CL1  UNL     1      27.253  -2.425  52.646  1.00  0.00    -0.084 Cl
HETATM   19  C5  UNL     1      26.999   0.310  52.280  1.00  0.00     0.024 A 
HETATM   20  C6  UNL     1      26.285   1.496  52.320  1.00  0.00     0.009 A 
ENDBRANCH  12  13
ENDBRANCH  11  12
ENDBRANCH   1  11
TORSDOF 3
ENDMDL
MODEL 8
REMARK VINA RESULT:      -7.5      8.439      9.296
REMARK  3 active torsions:
REMARK  status: ('A' for Active; 'I' for Inactive)
REMARK    1  A    between atoms: C7_8  and  C8_9 
REMARK    2  A    between atoms: C8_9  and  C9_10 
REMARK    3  A    between atoms: C9_10  and  C10_11 
ROOT
HETATM    1  C10 UNL     1      31.769   6.115  48.127  1.00  0.00     0.245 C 
HETATM    2  N1  UNL     1      32.981   6.647  48.814  1.00  0.00    -0.251 NA
HETATM    3  C11 UNL     1      34.114   5.982  48.695  1.00  0.00     0.229 C 
HETATM    4  N2  UNL     1      34.409   4.794  48.004  1.00  0.00    -0.258 NA
HETATM    5  C12 UNL     1      34.678   4.846  46.719  1.00  0.00     0.094 C 
HETATM    6  C13 UNL     1      34.909   3.402  46.407  1.00  0.00     0.073 C 
HETATM    7  C14 UNL     1      33.642   2.599  46.621  1.00  0.00    -0.024 C 
HETATM    8  C15 UNL     1      32.312   2.709  46.916  1.00  0.00    -0.005 C 
HETATM    9  C16 UNL     1      32.122   4.156  47.030  1.00  0.00     0.197 C 
HETATM   10  O1  UNL     1      31.746   4.710  48.222  1.00  0.00    -0.361 OA
ENDROOT
BRANCH   1  11
HETATM   11  C9  UNL     1      30.525   6.669  48.678  1.00  0.00     0.060 C 
BRANCH  11  12
HETATM   12  C8  UNL     1      29.495   6.814  47.571  1.00  0.00     0.043 C 
BRANCH  12  13
HETATM   13  C7  UNL     1      28.204   6.300  48.076  1.00  0.00    -0.052 A 
HETATM   14  C2  UNL     1      27.070   7.103  48.029  1.00  0.00    -0.054 A 
HETATM   15  C1  UNL     1      27.011   8.477  47.524  1.00  0.00     0.049 C 
HETATM   16  C3  UNL     1      25.945   6.462  48.535  1.00  0.00     0.031 A 
HETATM   17  C4  UNL     1      25.850   5.178  49.050  1.00  0.00     0.034 A 
HETATM   18 CL1  UNL     1      24.329   4.567  49.634  1.00  0.00    -0.084 Cl
HETATM   19  C5  UNL     1      27.036   4.467  49.050  1.00  0.00     0.024 A 
HETATM   20  C6  UNL     1      28.212   5.016  48.569  1.00  0.00     0.009 A 
ENDBRANCH  12  13
ENDBRANCH  11  12
ENDBRANCH   1  11
TORSDOF 3
ENDMDL
MODEL 9
REMARK VINA RESULT:      -7.5      5.453      6.795
REMARK  3 active torsions:
REMARK  status: ('A' for Active; 'I' for Inactive)
REMARK    1  A    between atoms: C7_8  and  C8_9 
REMARK    2  A    between atoms: C8_9  and  C9_10 
REMARK    3  A    between atoms: C9_10  and  C10_11 
ROOT
HETATM    1  C10 UNL     1      25.856   2.312  50.858  1.00  0.00     0.245 C 
HETATM    2  N1  UNL     1      27.144   2.495  51.588  1.00  0.00    -0.251 NA
HETATM    3  C11 UNL     1      27.306   1.876  52.742  1.00  0.00     0.229 C 
HETATM    4  N2  UNL     1      26.438   1.030  53.455  1.00  0.00    -0.258 NA
HETATM    5  C12 UNL     1      26.384  -0.246  53.146  1.00  0.00     0.094 C 
HETATM    6  C13 UNL     1      25.359  -0.741  54.115  1.00  0.00     0.073 C 
HETATM    7  C14 UNL     1      24.012  -0.101  53.843  1.00  0.00    -0.024 C 
HETATM    8  C15 UNL     1      23.342   0.711  52.973  1.00  0.00    -0.005 C 
HETATM    9  C16 UNL     1      24.354   1.010  51.959  1.00  0.00     0.197 C 
HETATM   10  O1  UNL     1      24.787   2.293  51.775  1.00  0.00    -0.361 OA
ENDROOT
BRANCH   1  11
HETATM   11  C9  UNL     1      25.629   3.360  49.854  1.00  0.00     0.060 C 
BRANCH  11  12
HETATM   12  C8  UNL     1      26.959   3.947  49.415  1.00  0.00     0.043 C 
BRANCH  12  13
HETATM   13  C7  UNL     1      26.703   5.285  48.844  1.00  0.00    -0.052 A 
HETATM   14  C2  UNL     1      27.748   6.016  48.289  1.00  0.00    -0.054 A 
HETATM   15  C1  UNL     1      29.149   5.594  48.220  1.00  0.00     0.049 C 
HETATM   16  C3  UNL     1      27.330   7.245  47.791  1.00  0.00     0.031 A 
HETATM   17  C4  UNL     1      26.051   7.779  47.793  1.00  0.00     0.034 A 
HETATM   18 CL1  UNL     1      25.745   9.350  47.110  1.00  0.00    -0.084 Cl
HETATM   19  C5  UNL     1      25.088   6.971  48.368  1.00  0.00     0.024 A 
HETATM   20  C6  UNL     1      25.402   5.729  48.894  1.00  0.00     0.009 A 
ENDBRANCH  12  13
ENDBRANCH  11  12
ENDBRANCH   1  11
TORSDOF 3
ENDMDL
