MODEL 1
REMARK VINA RESULT:      -6.2      0.000      0.000
REMARK  8 active torsions:
REMARK  status: ('A' for Active; 'I' for Inactive)
REMARK    1  A    between atoms: C1_2  and  C2_3 
REMARK    2  A    between atoms: C2_3  and  C3_4 
REMARK    3  A    between atoms: C3_4  and  S1_5 
REMARK    4  A    between atoms: S1_5  and  C4_6 
REMARK    5  A    between atoms: C4_6  and  N1_7 
REMARK    6  A    between atoms: C8_11  and  N2_12 
REMARK    7  A    between atoms: N2_12  and  C9_13 
REMARK    8  A    between atoms: C9_13  and  C10_14 
ROOT
HETATM    1  N1  UNL     1      24.365   0.586  52.570  1.00  0.00    -0.309 N 
HETATM    2  C5  UNL     1      23.474   1.260  51.827  1.00  0.00     0.099 A 
HETATM    3  C6  UNL     1      22.303   0.943  52.433  1.00  0.00     0.037 A 
HETATM    4  C7  UNL     1      22.518   0.112  53.492  1.00  0.00     0.057 A 
HETATM    5  C8  UNL     1      21.661  -0.481  54.413  1.00  0.00     0.139 A 
HETATM    6  N3  UNL     1      22.163  -1.274  55.376  1.00  0.00    -0.224 NA
HETATM    7  C12 UNL     1      23.513  -1.482  55.429  1.00  0.00     0.237 A 
HETATM    8  N4  UNL     1      24.380  -0.914  54.542  1.00  0.00    -0.223 NA
HETATM    9  C13 UNL     1      23.872  -0.125  53.586  1.00  0.00     0.149 A 
ENDROOT
BRANCH   1  10
HETATM   10  C4  UNL     1      25.761   0.603  52.326  1.00  0.00     0.266 C 
BRANCH  10  11
HETATM   11  S1  UNL     1      26.623   1.585  53.348  1.00  0.00    -0.136 SA
BRANCH  11  12
HETATM   12  C3  UNL     1      27.740   0.774  54.227  1.00  0.00    -0.118 C 
BRANCH  12  13
HETATM   13  C2  UNL     1      28.834   0.186  54.690  1.00  0.00     0.093 C 
BRANCH  13  14
HETATM   14  C1  UNL     1      29.762  -0.565  53.769  1.00  0.00     0.133 C 
HETATM   15 CL1  UNL     1      28.815  -1.930  53.133  1.00  0.00    -0.129 Cl
ENDBRANCH  13  14
ENDBRANCH  12  13
ENDBRANCH  11  12
ENDBRANCH  10  11
ENDBRANCH   1  10
BRANCH   5  16
HETATM   16  N2  UNL     1      20.264  -0.237  54.316  1.00  0.00    -0.370 N 
HETATM   17  H7  UNL     1      19.846   0.612  54.755  1.00  0.00     0.161 HD
BRANCH  16  18
HETATM   18  C9  UNL     1      19.434  -1.188  53.599  1.00  0.00     0.149 C 
BRANCH  18  19
HETATM   19  C10 UNL     1      18.520  -0.432  52.699  1.00  0.00    -0.000 C 
HETATM   20  C11 UNL     1      18.861   0.015  51.497  1.00  0.00     0.053 C 
HETATM   21 BR1  UNL     1      18.064   0.987  50.054  1.00  0.00    -0.064 Br
ENDBRANCH  18  19
ENDBRANCH  16  18
ENDBRANCH   5  16
TORSDOF 8
ENDMDL
MODEL 2
REMARK VINA RESULT:      -6.2      2.167      2.944
REMARK  8 active torsions:
REMARK  status: ('A' for Active; 'I' for Inactive)
REMARK    1  A    between atoms: C1_2  and  C2_3 
REMARK    2  A    between atoms: C2_3  and  C3_4 
REMARK    3  A    between atoms: C3_4  and  S1_5 
REMARK    4  A    between atoms: S1_5  and  C4_6 
REMARK    5  A    between atoms: C4_6  and  N1_7 
REMARK    6  A    between atoms: C8_11  and  N2_12 
REMARK    7  A    between atoms: N2_12  and  C9_13 
REMARK    8  A    between atoms: C9_13  and  C10_14 
ROOT
HETATM    1  N1  UNL     1      23.992  -0.157  53.414  1.00  0.00    -0.309 N 
HETATM    2  C5  UNL     1      23.790  -0.884  54.524  1.00  0.00     0.099 A 
HETATM    3  C6  UNL     1      22.438  -0.992  54.549  1.00  0.00     0.037 A 
HETATM    4  C7  UNL     1      21.883  -0.346  53.484  1.00  0.00     0.057 A 
HETATM    5  C8  UNL     1      20.567  -0.172  53.071  1.00  0.00     0.139 A 
HETATM    6  N3  UNL     1      20.307   0.528  51.952  1.00  0.00    -0.224 NA
HETATM    7  C12 UNL     1      21.348   1.056  51.242  1.00  0.00     0.237 A 
HETATM    8  N4  UNL     1      22.650   0.903  51.620  1.00  0.00    -0.223 NA
HETATM    9  C13 UNL     1      22.900   0.204  52.736  1.00  0.00     0.149 A 
ENDROOT
BRANCH   1  10
HETATM   10  C4  UNL     1      25.275   0.225  52.951  1.00  0.00     0.266 C 
BRANCH  10  11
HETATM   11  S1  UNL     1      26.229   0.954  54.096  1.00  0.00    -0.136 SA
BRANCH  11  12
HETATM   12  C3  UNL     1      27.700   0.253  54.246  1.00  0.00    -0.118 C 
BRANCH  12  13
HETATM   13  C2  UNL     1      28.950  -0.062  54.555  1.00  0.00     0.093 C 
BRANCH  13  14
HETATM   14  C1  UNL     1      29.869  -0.683  53.533  1.00  0.00     0.133 C 
HETATM   15 CL1  UNL     1      29.209  -2.303  53.208  1.00  0.00    -0.129 Cl
ENDBRANCH  13  14
ENDBRANCH  12  13
ENDBRANCH  11  12
ENDBRANCH  10  11
ENDBRANCH   1  10
BRANCH   5  16
HETATM   16  N2  UNL     1      19.517  -0.739  53.842  1.00  0.00    -0.370 N 
HETATM   17  H7  UNL     1      19.576  -0.753  54.884  1.00  0.00     0.161 HD
BRANCH  16  18
HETATM   18  C9  UNL     1      18.365  -1.296  53.157  1.00  0.00     0.149 C 
BRANCH  18  19
HETATM   19  C10 UNL     1      17.985  -2.568  53.830  1.00  0.00    -0.000 C 
HETATM   20  C11 UNL     1      17.027  -3.380  53.402  1.00  0.00     0.053 C 
HETATM   21 BR1  UNL     1      16.225  -5.041  53.915  1.00  0.00    -0.064 Br
ENDBRANCH  18  19
ENDBRANCH  16  18
ENDBRANCH   5  16
TORSDOF 8
ENDMDL
MODEL 3
REMARK VINA RESULT:      -6.0      2.141      2.508
REMARK  8 active torsions:
REMARK  status: ('A' for Active; 'I' for Inactive)
REMARK    1  A    between atoms: C1_2  and  C2_3 
REMARK    2  A    between atoms: C2_3  and  C3_4 
REMARK    3  A    between atoms: C3_4  and  S1_5 
REMARK    4  A    between atoms: S1_5  and  C4_6 
REMARK    5  A    between atoms: C4_6  and  N1_7 
REMARK    6  A    between atoms: C8_11  and  N2_12 
REMARK    7  A    between atoms: N2_12  and  C9_13 
REMARK    8  A    between atoms: C9_13  and  C10_14 
ROOT
HETATM    1  N1  UNL     1      24.370   0.157  53.459  1.00  0.00    -0.309 N 
HETATM    2  C5  UNL     1      24.408   1.198  52.613  1.00  0.00     0.099 A 
HETATM    3  C6  UNL     1      23.093   1.378  52.327  1.00  0.00     0.037 A 
HETATM    4  C7  UNL     1      22.327   0.467  52.991  1.00  0.00     0.057 A 
HETATM    5  C8  UNL     1      20.955   0.243  53.032  1.00  0.00     0.139 A 
HETATM    6  N3  UNL     1      20.465  -0.752  53.794  1.00  0.00    -0.224 NA
HETATM    7  C12 UNL     1      21.331  -1.525  54.515  1.00  0.00     0.237 A 
HETATM    8  N4  UNL     1      22.681  -1.330  54.498  1.00  0.00    -0.223 NA
HETATM    9  C13 UNL     1      23.161  -0.337  53.737  1.00  0.00     0.149 A 
ENDROOT
BRANCH   1  10
HETATM   10  C4  UNL     1      25.524  -0.414  54.051  1.00  0.00     0.266 C 
BRANCH  10  11
HETATM   11  S1  UNL     1      26.670  -0.923  52.965  1.00  0.00    -0.136 SA
BRANCH  11  12
HETATM   12  C3  UNL     1      28.198  -0.567  53.431  1.00  0.00    -0.118 C 
BRANCH  12  13
HETATM   13  C2  UNL     1      29.302  -0.003  53.901  1.00  0.00     0.093 C 
BRANCH  13  14
HETATM   14  C1  UNL     1      29.282   1.399  54.455  1.00  0.00     0.133 C 
HETATM   15 CL1  UNL     1      28.295   2.354  53.324  1.00  0.00    -0.129 Cl
ENDBRANCH  13  14
ENDBRANCH  12  13
ENDBRANCH  11  12
ENDBRANCH  10  11
ENDBRANCH   1  10
BRANCH   5  16
HETATM   16  N2  UNL     1      20.094   1.071  52.264  1.00  0.00    -0.370 N 
HETATM   17  H7  UNL     1      19.797   2.003  52.626  1.00  0.00     0.161 HD
BRANCH  16  18
HETATM   18  C9  UNL     1      19.636   0.598  50.970  1.00  0.00     0.149 C 
BRANCH  18  19
HETATM   19  C10 UNL     1      20.193   1.491  49.917  1.00  0.00    -0.000 C 
HETATM   20  C11 UNL     1      21.274   1.212  49.199  1.00  0.00     0.053 C 
HETATM   21 BR1  UNL     1      22.312   2.014  47.805  1.00  0.00    -0.064 Br
ENDBRANCH  18  19
ENDBRANCH  16  18
ENDBRANCH   5  16
TORSDOF 8
ENDMDL
MODEL 4
REMARK VINA RESULT:      -5.9      1.734      2.813
REMARK  8 active torsions:
REMARK  status: ('A' for Active; 'I' for Inactive)
REMARK    1  A    between atoms: C1_2  and  C2_3 
REMARK    2  A    between atoms: C2_3  and  C3_4 
REMARK    3  A    between atoms: C3_4  and  S1_5 
REMARK    4  A    between atoms: S1_5  and  C4_6 
REMARK    5  A    between atoms: C4_6  and  N1_7 
REMARK    6  A    between atoms: C8_11  and  N2_12 
REMARK    7  A    between atoms: N2_12  and  C9_13 
REMARK    8  A    between atoms: C9_13  and  C10_14 
ROOT
HETATM    1  N1  UNL     1      24.008  -0.244  53.452  1.00  0.00    -0.309 N 
HETATM    2  C5  UNL     1      23.092  -0.859  54.215  1.00  0.00     0.099 A 
HETATM    3  C6  UNL     1      21.946  -0.240  53.836  1.00  0.00     0.037 A 
HETATM    4  C7  UNL     1      22.199   0.702  52.883  1.00  0.00     0.057 A 
HETATM    5  C8  UNL     1      21.378   1.584  52.190  1.00  0.00     0.139 A 
HETATM    6  N3  UNL     1      21.915   2.421  51.284  1.00  0.00    -0.224 NA
HETATM    7  C12 UNL     1      23.263   2.387  51.064  1.00  0.00     0.237 A 
HETATM    8  N4  UNL     1      24.095   1.534  51.727  1.00  0.00    -0.223 NA
HETATM    9  C13 UNL     1      23.553   0.703  52.628  1.00  0.00     0.149 A 
ENDROOT
BRANCH   1  10
HETATM   10  C4  UNL     1      25.391  -0.552  53.485  1.00  0.00     0.266 C 
BRANCH  10  11
HETATM   11  S1  UNL     1      26.282   0.404  54.506  1.00  0.00    -0.136 SA
BRANCH  11  12
HETATM   12  C3  UNL     1      27.893   0.145  54.383  1.00  0.00    -0.118 C 
BRANCH  12  13
HETATM   13  C2  UNL     1      29.141  -0.284  54.509  1.00  0.00     0.093 C 
BRANCH  13  14
HETATM   14  C1  UNL     1      29.847  -0.968  53.366  1.00  0.00     0.133 C 
HETATM   15 CL1  UNL     1      29.100  -2.577  53.228  1.00  0.00    -0.129 Cl
ENDBRANCH  13  14
ENDBRANCH  12  13
ENDBRANCH  11  12
ENDBRANCH  10  11
ENDBRANCH   1  10
BRANCH   5  16
HETATM   16  N2  UNL     1      19.982   1.583  52.453  1.00  0.00    -0.370 N 
HETATM   17  H7  UNL     1      19.622   1.861  53.391  1.00  0.00     0.161 HD
BRANCH  16  18
HETATM   18  C9  UNL     1      19.069   1.190  51.395  1.00  0.00     0.149 C 
BRANCH  18  19
HETATM   19  C10 UNL     1      18.660  -0.223  51.625  1.00  0.00    -0.000 C 
HETATM   20  C11 UNL     1      18.360  -0.726  52.815  1.00  0.00     0.053 C 
HETATM   21 BR1  UNL     1      17.811  -2.400  53.563  1.00  0.00    -0.064 Br
ENDBRANCH  18  19
ENDBRANCH  16  18
ENDBRANCH   5  16
TORSDOF 8
ENDMDL
MODEL 5
REMARK VINA RESULT:      -5.9      3.976      5.640
REMARK  8 active torsions:
REMARK  status: ('A' for Active; 'I' for Inactive)
REMARK    1  A    between atoms: C1_2  and  C2_3 
REMARK    2  A    between atoms: C2_3  and  C3_4 
REMARK    3  A    between atoms: C3_4  and  S1_5 
REMARK    4  A    between atoms: S1_5  and  C4_6 
REMARK    5  A    between atoms: C4_6  and  N1_7 
REMARK    6  A    between atoms: C8_11  and  N2_12 
REMARK    7  A    between atoms: N2_12  and  C9_13 
REMARK    8  A    between atoms: C9_13  and  C10_14 
ROOT
HETATM    1  N1  UNL     1      26.053   2.125  51.550  1.00  0.00    -0.309 N 
HETATM    2  C5  UNL     1      24.796   1.659  51.500  1.00  0.00     0.099 A 
HETATM    3  C6  UNL     1      24.821   0.680  52.439  1.00  0.00     0.037 A 
HETATM    4  C7  UNL     1      26.056   0.590  53.009  1.00  0.00     0.057 A 
HETATM    5  C8  UNL     1      26.577  -0.236  53.999  1.00  0.00     0.139 A 
HETATM    6  N3  UNL     1      27.862  -0.098  54.373  1.00  0.00    -0.224 NA
HETATM    7  C12 UNL     1      28.632   0.855  53.767  1.00  0.00     0.237 A 
HETATM    8  N4  UNL     1      28.150   1.681  52.794  1.00  0.00    -0.223 NA
HETATM    9  C13 UNL     1      26.869   1.537  52.428  1.00  0.00     0.149 A 
ENDROOT
BRANCH   1  10
HETATM   10  C4  UNL     1      26.529   3.183  50.735  1.00  0.00     0.266 C 
BRANCH  10  11
HETATM   11  S1  UNL     1      25.338   4.125  50.069  1.00  0.00    -0.136 SA
BRANCH  11  12
HETATM   12  C3  UNL     1      25.916   5.473  49.344  1.00  0.00    -0.118 C 
BRANCH  12  13
HETATM   13  C2  UNL     1      26.500   6.625  49.048  1.00  0.00     0.093 C 
BRANCH  13  14
HETATM   14  C1  UNL     1      27.698   6.677  48.134  1.00  0.00     0.133 C 
HETATM   15 CL1  UNL     1      28.552   5.133  48.366  1.00  0.00    -0.129 Cl
ENDBRANCH  13  14
ENDBRANCH  12  13
ENDBRANCH  11  12
ENDBRANCH  10  11
ENDBRANCH   1  10
BRANCH   5  16
HETATM   16  N2  UNL     1      25.739  -1.214  54.599  1.00  0.00    -0.370 N 
HETATM   17  H7  UNL     1      25.679  -2.175  54.198  1.00  0.00     0.161 HD
BRANCH  16  18
HETATM   18  C9  UNL     1      24.970  -0.851  55.776  1.00  0.00     0.149 C 
BRANCH  18  19
HETATM   19  C10 UNL     1      23.603  -1.426  55.641  1.00  0.00    -0.000 C 
HETATM   20  C11 UNL     1      22.714  -1.027  54.741  1.00  0.00     0.053 C 
HETATM   21 BR1  UNL     1      20.922  -1.449  54.217  1.00  0.00    -0.064 Br
ENDBRANCH  18  19
ENDBRANCH  16  18
ENDBRANCH   5  16
TORSDOF 8
ENDMDL
MODEL 6
REMARK VINA RESULT:      -5.7      2.537      3.179
REMARK  8 active torsions:
REMARK  status: ('A' for Active; 'I' for Inactive)
REMARK    1  A    between atoms: C1_2  and  C2_3 
REMARK    2  A    between atoms: C2_3  and  C3_4 
REMARK    3  A    between atoms: C3_4  and  S1_5 
REMARK    4  A    between atoms: S1_5  and  C4_6 
REMARK    5  A    between atoms: C4_6  and  N1_7 
REMARK    6  A    between atoms: C8_11  and  N2_12 
REMARK    7  A    between atoms: N2_12  and  C9_13 
REMARK    8  A    between atoms: C9_13  and  C10_14 
ROOT
HETATM    1  N1  UNL     1      24.366   0.532  52.592  1.00  0.00    -0.309 N 
HETATM    2  C5  UNL     1      23.530   1.227  51.805  1.00  0.00     0.099 A 
HETATM    3  C6  UNL     1      22.323   0.948  52.359  1.00  0.00     0.037 A 
HETATM    4  C7  UNL     1      22.465   0.119  53.431  1.00  0.00     0.057 A 
HETATM    5  C8  UNL     1      21.549  -0.443  54.314  1.00  0.00     0.139 A 
HETATM    6  N3  UNL     1      21.983  -1.243  55.304  1.00  0.00    -0.224 NA
HETATM    7  C12 UNL     1      23.322  -1.490  55.422  1.00  0.00     0.237 A 
HETATM    8  N4  UNL     1      24.246  -0.954  54.572  1.00  0.00    -0.223 NA
HETATM    9  C13 UNL     1      23.805  -0.157  53.589  1.00  0.00     0.149 A 
ENDROOT
BRANCH   1  10
HETATM   10  C4  UNL     1      25.772   0.507  52.414  1.00  0.00     0.266 C 
BRANCH  10  11
HETATM   11  S1  UNL     1      26.497   1.997  52.473  1.00  0.00    -0.136 SA
BRANCH  11  12
HETATM   12  C3  UNL     1      26.633   2.703  51.002  1.00  0.00    -0.118 C 
BRANCH  12  13
HETATM   13  C2  UNL     1      26.524   3.475  49.930  1.00  0.00     0.093 C 
BRANCH  13  14
HETATM   14  C1  UNL     1      25.174   3.916  49.424  1.00  0.00     0.133 C 
HETATM   15 CL1  UNL     1      25.403   5.570  48.808  1.00  0.00    -0.129 Cl
ENDBRANCH  13  14
ENDBRANCH  12  13
ENDBRANCH  11  12
ENDBRANCH  10  11
ENDBRANCH   1  10
BRANCH   5  16
HETATM   16  N2  UNL     1      20.167  -0.159  54.153  1.00  0.00    -0.370 N 
HETATM   17  H7  UNL     1      19.795   0.792  54.364  1.00  0.00     0.161 HD
BRANCH  16  18
HETATM   18  C9  UNL     1      19.284  -1.214  53.689  1.00  0.00     0.149 C 
BRANCH  18  19
HETATM   19  C10 UNL     1      18.402  -0.658  52.626  1.00  0.00    -0.000 C 
HETATM   20  C11 UNL     1      18.831   0.096  51.621  1.00  0.00     0.053 C 
HETATM   21 BR1  UNL     1      18.105   0.993  50.095  1.00  0.00    -0.064 Br
ENDBRANCH  18  19
ENDBRANCH  16  18
ENDBRANCH   5  16
TORSDOF 8
ENDMDL
MODEL 7
REMARK VINA RESULT:      -5.7      2.285      2.983
REMARK  8 active torsions:
REMARK  status: ('A' for Active; 'I' for Inactive)
REMARK    1  A    between atoms: C1_2  and  C2_3 
REMARK    2  A    between atoms: C2_3  and  C3_4 
REMARK    3  A    between atoms: C3_4  and  S1_5 
REMARK    4  A    between atoms: S1_5  and  C4_6 
REMARK    5  A    between atoms: C4_6  and  N1_7 
REMARK    6  A    between atoms: C8_11  and  N2_12 
REMARK    7  A    between atoms: N2_12  and  C9_13 
REMARK    8  A    between atoms: C9_13  and  C10_14 
ROOT
HETATM    1  N1  UNL     1      25.201   0.455  53.712  1.00  0.00    -0.309 N 
HETATM    2  C5  UNL     1      25.470   1.402  52.800  1.00  0.00     0.099 A 
HETATM    3  C6  UNL     1      24.283   1.517  52.154  1.00  0.00     0.037 A 
HETATM    4  C7  UNL     1      23.362   0.662  52.682  1.00  0.00     0.057 A 
HETATM    5  C8  UNL     1      22.030   0.408  52.375  1.00  0.00     0.139 A 
HETATM    6  N3  UNL     1      21.348  -0.514  53.080  1.00  0.00    -0.224 NA
HETATM    7  C12 UNL     1      21.984  -1.184  54.087  1.00  0.00     0.237 A 
HETATM    8  N4  UNL     1      23.289  -0.958  54.412  1.00  0.00    -0.223 NA
HETATM    9  C13 UNL     1      23.960  -0.038  53.706  1.00  0.00     0.149 A 
ENDROOT
BRANCH   1  10
HETATM   10  C4  UNL     1      26.150  -0.021  54.651  1.00  0.00     0.266 C 
BRANCH  10  11
HETATM   11  S1  UNL     1      27.668   0.627  54.481  1.00  0.00    -0.136 SA
BRANCH  11  12
HETATM   12  C3  UNL     1      28.776  -0.461  53.964  1.00  0.00    -0.118 C 
BRANCH  12  13
HETATM   13  C2  UNL     1      29.433  -1.441  53.360  1.00  0.00     0.093 C 
BRANCH  13  14
HETATM   14  C1  UNL     1      28.781  -2.778  53.117  1.00  0.00     0.133 C 
HETATM   15 CL1  UNL     1      27.180  -2.421  52.429  1.00  0.00    -0.129 Cl
ENDBRANCH  13  14
ENDBRANCH  12  13
ENDBRANCH  11  12
ENDBRANCH  10  11
ENDBRANCH   1  10
BRANCH   5  16
HETATM   16  N2  UNL     1      21.412   1.129  51.319  1.00  0.00    -0.370 N 
HETATM   17  H7  UNL     1      20.990   2.066  51.496  1.00  0.00     0.161 HD
BRANCH  16  18
HETATM   18  C9  UNL     1      21.377   0.538  49.993  1.00  0.00     0.149 C 
BRANCH  18  19
HETATM   19  C10 UNL     1      21.714   1.593  48.998  1.00  0.00    -0.000 C 
HETATM   20  C11 UNL     1      22.322   2.734  49.299  1.00  0.00     0.053 C 
HETATM   21 BR1  UNL     1      22.929   4.311  48.402  1.00  0.00    -0.064 Br
ENDBRANCH  18  19
ENDBRANCH  16  18
ENDBRANCH   5  16
TORSDOF 8
ENDMDL
MODEL 8
REMARK VINA RESULT:      -5.7      4.727      7.606
REMARK  8 active torsions:
REMARK  status: ('A' for Active; 'I' for Inactive)
REMARK    1  A    between atoms: C1_2  and  C2_3 
REMARK    2  A    between atoms: C2_3  and  C3_4 
REMARK    3  A    between atoms: C3_4  and  S1_5 
REMARK    4  A    between atoms: S1_5  and  C4_6 
REMARK    5  A    between atoms: C4_6  and  N1_7 
REMARK    6  A    between atoms: C8_11  and  N2_12 
REMARK    7  A    between atoms: N2_12  and  C9_13 
REMARK    8  A    between atoms: C9_13  and  C10_14 
ROOT
HETATM    1  N1  UNL     1      23.297   0.944  52.971  1.00  0.00    -0.309 N 
HETATM    2  C5  UNL     1      22.740   2.094  52.560  1.00  0.00     0.099 A 
HETATM    3  C6  UNL     1      23.790   2.721  51.972  1.00  0.00     0.037 A 
HETATM    4  C7  UNL     1      24.913   1.952  52.044  1.00  0.00     0.057 A 
HETATM    5  C8  UNL     1      26.217   2.145  51.599  1.00  0.00     0.139 A 
HETATM    6  N3  UNL     1      27.142   1.193  51.814  1.00  0.00    -0.224 NA
HETATM    7  C12 UNL     1      26.779   0.050  52.470  1.00  0.00     0.237 A 
HETATM    8  N4  UNL     1      25.510  -0.170  52.918  1.00  0.00    -0.223 NA
HETATM    9  C13 UNL     1      24.594   0.784  52.700  1.00  0.00     0.149 A 
ENDROOT
BRANCH   1  10
HETATM   10  C4  UNL     1      22.583  -0.071  53.655  1.00  0.00     0.266 C 
BRANCH  10  11
HETATM   11  S1  UNL     1      21.078   0.386  54.183  1.00  0.00    -0.136 SA
BRANCH  11  12
HETATM   12  C3  UNL     1      19.870  -0.148  53.217  1.00  0.00    -0.118 C 
BRANCH  12  13
HETATM   13  C2  UNL     1      19.035  -0.395  52.217  1.00  0.00     0.093 C 
BRANCH  13  14
HETATM   14  C1  UNL     1      17.554  -0.538  52.459  1.00  0.00     0.133 C 
HETATM   15 CL1  UNL     1      17.331  -2.155  53.167  1.00  0.00    -0.129 Cl
ENDBRANCH  13  14
ENDBRANCH  12  13
ENDBRANCH  11  12
ENDBRANCH  10  11
ENDBRANCH   1  10
BRANCH   5  16
HETATM   16  N2  UNL     1      26.547   3.351  50.923  1.00  0.00    -0.370 N 
HETATM   17  H7  UNL     1      26.749   4.220  51.463  1.00  0.00     0.161 HD
BRANCH  16  18
HETATM   18  C9  UNL     1      26.596   3.350  49.472  1.00  0.00     0.149 C 
BRANCH  18  19
HETATM   19  C10 UNL     1      26.859   4.740  49.009  1.00  0.00    -0.000 C 
HETATM   20  C11 UNL     1      28.023   5.157  48.527  1.00  0.00     0.053 C 
HETATM   21 BR1  UNL     1      28.792   6.770  47.842  1.00  0.00    -0.064 Br
ENDBRANCH  18  19
ENDBRANCH  16  18
ENDBRANCH   5  16
TORSDOF 8
ENDMDL
MODEL 9
REMARK VINA RESULT:      -5.5      4.375      7.104
REMARK  8 active torsions:
REMARK  status: ('A' for Active; 'I' for Inactive)
REMARK    1  A    between atoms: C1_2  and  C2_3 
REMARK    2  A    between atoms: C2_3  and  C3_4 
REMARK    3  A    between atoms: C3_4  and  S1_5 
REMARK    4  A    between atoms: S1_5  and  C4_6 
REMARK    5  A    between atoms: C4_6  and  N1_7 
REMARK    6  A    between atoms: C8_11  and  N2_12 
REMARK    7  A    between atoms: N2_12  and  C9_13 
REMARK    8  A    between atoms: C9_13  and  C10_14 
ROOT
HETATM    1  N1  UNL     1      21.172   1.282  52.471  1.00  0.00    -0.309 N 
HETATM    2  C5  UNL     1      21.922   0.197  52.717  1.00  0.00     0.099 A 
HETATM    3  C6  UNL     1      23.165   0.731  52.825  1.00  0.00     0.037 A 
HETATM    4  C7  UNL     1      23.126   2.082  52.647  1.00  0.00     0.057 A 
HETATM    5  C8  UNL     1      24.112   3.062  52.663  1.00  0.00     0.139 A 
HETATM    6  N3  UNL     1      23.777   4.348  52.451  1.00  0.00    -0.224 NA
HETATM    7  C12 UNL     1      22.468   4.664  52.222  1.00  0.00     0.237 A 
HETATM    8  N4  UNL     1      21.477   3.727  52.201  1.00  0.00    -0.223 NA
HETATM    9  C13 UNL     1      21.819   2.449  52.414  1.00  0.00     0.149 A 
ENDROOT
BRANCH   1  10
HETATM   10  C4  UNL     1      19.769   1.237  52.279  1.00  0.00     0.266 C 
BRANCH  10  11
HETATM   11  S1  UNL     1      19.299   1.004  50.705  1.00  0.00    -0.136 SA
BRANCH  11  12
HETATM   12  C3  UNL     1      20.522   1.203  49.635  1.00  0.00    -0.118 C 
BRANCH  12  13
HETATM   13  C2  UNL     1      21.449   1.058  48.698  1.00  0.00     0.093 C 
BRANCH  13  14
HETATM   14  C1  UNL     1      22.028   2.255  47.987  1.00  0.00     0.133 C 
HETATM   15 CL1  UNL     1      23.327   2.863  49.040  1.00  0.00    -0.129 Cl
ENDBRANCH  13  14
ENDBRANCH  12  13
ENDBRANCH  11  12
ENDBRANCH  10  11
ENDBRANCH   1  10
BRANCH   5  16
HETATM   16  N2  UNL     1      25.461   2.685  52.903  1.00  0.00    -0.370 N 
HETATM   17  H7  UNL     1      25.839   2.669  53.875  1.00  0.00     0.161 HD
BRANCH  16  18
HETATM   18  C9  UNL     1      26.300   2.324  51.775  1.00  0.00     0.149 C 
BRANCH  18  19
HETATM   19  C10 UNL     1      27.005   1.054  52.099  1.00  0.00    -0.000 C 
HETATM   20  C11 UNL     1      27.855   0.910  53.108  1.00  0.00     0.053 C 
HETATM   21 BR1  UNL     1      28.947  -0.462  53.874  1.00  0.00    -0.064 Br
ENDBRANCH  18  19
ENDBRANCH  16  18
ENDBRANCH   5  16
TORSDOF 8
ENDMDL
