MODEL 1
REMARK VINA RESULT:      -7.3      0.000      0.000
REMARK  5 active torsions:
REMARK  status: ('A' for Active; 'I' for Inactive)
REMARK    1  A    between atoms: C2_2  and  C3_4 
REMARK    2  A    between atoms: C4_5  and  C5_6 
REMARK    3  A    between atoms: C6_7  and  N1_8 
REMARK    4  A    between atoms: N1_8  and  C7_9 
REMARK    5  A    between atoms: C13_18  and  N5_19 
ROOT
HETATM    1  C7  UNL     1      25.000   2.475  51.360  1.00  0.00     0.105 C 
HETATM    2  N2  UNL     1      24.712   1.650  52.244  1.00  0.00    -0.227 NA
HETATM    3  C8  UNL     1      23.746   1.187  53.050  1.00  0.00     0.257 C 
HETATM    4  N3  UNL     1      24.036   0.166  53.758  1.00  0.00    -0.164 NA
HETATM    5  N4  UNL     1      25.227  -0.554  53.819  1.00  0.00    -0.252 N 
HETATM    6  C9  UNL     1      25.523  -0.778  52.478  1.00  0.00     0.111 C 
HETATM    7  C10 UNL     1      26.314   0.176  52.023  1.00  0.00    -0.001 C 
HETATM    8  C11 UNL     1      27.140   1.362  51.952  1.00  0.00     0.049 C 
HETATM    9  C12 UNL     1      26.443   2.312  50.913  1.00  0.00     0.089 C 
HETATM   10  C13 UNL     1      27.453   2.179  53.147  1.00  0.00     0.227 C 
HETATM   11  C14 UNL     1      28.445   1.455  54.067  1.00  0.00     0.066 C 
HETATM   12  C15 UNL     1      27.867   0.179  54.553  1.00  0.00     0.274 C 
HETATM   13  N6  UNL     1      26.687   0.377  55.396  1.00  0.00     0.102 N 
HETATM   14  C16 UNL     1      25.807  -0.796  55.177  1.00  0.00     0.419 C 
HETATM   15  H23 UNL     1      26.912   0.352  56.414  1.00  0.00     0.318 HD
ENDROOT
BRANCH   1  16
HETATM   16  N1  UNL     1      24.095   3.432  50.817  1.00  0.00    -0.354 N 
HETATM   17  H9  UNL     1      23.598   3.979  51.578  1.00  0.00     0.166 HD
BRANCH  16  18
HETATM   18  C6  UNL     1      23.964   3.541  49.402  1.00  0.00     0.089 C 
HETATM   19  C5  UNL     1      24.401   4.706  48.966  1.00  0.00     0.017 C 
BRANCH  19  20
HETATM   20  C4  UNL     1      24.930   5.690  49.878  1.00  0.00    -0.001 C 
HETATM   21  C3  UNL     1      26.023   6.384  49.612  1.00  0.00    -0.007 C 
BRANCH  21  22
HETATM   22  C2  UNL     1      26.856   6.284  48.397  1.00  0.00     0.101 C 
HETATM   23  C1  UNL     1      27.722   7.544  48.316  1.00  0.00     0.031 C 
HETATM   24 CL1  UNL     1      27.926   4.859  48.585  1.00  0.00    -0.121 Cl
ENDBRANCH  21  22
ENDBRANCH  19  20
ENDBRANCH  16  18
ENDBRANCH   1  16
BRANCH  10  25
HETATM   25  N5  UNL     1      26.414   2.808  53.873  1.00  0.00     0.083 N 
HETATM   26  H17 UNL     1      26.310   2.480  54.859  1.00  0.00     0.313 HD
HETATM   27  H18 UNL     1      25.497   2.549  53.415  1.00  0.00     0.313 HD
ENDBRANCH  10  25
TORSDOF 5
ENDMDL
MODEL 2
REMARK VINA RESULT:      -7.3      2.177      6.273
REMARK  5 active torsions:
REMARK  status: ('A' for Active; 'I' for Inactive)
REMARK    1  A    between atoms: C2_2  and  C3_4 
REMARK    2  A    between atoms: C4_5  and  C5_6 
REMARK    3  A    between atoms: C6_7  and  N1_8 
REMARK    4  A    between atoms: N1_8  and  C7_9 
REMARK    5  A    between atoms: C13_18  and  N5_19 
ROOT
HETATM    1  C7  UNL     1      23.890   1.326  51.849  1.00  0.00     0.105 C 
HETATM    2  N2  UNL     1      24.704   2.114  51.336  1.00  0.00    -0.227 NA
HETATM    3  C8  UNL     1      26.001   2.383  51.132  1.00  0.00     0.257 C 
HETATM    4  N3  UNL     1      26.262   3.387  50.388  1.00  0.00    -0.164 NA
HETATM    5  N4  UNL     1      25.387   4.259  49.745  1.00  0.00    -0.252 N 
HETATM    6  C9  UNL     1      24.495   3.395  49.118  1.00  0.00     0.111 C 
HETATM    7  C10 UNL     1      23.450   3.182  49.896  1.00  0.00    -0.001 C 
HETATM    8  C11 UNL     1      22.533   3.231  51.015  1.00  0.00     0.049 C 
HETATM    9  C12 UNL     1      22.462   1.767  51.580  1.00  0.00     0.089 C 
HETATM   10  C13 UNL     1      22.746   4.133  52.169  1.00  0.00     0.227 C 
HETATM   11  C14 UNL     1      22.473   5.594  51.788  1.00  0.00     0.066 C 
HETATM   12  C15 UNL     1      23.400   6.033  50.717  1.00  0.00     0.274 C 
HETATM   13  N6  UNL     1      24.799   6.040  51.147  1.00  0.00     0.102 N 
HETATM   14  C16 UNL     1      25.613   5.724  49.950  1.00  0.00     0.419 C 
HETATM   15  H23 UNL     1      25.123   6.985  51.446  1.00  0.00     0.318 HD
ENDROOT
BRANCH   1  16
HETATM   16  N1  UNL     1      24.245   0.150  52.572  1.00  0.00    -0.354 N 
HETATM   17  H9  UNL     1      24.174  -0.719  51.967  1.00  0.00     0.166 HD
BRANCH  16  18
HETATM   18  C6  UNL     1      24.630   0.263  53.939  1.00  0.00     0.089 C 
HETATM   19  C5  UNL     1      25.777  -0.345  54.169  1.00  0.00     0.017 C 
BRANCH  19  20
HETATM   20  C4  UNL     1      26.486  -1.018  53.109  1.00  0.00    -0.001 C 
HETATM   21  C3  UNL     1      27.803  -0.972  53.000  1.00  0.00    -0.007 C 
BRANCH  21  22
HETATM   22  C2  UNL     1      28.736  -0.260  53.896  1.00  0.00     0.101 C 
HETATM   23  C1  UNL     1      30.120  -0.893  53.730  1.00  0.00     0.031 C 
HETATM   24 CL1  UNL     1      28.814   1.447  53.360  1.00  0.00    -0.121 Cl
ENDBRANCH  21  22
ENDBRANCH  19  20
ENDBRANCH  16  18
ENDBRANCH   1  16
BRANCH  10  25
HETATM   25  N5  UNL     1      23.901   4.001  52.976  1.00  0.00     0.083 N 
HETATM   26  H17 UNL     1      23.985   4.709  53.739  1.00  0.00     0.313 HD
HETATM   27  H18 UNL     1      24.744   4.178  52.363  1.00  0.00     0.313 HD
ENDBRANCH  10  25
TORSDOF 5
ENDMDL
MODEL 3
REMARK VINA RESULT:      -7.0      3.529      5.457
REMARK  5 active torsions:
REMARK  status: ('A' for Active; 'I' for Inactive)
REMARK    1  A    between atoms: C2_2  and  C3_4 
REMARK    2  A    between atoms: C4_5  and  C5_6 
REMARK    3  A    between atoms: C6_7  and  N1_8 
REMARK    4  A    between atoms: N1_8  and  C7_9 
REMARK    5  A    between atoms: C13_18  and  N5_19 
ROOT
HETATM    1  C7  UNL     1      24.242   1.035  51.947  1.00  0.00     0.105 C 
HETATM    2  N2  UNL     1      24.824   0.360  52.814  1.00  0.00    -0.227 NA
HETATM    3  C8  UNL     1      24.669  -0.431  53.885  1.00  0.00     0.257 C 
HETATM    4  N3  UNL     1      25.730  -0.957  54.361  1.00  0.00    -0.164 NA
HETATM    5  N4  UNL     1      27.047  -0.833  53.925  1.00  0.00    -0.252 N 
HETATM    6  C9  UNL     1      26.944  -1.069  52.558  1.00  0.00     0.111 C 
HETATM    7  C10 UNL     1      26.796   0.072  51.911  1.00  0.00    -0.001 C 
HETATM    8  C11 UNL     1      26.662   1.484  51.623  1.00  0.00     0.049 C 
HETATM    9  C12 UNL     1      25.238   1.663  50.987  1.00  0.00     0.089 C 
HETATM   10  C13 UNL     1      26.804   2.520  52.672  1.00  0.00     0.227 C 
HETATM   11  C14 UNL     1      28.268   2.672  53.105  1.00  0.00     0.066 C 
HETATM   12  C15 UNL     1      28.775   1.402  53.678  1.00  0.00     0.274 C 
HETATM   13  N6  UNL     1      28.083   1.021  54.910  1.00  0.00     0.102 N 
HETATM   14  C16 UNL     1      28.071  -0.461  54.950  1.00  0.00     0.419 C 
HETATM   15  H23 UNL     1      28.605   1.305  55.768  1.00  0.00     0.318 HD
ENDROOT
BRANCH   1  16
HETATM   16  N1  UNL     1      22.828   1.183  51.848  1.00  0.00    -0.354 N 
HETATM   17  H9  UNL     1      22.434   0.643  51.024  1.00  0.00     0.166 HD
BRANCH  16  18
HETATM   18  C6  UNL     1      22.144   1.989  52.804  1.00  0.00     0.089 C 
HETATM   19  C5  UNL     1      20.837   1.848  52.706  1.00  0.00     0.017 C 
BRANCH  19  20
HETATM   20  C4  UNL     1      20.256   0.965  51.724  1.00  0.00    -0.001 C 
HETATM   21  C3  UNL     1      19.565  -0.110  52.062  1.00  0.00    -0.007 C 
BRANCH  21  22
HETATM   22  C2  UNL     1      19.278  -0.577  53.433  1.00  0.00     0.101 C 
HETATM   23  C1  UNL     1      18.130  -1.587  53.354  1.00  0.00     0.031 C 
HETATM   24 CL1  UNL     1      20.741  -1.413  54.043  1.00  0.00    -0.121 Cl
ENDBRANCH  21  22
ENDBRANCH  19  20
ENDBRANCH  16  18
ENDBRANCH   1  16
BRANCH  10  25
HETATM   25  N5  UNL     1      25.917   2.545  53.774  1.00  0.00     0.083 N 
HETATM   26  H17 UNL     1      25.721   3.498  54.155  1.00  0.00     0.313 HD
HETATM   27  H18 UNL     1      26.384   2.036  54.575  1.00  0.00     0.313 HD
ENDBRANCH  10  25
TORSDOF 5
ENDMDL
MODEL 4
REMARK VINA RESULT:      -6.9      2.871      4.181
REMARK  5 active torsions:
REMARK  status: ('A' for Active; 'I' for Inactive)
REMARK    1  A    between atoms: C2_2  and  C3_4 
REMARK    2  A    between atoms: C4_5  and  C5_6 
REMARK    3  A    between atoms: C6_7  and  N1_8 
REMARK    4  A    between atoms: N1_8  and  C7_9 
REMARK    5  A    between atoms: C13_18  and  N5_19 
ROOT
HETATM    1  C7  UNL     1      25.744   1.982  53.255  1.00  0.00     0.105 C 
HETATM    2  N2  UNL     1      26.943   1.744  53.477  1.00  0.00    -0.227 NA
HETATM    3  C8  UNL     1      28.187   2.244  53.476  1.00  0.00     0.257 C 
HETATM    4  N3  UNL     1      29.107   1.483  53.927  1.00  0.00    -0.164 NA
HETATM    5  N4  UNL     1      29.010   0.188  54.432  1.00  0.00    -0.252 N 
HETATM    6  C9  UNL     1      27.957   0.286  55.335  1.00  0.00     0.111 C 
HETATM    7  C10 UNL     1      26.822  -0.037  54.744  1.00  0.00    -0.001 C 
HETATM    8  C11 UNL     1      25.858  -0.449  53.746  1.00  0.00     0.049 C 
HETATM    9  C12 UNL     1      24.883   0.767  53.557  1.00  0.00     0.089 C 
HETATM   10  C13 UNL     1      26.264  -0.897  52.395  1.00  0.00     0.227 C 
HETATM   11  C14 UNL     1      26.917  -2.284  52.443  1.00  0.00     0.066 C 
HETATM   12  C15 UNL     1      28.143  -2.252  53.276  1.00  0.00     0.274 C 
HETATM   13  N6  UNL     1      29.187  -1.394  52.714  1.00  0.00     0.102 N 
HETATM   14  C16 UNL     1      29.941  -0.835  53.861  1.00  0.00     0.419 C 
HETATM   15  H23 UNL     1      29.895  -1.929  52.167  1.00  0.00     0.318 HD
ENDROOT
BRANCH   1  16
HETATM   16  N1  UNL     1      25.235   3.233  52.800  1.00  0.00    -0.354 N 
HETATM   17  H9  UNL     1      26.009   3.861  52.434  1.00  0.00     0.166 HD
BRANCH  16  18
HETATM   18  C6  UNL     1      23.835   3.486  52.881  1.00  0.00     0.089 C 
HETATM   19  C5  UNL     1      23.284   3.537  51.685  1.00  0.00     0.017 C 
BRANCH  19  20
HETATM   20  C4  UNL     1      24.075   3.348  50.494  1.00  0.00    -0.001 C 
HETATM   21  C3  UNL     1      23.540   2.984  49.341  1.00  0.00    -0.007 C 
BRANCH  21  22
HETATM   22  C2  UNL     1      22.111   2.719  49.078  1.00  0.00     0.101 C 
HETATM   23  C1  UNL     1      21.871   2.893  47.576  1.00  0.00     0.031 C 
HETATM   24 CL1  UNL     1      21.781   1.015  49.523  1.00  0.00    -0.121 Cl
ENDBRANCH  21  22
ENDBRANCH  19  20
ENDBRANCH  16  18
ENDBRANCH   1  16
BRANCH  10  25
HETATM   25  N5  UNL     1      26.951  -0.015  51.528  1.00  0.00     0.083 N 
HETATM   26  H17 UNL     1      26.367   0.759  51.139  1.00  0.00     0.313 HD
HETATM   27  H18 UNL     1      27.251  -0.567  50.677  1.00  0.00     0.313 HD
ENDBRANCH  10  25
TORSDOF 5
ENDMDL
MODEL 5
REMARK VINA RESULT:      -6.9      2.525      6.436
REMARK  5 active torsions:
REMARK  status: ('A' for Active; 'I' for Inactive)
REMARK    1  A    between atoms: C2_2  and  C3_4 
REMARK    2  A    between atoms: C4_5  and  C5_6 
REMARK    3  A    between atoms: C6_7  and  N1_8 
REMARK    4  A    between atoms: N1_8  and  C7_9 
REMARK    5  A    between atoms: C13_18  and  N5_19 
ROOT
HETATM    1  C7  UNL     1      23.966   1.662  51.995  1.00  0.00     0.105 C 
HETATM    2  N2  UNL     1      22.944   2.369  52.006  1.00  0.00    -0.227 NA
HETATM    3  C8  UNL     1      21.637   2.415  52.300  1.00  0.00     0.257 C 
HETATM    4  N3  UNL     1      21.064   3.548  52.168  1.00  0.00    -0.164 NA
HETATM    5  N4  UNL     1      21.603   4.765  51.759  1.00  0.00    -0.252 N 
HETATM    6  C9  UNL     1      22.748   4.875  52.540  1.00  0.00     0.111 C 
HETATM    7  C10 UNL     1      23.788   4.385  51.891  1.00  0.00    -0.001 C 
HETATM    8  C11 UNL     1      24.610   3.778  50.866  1.00  0.00     0.049 C 
HETATM    9  C12 UNL     1      25.164   2.446  51.487  1.00  0.00     0.089 C 
HETATM   10  C13 UNL     1      24.079   3.445  49.524  1.00  0.00     0.227 C 
HETATM   11  C14 UNL     1      23.846   4.712  48.691  1.00  0.00     0.066 C 
HETATM   12  C15 UNL     1      22.847   5.589  49.347  1.00  0.00     0.274 C 
HETATM   13  N6  UNL     1      21.521   4.974  49.428  1.00  0.00     0.102 N 
HETATM   14  C16 UNL     1      20.887   5.492  50.664  1.00  0.00     0.419 C 
HETATM   15  H23 UNL     1      20.889   5.281  48.657  1.00  0.00     0.318 HD
ENDROOT
BRANCH   1  16
HETATM   16  N1  UNL     1      24.019   0.304  52.424  1.00  0.00    -0.354 N 
HETATM   17  H9  UNL     1      23.840  -0.368  51.622  1.00  0.00     0.166 HD
BRANCH  16  18
HETATM   18  C6  UNL     1      24.289   0.017  53.794  1.00  0.00     0.089 C 
HETATM   19  C5  UNL     1      25.418  -0.649  53.933  1.00  0.00     0.017 C 
BRANCH  19  20
HETATM   20  C4  UNL     1      26.218  -1.002  52.787  1.00  0.00    -0.001 C 
HETATM   21  C3  UNL     1      27.519  -0.769  52.735  1.00  0.00    -0.007 C 
BRANCH  21  22
HETATM   22  C2  UNL     1      28.343  -0.138  53.785  1.00  0.00     0.101 C 
HETATM   23  C1  UNL     1      29.749  -0.739  53.703  1.00  0.00     0.031 C 
HETATM   24 CL1  UNL     1      28.441   1.614  53.424  1.00  0.00    -0.121 Cl
ENDBRANCH  21  22
ENDBRANCH  19  20
ENDBRANCH  16  18
ENDBRANCH   1  16
BRANCH  10  25
HETATM   25  N5  UNL     1      23.023   2.515  49.386  1.00  0.00     0.083 N 
HETATM   26  H17 UNL     1      23.045   1.956  48.503  1.00  0.00     0.313 HD
HETATM   27  H18 UNL     1      22.118   3.060  49.325  1.00  0.00     0.313 HD
ENDBRANCH  10  25
TORSDOF 5
ENDMDL
MODEL 6
REMARK VINA RESULT:      -6.8      3.229      4.748
REMARK  5 active torsions:
REMARK  status: ('A' for Active; 'I' for Inactive)
REMARK    1  A    between atoms: C2_2  and  C3_4 
REMARK    2  A    between atoms: C4_5  and  C5_6 
REMARK    3  A    between atoms: C6_7  and  N1_8 
REMARK    4  A    between atoms: N1_8  and  C7_9 
REMARK    5  A    between atoms: C13_18  and  N5_19 
ROOT
HETATM    1  C7  UNL     1      24.163   0.993  52.539  1.00  0.00     0.105 C 
HETATM    2  N2  UNL     1      24.894   0.320  53.285  1.00  0.00    -0.227 NA
HETATM    3  C8  UNL     1      24.939  -0.467  54.369  1.00  0.00     0.257 C 
HETATM    4  N3  UNL     1      26.069  -0.994  54.643  1.00  0.00    -0.164 NA
HETATM    5  N4  UNL     1      27.283  -0.873  53.970  1.00  0.00    -0.252 N 
HETATM    6  C9  UNL     1      26.929  -1.114  52.647  1.00  0.00     0.111 C 
HETATM    7  C10 UNL     1      26.665   0.026  52.034  1.00  0.00    -0.001 C 
HETATM    8  C11 UNL     1      26.482   1.437  51.771  1.00  0.00     0.049 C 
HETATM    9  C12 UNL     1      24.965   1.616  51.408  1.00  0.00     0.089 C 
HETATM   10  C13 UNL     1      26.816   2.476  52.772  1.00  0.00     0.227 C 
HETATM   11  C14 UNL     1      28.335   2.627  52.927  1.00  0.00     0.066 C 
HETATM   12  C15 UNL     1      28.938   1.358  53.401  1.00  0.00     0.274 C 
HETATM   13  N6  UNL     1      28.485   0.982  54.741  1.00  0.00     0.102 N 
HETATM   14  C16 UNL     1      28.479  -0.499  54.788  1.00  0.00     0.419 C 
HETATM   15  H23 UNL     1      29.157   1.268  55.487  1.00  0.00     0.318 HD
ENDROOT
BRANCH   1  16
HETATM   16  N1  UNL     1      22.755   1.143  52.701  1.00  0.00    -0.354 N 
HETATM   17  H9  UNL     1      22.456   2.158  52.616  1.00  0.00     0.166 HD
BRANCH  16  18
HETATM   18  C6  UNL     1      21.955  -0.011  52.945  1.00  0.00     0.089 C 
HETATM   19  C5  UNL     1      20.669   0.277  52.911  1.00  0.00     0.017 C 
BRANCH  19  20
HETATM   20  C4  UNL     1      20.216   1.622  52.654  1.00  0.00    -0.001 C 
HETATM   21  C3  UNL     1      19.679   1.977  51.499  1.00  0.00    -0.007 C 
BRANCH  21  22
HETATM   22  C2  UNL     1      19.459   1.108  50.326  1.00  0.00     0.101 C 
HETATM   23  C1  UNL     1      18.334   1.724  49.490  1.00  0.00     0.031 C 
HETATM   24 CL1  UNL     1      20.964   1.105  49.357  1.00  0.00    -0.121 Cl
ENDBRANCH  21  22
ENDBRANCH  19  20
ENDBRANCH  16  18
ENDBRANCH   1  16
BRANCH  10  25
HETATM   25  N5  UNL     1      26.148   2.506  54.019  1.00  0.00     0.083 N 
HETATM   26  H17 UNL     1      25.128   2.724  53.963  1.00  0.00     0.313 HD
HETATM   27  H18 UNL     1      26.553   3.305  54.582  1.00  0.00     0.313 HD
ENDBRANCH  10  25
TORSDOF 5
ENDMDL
MODEL 7
REMARK VINA RESULT:      -6.8      1.954      3.574
REMARK  5 active torsions:
REMARK  status: ('A' for Active; 'I' for Inactive)
REMARK    1  A    between atoms: C2_2  and  C3_4 
REMARK    2  A    between atoms: C4_5  and  C5_6 
REMARK    3  A    between atoms: C6_7  and  N1_8 
REMARK    4  A    between atoms: N1_8  and  C7_9 
REMARK    5  A    between atoms: C13_18  and  N5_19 
ROOT
HETATM    1  C7  UNL     1      25.098   3.729  50.690  1.00  0.00     0.105 C 
HETATM    2  N2  UNL     1      25.495   2.699  51.261  1.00  0.00    -0.227 NA
HETATM    3  C8  UNL     1      26.394   1.705  51.246  1.00  0.00     0.257 C 
HETATM    4  N3  UNL     1      26.366   0.898  52.234  1.00  0.00    -0.164 NA
HETATM    5  N4  UNL     1      25.529   0.897  53.347  1.00  0.00    -0.252 N 
HETATM    6  C9  UNL     1      25.591   2.216  53.784  1.00  0.00     0.111 C 
HETATM    7  C10 UNL     1      24.608   2.916  53.250  1.00  0.00    -0.001 C 
HETATM    8  C11 UNL     1      23.437   3.282  52.481  1.00  0.00     0.049 C 
HETATM    9  C12 UNL     1      23.924   4.345  51.432  1.00  0.00     0.089 C 
HETATM   10  C13 UNL     1      22.632   2.281  51.746  1.00  0.00     0.227 C 
HETATM   11  C14 UNL     1      21.817   1.410  52.711  1.00  0.00     0.066 C 
HETATM   12  C15 UNL     1      22.716   0.660  53.621  1.00  0.00     0.274 C 
HETATM   13  N6  UNL     1      23.564  -0.301  52.913  1.00  0.00     0.102 N 
HETATM   14  C16 UNL     1      24.834  -0.388  53.673  1.00  0.00     0.419 C 
HETATM   15  H23 UNL     1      23.176  -1.269  52.933  1.00  0.00     0.318 HD
ENDROOT
BRANCH   1  16
HETATM   16  N1  UNL     1      25.679   4.279  49.511  1.00  0.00    -0.354 N 
HETATM   17  H9  UNL     1      26.077   3.523  48.881  1.00  0.00     0.166 HD
BRANCH  16  18
HETATM   18  C6  UNL     1      25.663   5.691  49.320  1.00  0.00     0.089 C 
HETATM   19  C5  UNL     1      26.793   6.119  48.792  1.00  0.00     0.017 C 
BRANCH  19  20
HETATM   20  C4  UNL     1      27.860   5.202  48.478  1.00  0.00    -0.001 C 
HETATM   21  C3  UNL     1      29.094   5.611  48.234  1.00  0.00    -0.007 C 
BRANCH  21  22
HETATM   22  C2  UNL     1      29.576   7.006  48.238  1.00  0.00     0.101 C 
HETATM   23  C1  UNL     1      31.012   7.005  48.770  1.00  0.00     0.031 C 
HETATM   24 CL1  UNL     1      29.589   7.585  46.543  1.00  0.00    -0.121 Cl
ENDBRANCH  21  22
ENDBRANCH  19  20
ENDBRANCH  16  18
ENDBRANCH   1  16
BRANCH  10  25
HETATM   25  N5  UNL     1      23.216   1.520  50.706  1.00  0.00     0.083 N 
HETATM   26  H17 UNL     1      23.306   2.022  49.795  1.00  0.00     0.313 HD
HETATM   27  H18 UNL     1      22.567   0.712  50.494  1.00  0.00     0.313 HD
ENDBRANCH  10  25
TORSDOF 5
ENDMDL
MODEL 8
REMARK VINA RESULT:      -6.7      3.198      6.423
REMARK  5 active torsions:
REMARK  status: ('A' for Active; 'I' for Inactive)
REMARK    1  A    between atoms: C2_2  and  C3_4 
REMARK    2  A    between atoms: C4_5  and  C5_6 
REMARK    3  A    between atoms: C6_7  and  N1_8 
REMARK    4  A    between atoms: N1_8  and  C7_9 
REMARK    5  A    between atoms: C13_18  and  N5_19 
ROOT
HETATM    1  C7  UNL     1      23.808   2.625  52.429  1.00  0.00     0.105 C 
HETATM    2  N2  UNL     1      22.903   1.793  52.246  1.00  0.00    -0.227 NA
HETATM    3  C8  UNL     1      22.578   0.493  52.266  1.00  0.00     0.257 C 
HETATM    4  N3  UNL     1      21.353   0.210  52.046  1.00  0.00    -0.164 NA
HETATM    5  N4  UNL     1      20.285   1.064  51.785  1.00  0.00    -0.252 N 
HETATM    6  C9  UNL     1      20.401   2.021  52.787  1.00  0.00     0.111 C 
HETATM    7  C10 UNL     1      21.112   3.046  52.355  1.00  0.00    -0.001 C 
HETATM    8  C11 UNL     1      21.898   3.916  51.507  1.00  0.00     0.049 C 
HETATM    9  C12 UNL     1      23.304   4.039  52.198  1.00  0.00     0.089 C 
HETATM   10  C13 UNL     1      22.141   3.616  50.077  1.00  0.00     0.227 C 
HETATM   11  C14 UNL     1      20.870   3.830  49.244  1.00  0.00     0.066 C 
HETATM   12  C15 UNL     1      19.790   2.923  49.701  1.00  0.00     0.274 C 
HETATM   13  N6  UNL     1      20.111   1.510  49.492  1.00  0.00     0.102 N 
HETATM   14  C16 UNL     1      19.447   0.758  50.583  1.00  0.00     0.419 C 
HETATM   15  H23 UNL     1      19.695   1.129  48.616  1.00  0.00     0.318 HD
ENDROOT
BRANCH   1  16
HETATM   16  N1  UNL     1      25.138   2.303  52.828  1.00  0.00    -0.354 N 
HETATM   17  H9  UNL     1      25.177   1.978  53.838  1.00  0.00     0.166 HD
BRANCH  16  18
HETATM   18  C6  UNL     1      26.200   2.444  51.888  1.00  0.00     0.089 C 
HETATM   19  C5  UNL     1      26.770   1.284  51.627  1.00  0.00     0.017 C 
BRANCH  19  20
HETATM   20  C4  UNL     1      26.311   0.072  52.260  1.00  0.00    -0.001 C 
HETATM   21  C3  UNL     1      27.085  -0.644  53.058  1.00  0.00    -0.007 C 
BRANCH  21  22
HETATM   22  C2  UNL     1      28.484  -0.349  53.425  1.00  0.00     0.101 C 
HETATM   23  C1  UNL     1      28.493   0.151  54.872  1.00  0.00     0.031 C 
HETATM   24 CL1  UNL     1      29.407  -1.881  53.337  1.00  0.00    -0.121 Cl
ENDBRANCH  21  22
ENDBRANCH  19  20
ENDBRANCH  16  18
ENDBRANCH   1  16
BRANCH  10  25
HETATM   25  N5  UNL     1      22.831   2.439  49.702  1.00  0.00     0.083 N 
HETATM   26  H17 UNL     1      22.755   2.191  48.691  1.00  0.00     0.313 HD
HETATM   27  H18 UNL     1      22.380   1.626  50.205  1.00  0.00     0.313 HD
ENDBRANCH  10  25
TORSDOF 5
ENDMDL
MODEL 9
REMARK VINA RESULT:      -6.7      2.813      6.836
REMARK  5 active torsions:
REMARK  status: ('A' for Active; 'I' for Inactive)
REMARK    1  A    between atoms: C2_2  and  C3_4 
REMARK    2  A    between atoms: C4_5  and  C5_6 
REMARK    3  A    between atoms: C6_7  and  N1_8 
REMARK    4  A    between atoms: N1_8  and  C7_9 
REMARK    5  A    between atoms: C13_18  and  N5_19 
ROOT
HETATM    1  C7  UNL     1      23.723   1.345  51.724  1.00  0.00     0.105 C 
HETATM    2  N2  UNL     1      23.685   2.163  50.790  1.00  0.00    -0.227 NA
HETATM    3  C8  UNL     1      24.403   2.988  50.015  1.00  0.00     0.257 C 
HETATM    4  N3  UNL     1      23.774   3.572  49.070  1.00  0.00    -0.164 NA
HETATM    5  N4  UNL     1      22.430   3.477  48.717  1.00  0.00    -0.252 N 
HETATM    6  C9  UNL     1      22.215   2.103  48.683  1.00  0.00     0.111 C 
HETATM    7  C10 UNL     1      21.766   1.686  49.852  1.00  0.00    -0.001 C 
HETATM    8  C11 UNL     1      21.313   1.670  51.227  1.00  0.00     0.049 C 
HETATM    9  C12 UNL     1      22.342   0.781  52.011  1.00  0.00     0.089 C 
HETATM   10  C13 UNL     1      21.125   2.913  52.010  1.00  0.00     0.227 C 
HETATM   11  C14 UNL     1      19.887   3.685  51.534  1.00  0.00     0.066 C 
HETATM   12  C15 UNL     1      20.039   4.086  50.115  1.00  0.00     0.274 C 
HETATM   13  N6  UNL     1      21.140   5.027  49.907  1.00  0.00     0.102 N 
HETATM   14  C16 UNL     1      21.678   4.760  48.552  1.00  0.00     0.419 C 
HETATM   15  H23 UNL     1      20.820   6.019  49.874  1.00  0.00     0.318 HD
ENDROOT
BRANCH   1  16
HETATM   16  N1  UNL     1      24.907   0.963  52.421  1.00  0.00    -0.354 N 
HETATM   17  H9  UNL     1      25.779   1.158  51.849  1.00  0.00     0.166 HD
BRANCH  16  18
HETATM   18  C6  UNL     1      24.795   0.397  53.724  1.00  0.00     0.089 C 
HETATM   19  C5  UNL     1      25.563  -0.667  53.855  1.00  0.00     0.017 C 
BRANCH  19  20
HETATM   20  C4  UNL     1      26.383  -1.130  52.763  1.00  0.00    -0.001 C 
HETATM   21  C3  UNL     1      27.699  -1.001  52.763  1.00  0.00    -0.007 C 
BRANCH  21  22
HETATM   22  C2  UNL     1      28.523  -0.390  53.825  1.00  0.00     0.101 C 
HETATM   23  C1  UNL     1      29.933  -0.977  53.720  1.00  0.00     0.031 C 
HETATM   24 CL1  UNL     1      28.605   1.371  53.509  1.00  0.00    -0.121 Cl
ENDBRANCH  21  22
ENDBRANCH  19  20
ENDBRANCH  16  18
ENDBRANCH   1  16
BRANCH  10  25
HETATM   25  N5  UNL     1      22.222   3.769  52.264  1.00  0.00     0.083 N 
HETATM   26  H17 UNL     1      23.152   3.380  51.992  1.00  0.00     0.313 HD
HETATM   27  H18 UNL     1      22.292   3.902  53.311  1.00  0.00     0.313 HD
ENDBRANCH  10  25
TORSDOF 5
ENDMDL
