MODEL 1
REMARK VINA RESULT:      -7.6      0.000      0.000
REMARK  4 active torsions:
REMARK  status: ('A' for Active; 'I' for Inactive)
REMARK    1  A    between atoms: C1_2  and  C2_3 
REMARK    2  A    between atoms: C4_5  and  N2_6 
REMARK    3  A    between atoms: N2_6  and  C5_7 
REMARK    4  A    between atoms: C6_8  and  C7_9 
ROOT
HETATM    1  C2  UNL     1      27.122   1.260  53.409  1.00  0.00    -0.025 C 
HETATM    2  C3  UNL     1      26.387   2.354  53.056  1.00  0.00     0.019 C 
HETATM    3  C4  UNL     1      25.040   2.492  52.675  1.00  0.00     0.076 C 
HETATM    4  C8  UNL     1      24.145   3.643  52.782  1.00  0.00     0.045 C 
HETATM    5  C9  UNL     1      22.982   3.045  51.879  1.00  0.00     0.042 C 
HETATM    6  C10 UNL     1      23.002   1.613  52.316  1.00  0.00    -0.049 A 
HETATM    7  C11 UNL     1      22.443   0.309  52.318  1.00  0.00     0.008 A 
HETATM    8  C12 UNL     1      23.016  -0.717  53.084  1.00  0.00     0.009 A 
HETATM    9  C13 UNL     1      24.105  -0.282  53.777  1.00  0.00    -0.040 A 
HETATM   10  C14 UNL     1      24.849   0.821  54.001  1.00  0.00     0.019 A 
HETATM   11  C15 UNL     1      24.058   1.457  53.176  1.00  0.00    -0.019 A 
HETATM   12  C16 UNL     1      25.114  -1.268  54.335  1.00  0.00     0.153 C 
HETATM   13  N3  UNL     1      26.288  -1.133  53.546  1.00  0.00    -0.414 N 
HETATM   14  C17 UNL     1      27.275  -0.185  53.672  1.00  0.00     0.154 C 
HETATM   15  H18 UNL     1      26.136  -1.576  52.629  1.00  0.00     0.153 HD
ENDROOT
BRANCH   3  16
HETATM   16  N2  UNL     1      25.091   2.317  51.148  1.00  0.00    -0.382 N 
HETATM   17  H4  UNL     1      24.477   1.746  50.517  1.00  0.00     0.160 HD
BRANCH  16  18
HETATM   18  C5  UNL     1      26.144   3.061  50.543  1.00  0.00     0.082 C 
HETATM   19  C6  UNL     1      25.861   4.042  49.701  1.00  0.00     0.021 C 
BRANCH  19  20
HETATM   20  C7  UNL     1      26.771   4.944  48.957  1.00  0.00     0.251 C 
HETATM   21  F1  UNL     1      27.942   4.358  48.574  1.00  0.00    -0.251 F 
ENDBRANCH  19  20
ENDBRANCH  16  18
ENDBRANCH   3  16
BRANCH   1  22
HETATM   22  C1  UNL     1      28.484   1.867  53.682  1.00  0.00     0.115 C 
HETATM   23  N1  UNL     1      29.042   2.858  53.082  1.00  0.00    -0.312 NA
HETATM   24  H1  UNL     1      29.934   3.309  53.210  1.00  0.00     0.186 HD
ENDBRANCH   1  22
TORSDOF 4
ENDMDL
MODEL 2
REMARK VINA RESULT:      -7.4      2.498      4.685
REMARK  4 active torsions:
REMARK  status: ('A' for Active; 'I' for Inactive)
REMARK    1  A    between atoms: C1_2  and  C2_3 
REMARK    2  A    between atoms: C4_5  and  N2_6 
REMARK    3  A    between atoms: N2_6  and  C5_7 
REMARK    4  A    between atoms: C6_8  and  C7_9 
ROOT
HETATM    1  C2  UNL     1      23.704  -0.571  54.069  1.00  0.00    -0.025 C 
HETATM    2  C3  UNL     1      24.911   0.066  54.092  1.00  0.00     0.019 C 
HETATM    3  C4  UNL     1      25.490   1.003  53.217  1.00  0.00     0.076 C 
HETATM    4  C8  UNL     1      26.502   2.027  53.471  1.00  0.00     0.045 C 
HETATM    5  C9  UNL     1      26.771   2.389  51.947  1.00  0.00     0.042 C 
HETATM    6  C10 UNL     1      25.380   2.319  51.398  1.00  0.00    -0.049 A 
HETATM    7  C11 UNL     1      24.450   2.521  50.345  1.00  0.00     0.008 A 
HETATM    8  C12 UNL     1      23.086   2.251  50.529  1.00  0.00     0.009 A 
HETATM    9  C13 UNL     1      22.825   1.806  51.790  1.00  0.00    -0.040 A 
HETATM   10  C14 UNL     1      23.430   1.531  52.964  1.00  0.00     0.019 A 
HETATM   11  C15 UNL     1      24.559   1.872  52.402  1.00  0.00    -0.019 A 
HETATM   12  C16 UNL     1      21.535   1.073  52.102  1.00  0.00     0.153 C 
HETATM   13  N3  UNL     1      21.885  -0.286  52.322  1.00  0.00    -0.414 N 
HETATM   14  C17 UNL     1      22.380  -0.845  53.476  1.00  0.00     0.154 C 
HETATM   15  H18 UNL     1      22.098  -0.734  51.421  1.00  0.00     0.153 HD
ENDROOT
BRANCH   3  16
HETATM   16  N2  UNL     1      26.234   0.118  52.203  1.00  0.00    -0.382 N 
HETATM   17  H4  UNL     1      26.281   0.189  51.157  1.00  0.00     0.160 HD
BRANCH  16  18
HETATM   18  C5  UNL     1      26.953  -0.944  52.822  1.00  0.00     0.082 C 
HETATM   19  C6  UNL     1      28.274  -0.896  52.890  1.00  0.00     0.021 C 
BRANCH  19  20
HETATM   20  C7  UNL     1      29.228  -1.866  53.476  1.00  0.00     0.251 C 
HETATM   21  F1  UNL     1      30.396  -1.305  53.903  1.00  0.00    -0.251 F 
ENDBRANCH  19  20
ENDBRANCH  16  18
ENDBRANCH   3  16
BRANCH   1  22
HETATM   22  C1  UNL     1      23.773  -1.428  55.317  1.00  0.00     0.115 C 
HETATM   23  N1  UNL     1      24.766  -1.571  56.122  1.00  0.00    -0.312 NA
HETATM   24  H1  UNL     1      24.881  -2.119  56.961  1.00  0.00     0.186 HD
ENDBRANCH   1  22
TORSDOF 4
ENDMDL
MODEL 3
REMARK VINA RESULT:      -7.1      1.194      1.737
REMARK  4 active torsions:
REMARK  status: ('A' for Active; 'I' for Inactive)
REMARK    1  A    between atoms: C1_2  and  C2_3 
REMARK    2  A    between atoms: C4_5  and  N2_6 
REMARK    3  A    between atoms: N2_6  and  C5_7 
REMARK    4  A    between atoms: C6_8  and  C7_9 
ROOT
HETATM    1  C2  UNL     1      25.445   1.348  53.383  1.00  0.00    -0.025 C 
HETATM    2  C3  UNL     1      25.115   2.538  52.802  1.00  0.00     0.019 C 
HETATM    3  C4  UNL     1      24.051   2.903  51.957  1.00  0.00     0.076 C 
HETATM    4  C8  UNL     1      23.421   4.205  51.747  1.00  0.00     0.045 C 
HETATM    5  C9  UNL     1      22.570   3.784  50.473  1.00  0.00     0.042 C 
HETATM    6  C10 UNL     1      22.151   2.402  50.866  1.00  0.00    -0.049 A 
HETATM    7  C11 UNL     1      21.385   1.227  50.646  1.00  0.00     0.008 A 
HETATM    8  C12 UNL     1      21.430   0.159  51.554  1.00  0.00     0.009 A 
HETATM    9  C13 UNL     1      22.258   0.422  52.603  1.00  0.00    -0.040 A 
HETATM   10  C14 UNL     1      23.072   1.378  53.098  1.00  0.00     0.019 A 
HETATM   11  C15 UNL     1      22.773   2.101  52.051  1.00  0.00    -0.019 A 
HETATM   12  C16 UNL     1      22.785  -0.700  53.476  1.00  0.00     0.153 C 
HETATM   13  N3  UNL     1      24.166  -0.834  53.173  1.00  0.00    -0.414 N 
HETATM   14  C17 UNL     1      25.206  -0.082  53.663  1.00  0.00     0.154 C 
HETATM   15  H18 UNL     1      24.272  -1.293  52.258  1.00  0.00     0.153 HD
ENDROOT
BRANCH   3  16
HETATM   16  N2  UNL     1      24.614   2.633  50.552  1.00  0.00    -0.382 N 
HETATM   17  H4  UNL     1      24.179   2.130  49.740  1.00  0.00     0.160 HD
BRANCH  16  18
HETATM   18  C5  UNL     1      25.923   3.164  50.372  1.00  0.00     0.082 C 
HETATM   19  C6  UNL     1      26.182   3.948  49.337  1.00  0.00     0.021 C 
BRANCH  19  20
HETATM   20  C7  UNL     1      27.447   4.610  48.943  1.00  0.00     0.251 C 
HETATM   21  F1  UNL     1      27.278   5.670  48.102  1.00  0.00    -0.251 F 
ENDBRANCH  19  20
ENDBRANCH  16  18
ENDBRANCH   3  16
BRANCH   1  22
HETATM   22  C1  UNL     1      26.706   1.705  54.144  1.00  0.00     0.115 C 
HETATM   23  N1  UNL     1      27.543   2.646  53.888  1.00  0.00    -0.312 NA
HETATM   24  H1  UNL     1      28.393   2.937  54.345  1.00  0.00     0.186 HD
ENDBRANCH   1  22
TORSDOF 4
ENDMDL
MODEL 4
REMARK VINA RESULT:      -7.0      2.302      2.935
REMARK  4 active torsions:
REMARK  status: ('A' for Active; 'I' for Inactive)
REMARK    1  A    between atoms: C1_2  and  C2_3 
REMARK    2  A    between atoms: C4_5  and  N2_6 
REMARK    3  A    between atoms: N2_6  and  C5_7 
REMARK    4  A    between atoms: C6_8  and  C7_9 
ROOT
HETATM    1  C2  UNL     1      25.697   1.832  51.521  1.00  0.00    -0.025 C 
HETATM    2  C3  UNL     1      24.516   2.514  51.456  1.00  0.00     0.019 C 
HETATM    3  C4  UNL     1      23.218   2.177  51.882  1.00  0.00     0.076 C 
HETATM    4  C8  UNL     1      22.103   3.040  52.268  1.00  0.00     0.045 C 
HETATM    5  C9  UNL     1      21.000   1.896  52.298  1.00  0.00     0.042 C 
HETATM    6  C10 UNL     1      21.787   0.770  52.894  1.00  0.00    -0.049 A 
HETATM    7  C11 UNL     1      21.864  -0.537  53.441  1.00  0.00     0.008 A 
HETATM    8  C12 UNL     1      23.080  -1.046  53.920  1.00  0.00     0.009 A 
HETATM    9  C13 UNL     1      24.091  -0.142  53.789  1.00  0.00    -0.040 A 
HETATM   10  C14 UNL     1      24.346   1.110  53.356  1.00  0.00     0.019 A 
HETATM   11  C15 UNL     1      23.085   1.194  53.022  1.00  0.00    -0.019 A 
HETATM   12  C16 UNL     1      25.540  -0.586  53.847  1.00  0.00     0.153 C 
HETATM   13  N3  UNL     1      26.050  -0.472  52.526  1.00  0.00    -0.414 N 
HETATM   14  C17 UNL     1      26.514   0.662  51.904  1.00  0.00     0.154 C 
HETATM   15  H18 UNL     1      25.680  -1.240  51.949  1.00  0.00     0.153 HD
ENDROOT
BRANCH   3  16
HETATM   16  N2  UNL     1      22.619   1.477  50.651  1.00  0.00    -0.382 N 
HETATM   17  H4  UNL     1      22.170   0.532  50.569  1.00  0.00     0.160 HD
BRANCH  16  18
HETATM   18  C5  UNL     1      22.708   2.268  49.470  1.00  0.00     0.082 C 
HETATM   19  C6  UNL     1      21.703   2.284  48.608  1.00  0.00     0.021 C 
BRANCH  19  20
HETATM   20  C7  UNL     1      21.564   3.017  47.328  1.00  0.00     0.251 C 
HETATM   21  F1  UNL     1      22.486   2.667  46.386  1.00  0.00    -0.251 F 
ENDBRANCH  19  20
ENDBRANCH  16  18
ENDBRANCH   3  16
BRANCH   1  22
HETATM   22  C1  UNL     1      26.661   2.803  50.869  1.00  0.00     0.115 C 
HETATM   23  N1  UNL     1      26.418   3.992  50.446  1.00  0.00    -0.312 NA
HETATM   24  H1  UNL     1      27.003   4.686  50.007  1.00  0.00     0.186 HD
ENDBRANCH   1  22
TORSDOF 4
ENDMDL
MODEL 5
REMARK VINA RESULT:      -6.9      4.396      6.557
REMARK  4 active torsions:
REMARK  status: ('A' for Active; 'I' for Inactive)
REMARK    1  A    between atoms: C1_2  and  C2_3 
REMARK    2  A    between atoms: C4_5  and  N2_6 
REMARK    3  A    between atoms: N2_6  and  C5_7 
REMARK    4  A    between atoms: C6_8  and  C7_9 
ROOT
HETATM    1  C2  UNL     1      19.580  -0.352  52.956  1.00  0.00    -0.025 C 
HETATM    2  C3  UNL     1      19.733   0.206  51.721  1.00  0.00     0.019 C 
HETATM    3  C4  UNL     1      20.815   0.884  51.129  1.00  0.00     0.076 C 
HETATM    4  C8  UNL     1      21.174   1.032  49.720  1.00  0.00     0.045 C 
HETATM    5  C9  UNL     1      22.288   2.144  49.939  1.00  0.00     0.042 C 
HETATM    6  C10 UNL     1      22.927   1.649  51.199  1.00  0.00    -0.049 A 
HETATM    7  C11 UNL     1      23.953   1.713  52.178  1.00  0.00     0.008 A 
HETATM    8  C12 UNL     1      23.995   0.792  53.235  1.00  0.00     0.009 A 
HETATM    9  C13 UNL     1      22.973  -0.107  53.164  1.00  0.00    -0.040 A 
HETATM   10  C14 UNL     1      21.905  -0.440  52.410  1.00  0.00     0.019 A 
HETATM   11  C15 UNL     1      22.204   0.568  51.634  1.00  0.00    -0.019 A 
HETATM   12  C16 UNL     1      22.569  -0.920  54.378  1.00  0.00     0.153 C 
HETATM   13  N3  UNL     1      21.316  -0.408  54.808  1.00  0.00    -0.414 N 
HETATM   14  C17 UNL     1      20.073  -0.708  54.302  1.00  0.00     0.154 C 
HETATM   15  H18 UNL     1      21.458   0.498  55.274  1.00  0.00     0.153 HD
ENDROOT
BRANCH   3  16
HETATM   16  N2  UNL     1      20.554   2.352  51.507  1.00  0.00    -0.382 N 
HETATM   17  H4  UNL     1      21.235   3.124  51.709  1.00  0.00     0.160 HD
BRANCH  16  18
HETATM   18  C5  UNL     1      19.166   2.663  51.583  1.00  0.00     0.082 C 
HETATM   19  C6  UNL     1      18.696   3.740  50.974  1.00  0.00     0.021 C 
BRANCH  19  20
HETATM   20  C7  UNL     1      17.312   4.264  50.909  1.00  0.00     0.251 C 
HETATM   21  F1  UNL     1      16.701   4.364  52.124  1.00  0.00    -0.251 F 
ENDBRANCH  19  20
ENDBRANCH  16  18
ENDBRANCH   3  16
BRANCH   1  22
HETATM   22  C1  UNL     1      18.167  -0.895  52.887  1.00  0.00     0.115 C 
HETATM   23  N1  UNL     1      17.429  -1.301  53.858  1.00  0.00    -0.312 NA
HETATM   24  H1  UNL     1      16.491  -1.671  53.885  1.00  0.00     0.186 HD
ENDBRANCH   1  22
TORSDOF 4
ENDMDL
MODEL 6
REMARK VINA RESULT:      -6.9      2.642      4.626
REMARK  4 active torsions:
REMARK  status: ('A' for Active; 'I' for Inactive)
REMARK    1  A    between atoms: C1_2  and  C2_3 
REMARK    2  A    between atoms: C4_5  and  N2_6 
REMARK    3  A    between atoms: N2_6  and  C5_7 
REMARK    4  A    between atoms: C6_8  and  C7_9 
ROOT
HETATM    1  C2  UNL     1      20.967   1.375  52.766  1.00  0.00    -0.025 C 
HETATM    2  C3  UNL     1      22.007   1.792  51.987  1.00  0.00     0.019 C 
HETATM    3  C4  UNL     1      23.395   1.586  52.094  1.00  0.00     0.076 C 
HETATM    4  C8  UNL     1      24.427   1.585  51.059  1.00  0.00     0.045 C 
HETATM    5  C9  UNL     1      25.669   1.585  52.050  1.00  0.00     0.042 C 
HETATM    6  C10 UNL     1      25.169   0.661  53.117  1.00  0.00    -0.049 A 
HETATM    7  C11 UNL     1      25.379  -0.104  54.294  1.00  0.00     0.008 A 
HETATM    8  C12 UNL     1      24.353  -0.898  54.827  1.00  0.00     0.009 A 
HETATM    9  C13 UNL     1      23.216  -0.823  54.080  1.00  0.00    -0.040 A 
HETATM   10  C14 UNL     1      22.713  -0.244  52.970  1.00  0.00     0.019 A 
HETATM   11  C15 UNL     1      23.869   0.347  52.818  1.00  0.00    -0.019 A 
HETATM   12  C16 UNL     1      21.879  -1.246  54.657  1.00  0.00     0.153 C 
HETATM   13  N3  UNL     1      21.130  -0.056  54.856  1.00  0.00    -0.414 N 
HETATM   14  C17 UNL     1      20.407   0.643  53.919  1.00  0.00     0.154 C 
HETATM   15  H18 UNL     1      21.497   0.445  55.677  1.00  0.00     0.153 HD
ENDROOT
BRANCH   3  16
HETATM   16  N2  UNL     1      23.858   2.776  52.951  1.00  0.00    -0.382 N 
HETATM   17  H4  UNL     1      24.555   2.808  53.735  1.00  0.00     0.160 HD
BRANCH  16  18
HETATM   18  C5  UNL     1      23.220   3.997  52.590  1.00  0.00     0.082 C 
HETATM   19  C6  UNL     1      23.881   4.908  51.893  1.00  0.00     0.021 C 
BRANCH  19  20
HETATM   20  C7  UNL     1      23.437   6.235  51.407  1.00  0.00     0.251 C 
HETATM   21  F1  UNL     1      24.435   7.162  51.339  1.00  0.00    -0.251 F 
ENDBRANCH  19  20
ENDBRANCH  16  18
ENDBRANCH   3  16
BRANCH   1  22
HETATM   22  C1  UNL     1      19.773   1.974  52.049  1.00  0.00     0.115 C 
HETATM   23  N1  UNL     1      19.320   3.174  52.137  1.00  0.00    -0.312 NA
HETATM   24  H1  UNL     1      18.540   3.636  51.695  1.00  0.00     0.186 HD
ENDBRANCH   1  22
TORSDOF 4
ENDMDL
MODEL 7
REMARK VINA RESULT:      -6.7      2.827      3.831
REMARK  4 active torsions:
REMARK  status: ('A' for Active; 'I' for Inactive)
REMARK    1  A    between atoms: C1_2  and  C2_3 
REMARK    2  A    between atoms: C4_5  and  N2_6 
REMARK    3  A    between atoms: N2_6  and  C5_7 
REMARK    4  A    between atoms: C6_8  and  C7_9 
ROOT
HETATM    1  C2  UNL     1      23.765   1.096  52.976  1.00  0.00    -0.025 C 
HETATM    2  C3  UNL     1      22.720   1.814  52.471  1.00  0.00     0.019 C 
HETATM    3  C4  UNL     1      21.347   1.522  52.371  1.00  0.00     0.076 C 
HETATM    4  C8  UNL     1      20.197   2.422  52.309  1.00  0.00     0.045 C 
HETATM    5  C9  UNL     1      19.129   1.313  51.913  1.00  0.00     0.042 C 
HETATM    6  C10 UNL     1      19.595   0.168  52.757  1.00  0.00    -0.049 A 
HETATM    7  C11 UNL     1      19.416  -1.137  53.286  1.00  0.00     0.008 A 
HETATM    8  C12 UNL     1      20.343  -1.679  54.188  1.00  0.00     0.009 A 
HETATM    9  C13 UNL     1      21.356  -0.809  54.456  1.00  0.00    -0.040 A 
HETATM   10  C14 UNL     1      21.796   0.431  54.158  1.00  0.00     0.019 A 
HETATM   11  C15 UNL     1      20.760   0.552  53.371  1.00  0.00    -0.019 A 
HETATM   12  C16 UNL     1      22.660  -1.298  55.057  1.00  0.00     0.153 C 
HETATM   13  N3  UNL     1      23.636  -1.210  54.029  1.00  0.00    -0.414 N 
HETATM   14  C17 UNL     1      24.337  -0.096  53.635  1.00  0.00     0.154 C 
HETATM   15  H18 UNL     1      23.489  -1.971  53.351  1.00  0.00     0.153 HD
ENDROOT
BRANCH   3  16
HETATM   16  N2  UNL     1      21.237   0.832  51.001  1.00  0.00    -0.382 N 
HETATM   17  H4  UNL     1      20.653   0.010  50.708  1.00  0.00     0.160 HD
BRANCH  16  18
HETATM   18  C5  UNL     1      22.071   1.431  50.014  1.00  0.00     0.082 C 
HETATM   19  C6  UNL     1      21.685   1.452  48.748  1.00  0.00     0.021 C 
BRANCH  19  20
HETATM   20  C7  UNL     1      22.369   2.009  47.558  1.00  0.00     0.251 C 
HETATM   21  F1  UNL     1      22.981   3.208  47.782  1.00  0.00    -0.251 F 
ENDBRANCH  19  20
ENDBRANCH  16  18
ENDBRANCH   3  16
BRANCH   1  22
HETATM   22  C1  UNL     1      24.935   2.031  52.743  1.00  0.00     0.115 C 
HETATM   23  N1  UNL     1      25.346   2.984  53.501  1.00  0.00    -0.312 NA
HETATM   24  H1  UNL     1      26.107   3.639  53.410  1.00  0.00     0.186 HD
ENDBRANCH   1  22
TORSDOF 4
ENDMDL
MODEL 8
REMARK VINA RESULT:      -6.6      3.061      5.175
REMARK  4 active torsions:
REMARK  status: ('A' for Active; 'I' for Inactive)
REMARK    1  A    between atoms: C1_2  and  C2_3 
REMARK    2  A    between atoms: C4_5  and  N2_6 
REMARK    3  A    between atoms: N2_6  and  C5_7 
REMARK    4  A    between atoms: C6_8  and  C7_9 
ROOT
HETATM    1  C2  UNL     1      23.748   3.411  51.559  1.00  0.00    -0.025 C 
HETATM    2  C3  UNL     1      22.883   2.624  52.264  1.00  0.00     0.019 C 
HETATM    3  C4  UNL     1      23.017   1.324  52.787  1.00  0.00     0.076 C 
HETATM    4  C8  UNL     1      22.340   0.692  53.917  1.00  0.00     0.045 C 
HETATM    5  C9  UNL     1      22.837  -0.786  53.613  1.00  0.00     0.042 C 
HETATM    6  C10 UNL     1      24.242  -0.520  53.172  1.00  0.00    -0.049 A 
HETATM    7  C11 UNL     1      25.535  -0.976  52.805  1.00  0.00     0.008 A 
HETATM    8  C12 UNL     1      26.558  -0.067  52.502  1.00  0.00     0.009 A 
HETATM    9  C13 UNL     1      26.138   1.224  52.619  1.00  0.00    -0.040 A 
HETATM   10  C14 UNL     1      25.055   1.962  52.939  1.00  0.00     0.019 A 
HETATM   11  C15 UNL     1      24.409   0.840  53.119  1.00  0.00    -0.019 A 
HETATM   12  C16 UNL     1      26.910   2.354  51.964  1.00  0.00     0.153 C 
HETATM   13  N3  UNL     1      26.116   2.806  50.876  1.00  0.00    -0.414 N 
HETATM   14  C17 UNL     1      25.053   3.676  50.922  1.00  0.00     0.154 C 
HETATM   15  H18 UNL     1      26.168   2.124  50.108  1.00  0.00     0.153 HD
ENDROOT
BRANCH   3  16
HETATM   16  N2  UNL     1      22.526   0.434  51.633  1.00  0.00    -0.382 N 
HETATM   17  H4  UNL     1      22.887  -0.494  51.301  1.00  0.00     0.160 HD
BRANCH  16  18
HETATM   18  C5  UNL     1      21.415   0.993  50.939  1.00  0.00     0.082 C 
HETATM   19  C6  UNL     1      20.233   0.400  50.998  1.00  0.00     0.021 C 
BRANCH  19  20
HETATM   20  C7  UNL     1      18.948   0.785  50.371  1.00  0.00     0.251 C 
HETATM   21  F1  UNL     1      17.962  -0.148  50.509  1.00  0.00    -0.251 F 
ENDBRANCH  19  20
ENDBRANCH  16  18
ENDBRANCH   3  16
BRANCH   1  22
HETATM   22  C1  UNL     1      22.926   4.664  51.335  1.00  0.00     0.115 C 
HETATM   23  N1  UNL     1      22.907   5.734  52.047  1.00  0.00    -0.312 NA
HETATM   24  H1  UNL     1      22.391   6.595  51.959  1.00  0.00     0.186 HD
ENDBRANCH   1  22
TORSDOF 4
ENDMDL
MODEL 9
REMARK VINA RESULT:      -6.5      2.965      4.869
REMARK  4 active torsions:
REMARK  status: ('A' for Active; 'I' for Inactive)
REMARK    1  A    between atoms: C1_2  and  C2_3 
REMARK    2  A    between atoms: C4_5  and  N2_6 
REMARK    3  A    between atoms: N2_6  and  C5_7 
REMARK    4  A    between atoms: C6_8  and  C7_9 
ROOT
HETATM    1  C2  UNL     1      21.102   2.680  51.825  1.00  0.00    -0.025 C 
HETATM    2  C3  UNL     1      22.084   3.189  51.026  1.00  0.00     0.019 C 
HETATM    3  C4  UNL     1      23.472   2.961  50.990  1.00  0.00     0.076 C 
HETATM    4  C8  UNL     1      24.418   3.090  49.883  1.00  0.00     0.045 C 
HETATM    5  C9  UNL     1      25.735   2.947  50.761  1.00  0.00     0.042 C 
HETATM    6  C10 UNL     1      25.305   1.893  51.733  1.00  0.00    -0.049 A 
HETATM    7  C11 UNL     1      25.594   0.976  52.777  1.00  0.00     0.008 A 
HETATM    8  C12 UNL     1      24.599   0.126  53.282  1.00  0.00     0.009 A 
HETATM    9  C13 UNL     1      23.408   0.309  52.647  1.00  0.00    -0.040 A 
HETATM   10  C14 UNL     1      22.828   1.034  51.669  1.00  0.00     0.019 A 
HETATM   11  C15 UNL     1      23.979   1.632  51.502  1.00  0.00    -0.019 A 
HETATM   12  C16 UNL     1      22.114  -0.177  53.270  1.00  0.00     0.153 C 
HETATM   13  N3  UNL     1      21.406   0.982  53.686  1.00  0.00    -0.414 N 
HETATM   14  C17 UNL     1      20.622   1.805  52.913  1.00  0.00     0.154 C 
HETATM   15  H18 UNL     1      21.846   1.365  54.533  1.00  0.00     0.153 HD
ENDROOT
BRANCH   3  16
HETATM   16  N2  UNL     1      24.025   4.022  51.956  1.00  0.00    -0.382 N 
HETATM   17  H4  UNL     1      24.754   3.932  52.705  1.00  0.00     0.160 HD
BRANCH  16  18
HETATM   18  C5  UNL     1      23.427   5.301  51.770  1.00  0.00     0.082 C 
HETATM   19  C6  UNL     1      24.130   6.287  51.235  1.00  0.00     0.021 C 
BRANCH  19  20
HETATM   20  C7  UNL     1      23.734   7.684  50.945  1.00  0.00     0.251 C 
HETATM   21  F1  UNL     1      22.385   7.875  50.877  1.00  0.00    -0.251 F 
ENDBRANCH  19  20
ENDBRANCH  16  18
ENDBRANCH   3  16
BRANCH   1  22
HETATM   22  C1  UNL     1      19.866   3.379  51.293  1.00  0.00     0.115 C 
HETATM   23  N1  UNL     1      18.763   3.608  51.911  1.00  0.00    -0.312 NA
HETATM   24  H1  UNL     1      17.909   4.061  51.623  1.00  0.00     0.186 HD
ENDBRANCH   1  22
TORSDOF 4
ENDMDL
