MODEL 1
REMARK VINA RESULT:      -8.2      0.000      0.000
REMARK  9 active torsions:
REMARK  status: ('A' for Active; 'I' for Inactive)
REMARK    1  A    between atoms: O1_2  and  C2_3 
REMARK    2  A    between atoms: C3_4  and  C4_5 
REMARK    3  A    between atoms: C6_9  and  N3_10 
REMARK    4  A    between atoms: N3_10  and  C7_11 
REMARK    5  A    between atoms: C15_21  and  O2_22 
REMARK    6  A    between atoms: O2_22  and  C16_23 
REMARK    7  A    between atoms: C16_23  and  C17_24 
REMARK    8  A    between atoms: C17_24  and  C18_25 
REMARK    9  A    between atoms: C18_25  and  N4_26 
ROOT
HETATM    1  C4  UNL     1      24.254   3.928  50.430  1.00  0.00     0.079 A 
HETATM    2  N1  UNL     1      25.003   4.169  49.339  1.00  0.00    -0.241 NA
HETATM    3  C5  UNL     1      26.324   3.821  49.344  1.00  0.00     0.236 A 
HETATM    4  N2  UNL     1      26.850   3.245  50.439  1.00  0.00    -0.224 NA
HETATM    5  C6  UNL     1      26.187   2.970  51.561  1.00  0.00     0.137 A 
HETATM    6  C13 UNL     1      24.868   3.343  51.492  1.00  0.00     0.013 A 
HETATM    7  C14 UNL     1      24.002   3.091  52.677  1.00  0.00     0.055 C 
ENDROOT
BRANCH   1   8
HETATM    8  C3  UNL     1      22.820   4.292  50.455  1.00  0.00     0.039 A 
HETATM    9  C2  UNL     1      21.971   5.284  50.726  1.00  0.00     0.091 A 
HETATM   10  C15 UNL     1      21.351   4.000  50.256  1.00  0.00     0.216 A 
BRANCH   9  11
HETATM   11  O1  UNL     1      21.609   6.551  51.122  1.00  0.00    -0.356 OA
HETATM   12  C1  UNL     1      21.029   7.521  50.276  1.00  0.00     0.209 C 
ENDBRANCH   9  11
BRANCH  10  13
HETATM   13  O2  UNL     1      20.868   3.122  51.166  1.00  0.00    -0.374 OA
BRANCH  13  14
HETATM   14  C16 UNL     1      20.541   1.907  50.696  1.00  0.00     0.170 C 
BRANCH  14  15
HETATM   15  C17 UNL     1      20.473   0.834  51.707  1.00  0.00     0.056 C 
BRANCH  15  16
HETATM   16  C18 UNL     1      21.724   0.108  51.980  1.00  0.00     0.274 C 
BRANCH  16  17
HETATM   17  N4  UNL     1      22.008   0.300  53.430  1.00  0.00     0.092 N 
HETATM   18  C19 UNL     1      20.799  -0.106  54.123  1.00  0.00     0.298 C 
HETATM   19  C20 UNL     1      20.782  -1.605  54.350  1.00  0.00     0.198 C 
HETATM   20  O3  UNL     1      21.885  -2.088  55.011  1.00  0.00    -0.388 OA
HETATM   21  C21 UNL     1      22.882  -1.129  55.118  1.00  0.00     0.198 C 
HETATM   22  C22 UNL     1      23.106  -0.613  53.698  1.00  0.00     0.298 C 
ENDBRANCH  16  17
ENDBRANCH  15  16
ENDBRANCH  14  15
ENDBRANCH  13  14
ENDBRANCH  10  13
ENDBRANCH   1   8
BRANCH   5  23
HETATM   23  N3  UNL     1      26.693   2.366  52.732  1.00  0.00    -0.340 N 
HETATM   24  H5  UNL     1      26.294   2.951  53.465  1.00  0.00     0.167 HD
BRANCH  23  25
HETATM   25  C7  UNL     1      27.534   1.252  52.987  1.00  0.00     0.035 A 
HETATM   26  C8  UNL     1      28.770   1.511  53.539  1.00  0.00     0.032 A 
HETATM   27  C9  UNL     1      29.612   0.461  53.813  1.00  0.00     0.046 A 
HETATM   28  C10 UNL     1      29.214  -0.846  53.533  1.00  0.00     0.138 A 
HETATM   29  F1  UNL     1      30.062  -1.870  53.814  1.00  0.00    -0.204 F 
HETATM   30  C11 UNL     1      27.980  -1.108  52.981  1.00  0.00     0.074 A 
HETATM   31 CL1  UNL     1      27.430  -2.712  52.609  1.00  0.00    -0.081 Cl
HETATM   32  C12 UNL     1      27.119  -0.042  52.699  1.00  0.00     0.056 A 
ENDBRANCH  23  25
ENDBRANCH   5  23
TORSDOF 9
ENDMDL
MODEL 2
REMARK VINA RESULT:      -8.0      3.855      6.401
REMARK  9 active torsions:
REMARK  status: ('A' for Active; 'I' for Inactive)
REMARK    1  A    between atoms: O1_2  and  C2_3 
REMARK    2  A    between atoms: C3_4  and  C4_5 
REMARK    3  A    between atoms: C6_9  and  N3_10 
REMARK    4  A    between atoms: N3_10  and  C7_11 
REMARK    5  A    between atoms: C15_21  and  O2_22 
REMARK    6  A    between atoms: O2_22  and  C16_23 
REMARK    7  A    between atoms: C16_23  and  C17_24 
REMARK    8  A    between atoms: C17_24  and  C18_25 
REMARK    9  A    between atoms: C18_25  and  N4_26 
ROOT
HETATM    1  C4  UNL     1      22.186   1.468  50.268  1.00  0.00     0.079 A 
HETATM    2  N1  UNL     1      21.806   1.266  48.994  1.00  0.00    -0.241 NA
HETATM    3  C5  UNL     1      22.302   2.075  48.011  1.00  0.00     0.236 A 
HETATM    4  N2  UNL     1      23.162   3.055  48.337  1.00  0.00    -0.224 NA
HETATM    5  C6  UNL     1      23.594   3.328  49.567  1.00  0.00     0.137 A 
HETATM    6  C13 UNL     1      23.059   2.481  50.507  1.00  0.00     0.013 A 
HETATM    7  C14 UNL     1      23.457   2.667  51.930  1.00  0.00     0.055 C 
ENDROOT
BRANCH   1   8
HETATM    8  C3  UNL     1      21.667   0.608  51.355  1.00  0.00     0.039 A 
HETATM    9  C2  UNL     1      20.565   0.289  52.034  1.00  0.00     0.091 A 
HETATM   10  C15 UNL     1      21.815  -0.440  52.433  1.00  0.00     0.216 A 
BRANCH   9  11
HETATM   11  O1  UNL     1      19.231   0.361  52.365  1.00  0.00    -0.356 OA
HETATM   12  C1  UNL     1      18.490  -0.691  52.944  1.00  0.00     0.209 C 
ENDBRANCH   9  11
BRANCH  10  13
HETATM   13  O2  UNL     1      22.535   0.001  53.491  1.00  0.00    -0.374 OA
BRANCH  13  14
HETATM   14  C16 UNL     1      23.532  -0.799  53.900  1.00  0.00     0.170 C 
BRANCH  14  15
HETATM   15  C17 UNL     1      24.876  -0.440  53.407  1.00  0.00     0.056 C 
BRANCH  15  16
HETATM   16  C18 UNL     1      25.849   0.007  54.418  1.00  0.00     0.274 C 
BRANCH  16  17
HETATM   17  N4  UNL     1      27.188  -0.078  53.769  1.00  0.00     0.092 N 
HETATM   18  C19 UNL     1      27.216   0.988  52.786  1.00  0.00     0.298 C 
HETATM   19  C20 UNL     1      27.634   2.300  53.420  1.00  0.00     0.198 C 
HETATM   20  O3  UNL     1      28.833   2.248  54.087  1.00  0.00    -0.388 OA
HETATM   21  C21 UNL     1      29.285   0.945  54.232  1.00  0.00     0.198 C 
HETATM   22  C22 UNL     1      28.122   0.176  54.855  1.00  0.00     0.298 C 
ENDBRANCH  16  17
ENDBRANCH  15  16
ENDBRANCH  14  15
ENDBRANCH  13  14
ENDBRANCH  10  13
ENDBRANCH   1   8
BRANCH   5  23
HETATM   23  N3  UNL     1      24.495   4.342  49.957  1.00  0.00    -0.340 N 
HETATM   24  H5  UNL     1      24.184   4.553  50.905  1.00  0.00     0.167 HD
BRANCH  23  25
HETATM   25  C7  UNL     1      25.584   4.995  49.324  1.00  0.00     0.035 A 
HETATM   26  C8  UNL     1      26.771   4.299  49.240  1.00  0.00     0.032 A 
HETATM   27  C9  UNL     1      27.848   4.889  48.625  1.00  0.00     0.046 A 
HETATM   28  C10 UNL     1      27.734   6.174  48.096  1.00  0.00     0.138 A 
HETATM   29  F1  UNL     1      28.811   6.738  47.491  1.00  0.00    -0.204 F 
HETATM   30  C11 UNL     1      26.550   6.872  48.179  1.00  0.00     0.074 A 
HETATM   31 CL1  UNL     1      26.348   8.474  47.543  1.00  0.00    -0.081 Cl
HETATM   32  C12 UNL     1      25.450   6.276  48.806  1.00  0.00     0.056 A 
ENDBRANCH  23  25
ENDBRANCH   5  23
TORSDOF 9
ENDMDL
MODEL 3
REMARK VINA RESULT:      -7.7      4.551      8.275
REMARK  9 active torsions:
REMARK  status: ('A' for Active; 'I' for Inactive)
REMARK    1  A    between atoms: O1_2  and  C2_3 
REMARK    2  A    between atoms: C3_4  and  C4_5 
REMARK    3  A    between atoms: C6_9  and  N3_10 
REMARK    4  A    between atoms: N3_10  and  C7_11 
REMARK    5  A    between atoms: C15_21  and  O2_22 
REMARK    6  A    between atoms: O2_22  and  C16_23 
REMARK    7  A    between atoms: C16_23  and  C17_24 
REMARK    8  A    between atoms: C17_24  and  C18_25 
REMARK    9  A    between atoms: C18_25  and  N4_26 
ROOT
HETATM    1  C4  UNL     1      21.742   0.085  52.394  1.00  0.00     0.079 A 
HETATM    2  N1  UNL     1      22.601  -0.675  53.096  1.00  0.00    -0.241 NA
HETATM    3  C5  UNL     1      22.117  -1.538  54.038  1.00  0.00     0.236 A 
HETATM    4  N2  UNL     1      20.790  -1.610  54.244  1.00  0.00    -0.224 NA
HETATM    5  C6  UNL     1      19.868  -0.899  53.598  1.00  0.00     0.137 A 
HETATM    6  C13 UNL     1      20.419  -0.054  52.667  1.00  0.00     0.013 A 
HETATM    7  C14 UNL     1      19.502   0.803  51.864  1.00  0.00     0.055 C 
ENDROOT
BRANCH   1   8
HETATM    8  C3  UNL     1      22.237   1.027  51.366  1.00  0.00     0.039 A 
HETATM    9  C2  UNL     1      22.133   1.360  50.079  1.00  0.00     0.091 A 
HETATM   10  C15 UNL     1      23.082   2.189  50.896  1.00  0.00     0.216 A 
BRANCH   9  11
HETATM   11  O1  UNL     1      21.658   1.257  48.792  1.00  0.00    -0.356 OA
HETATM   12  C1  UNL     1      20.750   2.159  48.196  1.00  0.00     0.209 C 
ENDBRANCH   9  11
BRANCH  10  13
HETATM   13  O2  UNL     1      24.403   1.898  50.881  1.00  0.00    -0.374 OA
BRANCH  13  14
HETATM   14  C16 UNL     1      25.228   2.919  50.599  1.00  0.00     0.170 C 
BRANCH  14  15
HETATM   15  C17 UNL     1      26.560   2.850  51.232  1.00  0.00     0.056 C 
BRANCH  15  16
HETATM   16  C18 UNL     1      26.967   1.540  51.766  1.00  0.00     0.274 C 
BRANCH  16  17
HETATM   17  N4  UNL     1      27.463   1.793  53.149  1.00  0.00     0.092 N 
HETATM   18  C19 UNL     1      26.319   1.595  54.018  1.00  0.00     0.298 C 
HETATM   19  C20 UNL     1      26.153   0.131  54.372  1.00  0.00     0.198 C 
HETATM   20  O3  UNL     1      27.269  -0.445  54.930  1.00  0.00    -0.388 OA
HETATM   21  C21 UNL     1      28.379   0.381  54.830  1.00  0.00     0.198 C 
HETATM   22  C22 UNL     1      28.471   0.765  53.354  1.00  0.00     0.298 C 
ENDBRANCH  16  17
ENDBRANCH  15  16
ENDBRANCH  14  15
ENDBRANCH  13  14
ENDBRANCH  10  13
ENDBRANCH   1   8
BRANCH   5  23
HETATM   23  N3  UNL     1      18.468  -0.942  53.776  1.00  0.00    -0.340 N 
HETATM   24  H5  UNL     1      18.301  -0.124  54.362  1.00  0.00     0.167 HD
BRANCH  23  25
HETATM   25  C7  UNL     1      17.440  -1.813  53.332  1.00  0.00     0.035 A 
HETATM   26  C8  UNL     1      16.497  -1.286  52.477  1.00  0.00     0.032 A 
HETATM   27  C9  UNL     1      15.490  -2.096  52.012  1.00  0.00     0.046 A 
HETATM   28  C10 UNL     1      15.430  -3.433  52.406  1.00  0.00     0.138 A 
HETATM   29  F1  UNL     1      14.427  -4.218  51.934  1.00  0.00    -0.204 F 
HETATM   30  C11 UNL     1      16.371  -3.962  53.261  1.00  0.00     0.074 A 
HETATM   31 CL1  UNL     1      16.348  -5.616  53.788  1.00  0.00    -0.081 Cl
HETATM   32  C12 UNL     1      17.398  -3.140  53.737  1.00  0.00     0.056 A 
ENDBRANCH  23  25
ENDBRANCH   5  23
TORSDOF 9
ENDMDL
MODEL 4
REMARK VINA RESULT:      -7.7      2.256      5.491
REMARK  9 active torsions:
REMARK  status: ('A' for Active; 'I' for Inactive)
REMARK    1  A    between atoms: O1_2  and  C2_3 
REMARK    2  A    between atoms: C3_4  and  C4_5 
REMARK    3  A    between atoms: C6_9  and  N3_10 
REMARK    4  A    between atoms: N3_10  and  C7_11 
REMARK    5  A    between atoms: C15_21  and  O2_22 
REMARK    6  A    between atoms: O2_22  and  C16_23 
REMARK    7  A    between atoms: C16_23  and  C17_24 
REMARK    8  A    between atoms: C17_24  and  C18_25 
REMARK    9  A    between atoms: C18_25  and  N4_26 
ROOT
HETATM    1  C4  UNL     1      21.319  -0.481  53.627  1.00  0.00     0.079 A 
HETATM    2  N1  UNL     1      21.398  -1.151  54.791  1.00  0.00    -0.241 NA
HETATM    3  C5  UNL     1      22.626  -1.429  55.321  1.00  0.00     0.236 A 
HETATM    4  N2  UNL     1      23.731  -1.028  54.668  1.00  0.00    -0.224 NA
HETATM    5  C6  UNL     1      23.749  -0.363  53.514  1.00  0.00     0.137 A 
HETATM    6  C13 UNL     1      22.486  -0.115  53.036  1.00  0.00     0.013 A 
HETATM    7  C14 UNL     1      22.353   0.627  51.752  1.00  0.00     0.055 C 
ENDROOT
BRANCH   1   8
HETATM    8  C3  UNL     1      20.003  -0.164  53.029  1.00  0.00     0.039 A 
HETATM    9  C2  UNL     1      18.765  -0.628  52.857  1.00  0.00     0.091 A 
HETATM   10  C15 UNL     1      19.048   0.722  52.263  1.00  0.00     0.216 A 
BRANCH   9  11
HETATM   11  O1  UNL     1      17.737  -1.535  52.980  1.00  0.00    -0.356 OA
HETATM   12  C1  UNL     1      17.817  -2.744  53.703  1.00  0.00     0.209 C 
ENDBRANCH   9  11
BRANCH  10  13
HETATM   13  O2  UNL     1      19.367   0.820  50.952  1.00  0.00    -0.374 OA
BRANCH  13  14
HETATM   14  C16 UNL     1      18.987   1.950  50.336  1.00  0.00     0.170 C 
BRANCH  14  15
HETATM   15  C17 UNL     1      20.065   2.927  50.084  1.00  0.00     0.056 C 
BRANCH  15  16
HETATM   16  C18 UNL     1      20.329   3.905  51.153  1.00  0.00     0.274 C 
BRANCH  16  17
HETATM   17  N4  UNL     1      21.456   4.751  50.671  1.00  0.00     0.092 N 
HETATM   18  C19 UNL     1      22.138   5.214  51.865  1.00  0.00     0.298 C 
HETATM   19  C20 UNL     1      23.145   4.189  52.347  1.00  0.00     0.198 C 
HETATM   20  O3  UNL     1      24.066   3.814  51.398  1.00  0.00    -0.388 OA
HETATM   21  C21 UNL     1      23.727   4.283  50.138  1.00  0.00     0.198 C 
HETATM   22  C22 UNL     1      22.285   3.832  49.909  1.00  0.00     0.298 C 
ENDBRANCH  16  17
ENDBRANCH  15  16
ENDBRANCH  14  15
ENDBRANCH  13  14
ENDBRANCH  10  13
ENDBRANCH   1   8
BRANCH   5  23
HETATM   23  N3  UNL     1      24.879   0.080  52.795  1.00  0.00    -0.340 N 
HETATM   24  H5  UNL     1      24.542   0.063  51.833  1.00  0.00     0.167 HD
BRANCH  23  25
HETATM   25  C7  UNL     1      26.192   0.477  53.160  1.00  0.00     0.035 A 
HETATM   26  C8  UNL     1      26.389   1.811  53.444  1.00  0.00     0.032 A 
HETATM   27  C9  UNL     1      27.641   2.237  53.813  1.00  0.00     0.046 A 
HETATM   28  C10 UNL     1      28.694   1.326  53.896  1.00  0.00     0.138 A 
HETATM   29  F1  UNL     1      29.924   1.768  54.265  1.00  0.00    -0.204 F 
HETATM   30  C11 UNL     1      28.500  -0.007  53.612  1.00  0.00     0.074 A 
HETATM   31 CL1  UNL     1      29.771  -1.187  53.695  1.00  0.00    -0.081 Cl
HETATM   32  C12 UNL     1      27.227  -0.446  53.235  1.00  0.00     0.056 A 
ENDBRANCH  23  25
ENDBRANCH   5  23
TORSDOF 9
ENDMDL
MODEL 5
REMARK VINA RESULT:      -7.6      2.205      5.504
REMARK  9 active torsions:
REMARK  status: ('A' for Active; 'I' for Inactive)
REMARK    1  A    between atoms: O1_2  and  C2_3 
REMARK    2  A    between atoms: C3_4  and  C4_5 
REMARK    3  A    between atoms: C6_9  and  N3_10 
REMARK    4  A    between atoms: N3_10  and  C7_11 
REMARK    5  A    between atoms: C15_21  and  O2_22 
REMARK    6  A    between atoms: O2_22  and  C16_23 
REMARK    7  A    between atoms: C16_23  and  C17_24 
REMARK    8  A    between atoms: C17_24  and  C18_25 
REMARK    9  A    between atoms: C18_25  and  N4_26 
ROOT
HETATM    1  C4  UNL     1      21.671   0.272  53.318  1.00  0.00     0.079 A 
HETATM    2  N1  UNL     1      21.552  -0.485  54.424  1.00  0.00    -0.241 NA
HETATM    3  C5  UNL     1      22.667  -1.059  54.966  1.00  0.00     0.236 A 
HETATM    4  N2  UNL     1      23.861  -0.856  54.383  1.00  0.00    -0.224 NA
HETATM    5  C6  UNL     1      24.074  -0.125  53.290  1.00  0.00     0.137 A 
HETATM    6  C13 UNL     1      22.916   0.423  52.796  1.00  0.00     0.013 A 
HETATM    7  C14 UNL     1      23.003   1.272  51.575  1.00  0.00     0.055 C 
ENDROOT
BRANCH   1   8
HETATM    8  C3  UNL     1      20.481   0.908  52.709  1.00  0.00     0.039 A 
HETATM    9  C2  UNL     1      19.315   0.651  52.117  1.00  0.00     0.091 A 
HETATM   10  C15 UNL     1      19.658   2.103  52.289  1.00  0.00     0.216 A 
BRANCH   9  11
HETATM   11  O1  UNL     1      18.315  -0.146  51.610  1.00  0.00    -0.356 OA
HETATM   12  C1  UNL     1      17.705   0.035  50.350  1.00  0.00     0.209 C 
ENDBRANCH   9  11
BRANCH  10  13
HETATM   13  O2  UNL     1      20.216   2.782  51.260  1.00  0.00    -0.374 OA
BRANCH  13  14
HETATM   14  C16 UNL     1      20.026   4.111  51.260  1.00  0.00     0.170 C 
BRANCH  14  15
HETATM   15  C17 UNL     1      21.251   4.926  51.136  1.00  0.00     0.056 C 
BRANCH  15  16
HETATM   16  C18 UNL     1      22.102   4.658  49.965  1.00  0.00     0.274 C 
BRANCH  16  17
HETATM   17  N4  UNL     1      23.219   5.643  50.031  1.00  0.00     0.092 N 
HETATM   18  C19 UNL     1      24.125   5.141  51.046  1.00  0.00     0.298 C 
HETATM   19  C20 UNL     1      25.087   4.126  50.460  1.00  0.00     0.198 C 
HETATM   20  O3  UNL     1      25.802   4.585  49.380  1.00  0.00    -0.388 OA
HETATM   21  C21 UNL     1      25.316   5.799  48.919  1.00  0.00     0.198 C 
HETATM   22  C22 UNL     1      23.818   5.585  48.707  1.00  0.00     0.298 C 
ENDBRANCH  16  17
ENDBRANCH  15  16
ENDBRANCH  14  15
ENDBRANCH  13  14
ENDBRANCH  10  13
ENDBRANCH   1   8
BRANCH   5  23
HETATM   23  N3  UNL     1      25.305   0.119  52.645  1.00  0.00    -0.340 N 
HETATM   24  H5  UNL     1      25.006   0.505  51.750  1.00  0.00     0.167 HD
BRANCH  23  25
HETATM   25  C7  UNL     1      26.665  -0.067  53.005  1.00  0.00     0.035 A 
HETATM   26  C8  UNL     1      27.204  -1.318  52.800  1.00  0.00     0.032 A 
HETATM   27  C9  UNL     1      28.520  -1.539  53.123  1.00  0.00     0.046 A 
HETATM   28  C10 UNL     1      29.293  -0.506  53.652  1.00  0.00     0.138 A 
HETATM   29  F1  UNL     1      30.594  -0.745  53.964  1.00  0.00    -0.204 F 
HETATM   30  C11 UNL     1      28.758   0.745  53.859  1.00  0.00     0.074 A 
HETATM   31 CL1  UNL     1      29.668   2.070  54.515  1.00  0.00    -0.081 Cl
HETATM   32  C12 UNL     1      27.417   0.975  53.531  1.00  0.00     0.056 A 
ENDBRANCH  23  25
ENDBRANCH   5  23
TORSDOF 9
ENDMDL
MODEL 6
REMARK VINA RESULT:      -7.6      2.331      5.846
REMARK  9 active torsions:
REMARK  status: ('A' for Active; 'I' for Inactive)
REMARK    1  A    between atoms: O1_2  and  C2_3 
REMARK    2  A    between atoms: C3_4  and  C4_5 
REMARK    3  A    between atoms: C6_9  and  N3_10 
REMARK    4  A    between atoms: N3_10  and  C7_11 
REMARK    5  A    between atoms: C15_21  and  O2_22 
REMARK    6  A    between atoms: O2_22  and  C16_23 
REMARK    7  A    between atoms: C16_23  and  C17_24 
REMARK    8  A    between atoms: C17_24  and  C18_25 
REMARK    9  A    between atoms: C18_25  and  N4_26 
ROOT
HETATM    1  C4  UNL     1      21.556  -0.069  53.399  1.00  0.00     0.079 A 
HETATM    2  N1  UNL     1      21.507  -0.849  54.495  1.00  0.00    -0.241 NA
HETATM    3  C5  UNL     1      22.673  -1.268  55.071  1.00  0.00     0.236 A 
HETATM    4  N2  UNL     1      23.846  -0.893  54.532  1.00  0.00    -0.224 NA
HETATM    5  C6  UNL     1      23.991  -0.126  53.453  1.00  0.00     0.137 A 
HETATM    6  C13 UNL     1      22.785   0.261  52.923  1.00  0.00     0.013 A 
HETATM    7  C14 UNL     1      22.794   1.128  51.712  1.00  0.00     0.055 C 
ENDROOT
BRANCH   1   8
HETATM    8  C3  UNL     1      20.311   0.402  52.753  1.00  0.00     0.039 A 
HETATM    9  C2  UNL     1      19.108   0.010  52.334  1.00  0.00     0.091 A 
HETATM   10  C15 UNL     1      19.434   1.461  52.128  1.00  0.00     0.216 A 
BRANCH   9  11
HETATM   11  O1  UNL     1      18.088  -0.887  52.113  1.00  0.00    -0.356 OA
HETATM   12  C1  UNL     1      17.551  -1.749  53.093  1.00  0.00     0.209 C 
ENDBRANCH   9  11
BRANCH  10  13
HETATM   13  O2  UNL     1      19.897   1.875  50.925  1.00  0.00    -0.374 OA
BRANCH  13  14
HETATM   14  C16 UNL     1      19.651   3.156  50.609  1.00  0.00     0.170 C 
BRANCH  14  15
HETATM   15  C17 UNL     1      20.555   4.146  51.226  1.00  0.00     0.056 C 
BRANCH  15  16
HETATM   16  C18 UNL     1      20.804   5.377  50.458  1.00  0.00     0.274 C 
BRANCH  16  17
HETATM   17  N4  UNL     1      22.258   5.373  50.129  1.00  0.00     0.092 N 
HETATM   18  C19 UNL     1      22.487   6.574  49.349  1.00  0.00     0.298 C 
HETATM   19  C20 UNL     1      22.720   7.770  50.251  1.00  0.00     0.198 C 
HETATM   20  O3  UNL     1      23.735   7.602  51.160  1.00  0.00    -0.388 OA
HETATM   21  C21 UNL     1      24.170   6.286  51.209  1.00  0.00     0.198 C 
HETATM   22  C22 UNL     1      22.912   5.448  51.426  1.00  0.00     0.298 C 
ENDBRANCH  16  17
ENDBRANCH  15  16
ENDBRANCH  14  15
ENDBRANCH  13  14
ENDBRANCH  10  13
ENDBRANCH   1   8
BRANCH   5  23
HETATM   23  N3  UNL     1      25.197   0.295  52.854  1.00  0.00    -0.340 N 
HETATM   24  H5  UNL     1      24.863   0.866  52.077  1.00  0.00     0.167 HD
BRANCH  23  25
HETATM   25  C7  UNL     1      26.571   0.074  53.132  1.00  0.00     0.035 A 
HETATM   26  C8  UNL     1      27.078  -1.172  52.840  1.00  0.00     0.032 A 
HETATM   27  C9  UNL     1      28.406  -1.427  53.082  1.00  0.00     0.046 A 
HETATM   28  C10 UNL     1      29.222  -0.430  53.618  1.00  0.00     0.138 A 
HETATM   29  F1  UNL     1      30.533  -0.702  53.849  1.00  0.00    -0.204 F 
HETATM   30  C11 UNL     1      28.718   0.816  53.912  1.00  0.00     0.074 A 
HETATM   31 CL1  UNL     1      29.682   2.095  54.582  1.00  0.00    -0.081 Cl
HETATM   32  C12 UNL     1      27.366   1.080  53.667  1.00  0.00     0.056 A 
ENDBRANCH  23  25
ENDBRANCH   5  23
TORSDOF 9
ENDMDL
MODEL 7
REMARK VINA RESULT:      -7.5      4.573      7.784
REMARK  9 active torsions:
REMARK  status: ('A' for Active; 'I' for Inactive)
REMARK    1  A    between atoms: O1_2  and  C2_3 
REMARK    2  A    between atoms: C3_4  and  C4_5 
REMARK    3  A    between atoms: C6_9  and  N3_10 
REMARK    4  A    between atoms: N3_10  and  C7_11 
REMARK    5  A    between atoms: C15_21  and  O2_22 
REMARK    6  A    between atoms: O2_22  and  C16_23 
REMARK    7  A    between atoms: C16_23  and  C17_24 
REMARK    8  A    between atoms: C17_24  and  C18_25 
REMARK    9  A    between atoms: C18_25  and  N4_26 
ROOT
HETATM    1  C4  UNL     1      24.921   5.085  50.434  1.00  0.00     0.079 A 
HETATM    2  N1  UNL     1      23.993   5.527  51.303  1.00  0.00    -0.241 NA
HETATM    3  C5  UNL     1      23.524   4.682  52.268  1.00  0.00     0.236 A 
HETATM    4  N2  UNL     1      23.998   3.426  52.331  1.00  0.00    -0.224 NA
HETATM    5  C6  UNL     1      24.914   2.903  51.517  1.00  0.00     0.137 A 
HETATM    6  C13 UNL     1      25.344   3.801  50.572  1.00  0.00     0.013 A 
HETATM    7  C14 UNL     1      26.373   3.354  49.593  1.00  0.00     0.055 C 
ENDROOT
BRANCH   1   8
HETATM    8  C3  UNL     1      25.450   5.977  49.379  1.00  0.00     0.039 A 
HETATM    9  C2  UNL     1      25.111   6.660  48.285  1.00  0.00     0.091 A 
HETATM   10  C15 UNL     1      26.550   6.760  48.702  1.00  0.00     0.216 A 
BRANCH   9  11
HETATM   11  O1  UNL     1      24.258   7.120  47.308  1.00  0.00    -0.356 OA
HETATM   12  C1  UNL     1      22.852   7.007  47.352  1.00  0.00     0.209 C 
ENDBRANCH   9  11
BRANCH  10  13
HETATM   13  O2  UNL     1      27.471   5.962  48.114  1.00  0.00    -0.374 OA
BRANCH  13  14
HETATM   14  C16 UNL     1      28.691   6.495  47.944  1.00  0.00     0.170 C 
BRANCH  14  15
HETATM   15  C17 UNL     1      29.819   5.651  48.385  1.00  0.00     0.056 C 
BRANCH  15  16
HETATM   16  C18 UNL     1      31.073   5.781  47.625  1.00  0.00     0.274 C 
BRANCH  16  17
HETATM   17  N4  UNL     1      32.139   5.185  48.480  1.00  0.00     0.092 N 
HETATM   18  C19 UNL     1      32.751   4.145  47.675  1.00  0.00     0.298 C 
HETATM   19  C20 UNL     1      33.828   4.718  46.775  1.00  0.00     0.198 C 
HETATM   20  O3  UNL     1      34.798   5.429  47.439  1.00  0.00    -0.388 OA
HETATM   21  C21 UNL     1      34.452   5.662  48.761  1.00  0.00     0.198 C 
HETATM   22  C22 UNL     1      33.058   6.286  48.714  1.00  0.00     0.298 C 
ENDBRANCH  16  17
ENDBRANCH  15  16
ENDBRANCH  14  15
ENDBRANCH  13  14
ENDBRANCH  10  13
ENDBRANCH   1   8
BRANCH   5  23
HETATM   23  N3  UNL     1      25.443   1.595  51.546  1.00  0.00    -0.340 N 
HETATM   24  H5  UNL     1      24.820   1.097  50.910  1.00  0.00     0.167 HD
BRANCH  23  25
HETATM   25  C7  UNL     1      26.532   0.983  52.218  1.00  0.00     0.035 A 
HETATM   26  C8  UNL     1      27.398   1.812  52.897  1.00  0.00     0.032 A 
HETATM   27  C9  UNL     1      28.459   1.261  53.572  1.00  0.00     0.046 A 
HETATM   28  C10 UNL     1      28.652  -0.121  53.564  1.00  0.00     0.138 A 
HETATM   29  F1  UNL     1      29.707  -0.646  54.239  1.00  0.00    -0.204 F 
HETATM   30  C11 UNL     1      27.789  -0.952  52.886  1.00  0.00     0.074 A 
HETATM   31 CL1  UNL     1      27.977  -2.677  52.837  1.00  0.00    -0.081 Cl
HETATM   32  C12 UNL     1      26.706  -0.395  52.196  1.00  0.00     0.056 A 
ENDBRANCH  23  25
ENDBRANCH   5  23
TORSDOF 9
ENDMDL
MODEL 8
REMARK VINA RESULT:      -7.5      4.383      5.854
REMARK  9 active torsions:
REMARK  status: ('A' for Active; 'I' for Inactive)
REMARK    1  A    between atoms: O1_2  and  C2_3 
REMARK    2  A    between atoms: C3_4  and  C4_5 
REMARK    3  A    between atoms: C6_9  and  N3_10 
REMARK    4  A    between atoms: N3_10  and  C7_11 
REMARK    5  A    between atoms: C15_21  and  O2_22 
REMARK    6  A    between atoms: O2_22  and  C16_23 
REMARK    7  A    between atoms: C16_23  and  C17_24 
REMARK    8  A    between atoms: C17_24  and  C18_25 
REMARK    9  A    between atoms: C18_25  and  N4_26 
ROOT
HETATM    1  C4  UNL     1      21.107   1.302  52.950  1.00  0.00     0.079 A 
HETATM    2  N1  UNL     1      20.528   0.789  54.051  1.00  0.00    -0.241 NA
HETATM    3  C5  UNL     1      21.197  -0.149  54.784  1.00  0.00     0.236 A 
HETATM    4  N2  UNL     1      22.421  -0.541  54.391  1.00  0.00    -0.224 NA
HETATM    5  C6  UNL     1      23.071  -0.091  53.319  1.00  0.00     0.137 A 
HETATM    6  C13 UNL     1      22.345   0.848  52.628  1.00  0.00     0.013 A 
HETATM    7  C14 UNL     1      22.951   1.444  51.405  1.00  0.00     0.055 C 
ENDROOT
BRANCH   1   8
HETATM    8  C3  UNL     1      20.407   2.321  52.137  1.00  0.00     0.039 A 
HETATM    9  C2  UNL     1      20.492   3.571  51.681  1.00  0.00     0.091 A 
HETATM   10  C15 UNL     1      19.264   2.808  51.277  1.00  0.00     0.216 A 
BRANCH   9  11
HETATM   11  O1  UNL     1      21.070   4.809  51.517  1.00  0.00    -0.356 OA
HETATM   12  C1  UNL     1      22.354   5.164  51.986  1.00  0.00     0.209 C 
ENDBRANCH   9  11
BRANCH  10  13
HETATM   13  O2  UNL     1      18.118   2.969  51.978  1.00  0.00    -0.374 OA
BRANCH  13  14
HETATM   14  C16 UNL     1      17.225   3.825  51.458  1.00  0.00     0.170 C 
BRANCH  14  15
HETATM   15  C17 UNL     1      16.074   4.146  52.325  1.00  0.00     0.056 C 
BRANCH  15  16
HETATM   16  C18 UNL     1      15.107   3.062  52.561  1.00  0.00     0.274 C 
BRANCH  16  17
HETATM   17  N4  UNL     1      13.757   3.690  52.499  1.00  0.00     0.092 N 
HETATM   18  C19 UNL     1      12.813   2.589  52.476  1.00  0.00     0.298 C 
HETATM   19  C20 UNL     1      12.499   2.114  53.881  1.00  0.00     0.198 C 
HETATM   20  O3  UNL     1      12.047   3.101  54.722  1.00  0.00    -0.388 OA
HETATM   21  C21 UNL     1      12.199   4.362  54.165  1.00  0.00     0.198 C 
HETATM   22  C22 UNL     1      13.663   4.446  53.737  1.00  0.00     0.298 C 
ENDBRANCH  16  17
ENDBRANCH  15  16
ENDBRANCH  14  15
ENDBRANCH  13  14
ENDBRANCH  10  13
ENDBRANCH   1   8
BRANCH   5  23
HETATM   23  N3  UNL     1      24.354  -0.469  52.869  1.00  0.00    -0.340 N 
HETATM   24  H5  UNL     1      24.135  -1.180  52.172  1.00  0.00     0.167 HD
BRANCH  23  25
HETATM   25  C7  UNL     1      25.675  -0.068  53.195  1.00  0.00     0.035 A 
HETATM   26  C8  UNL     1      25.847   1.225  53.640  1.00  0.00     0.032 A 
HETATM   27  C9  UNL     1      27.108   1.652  53.978  1.00  0.00     0.046 A 
HETATM   28  C10 UNL     1      28.194   0.784  53.868  1.00  0.00     0.138 A 
HETATM   29  F1  UNL     1      29.432   1.226  54.208  1.00  0.00    -0.204 F 
HETATM   30  C11 UNL     1      28.025  -0.508  53.423  1.00  0.00     0.074 A 
HETATM   31 CL1  UNL     1      29.337  -1.634  53.262  1.00  0.00    -0.081 Cl
HETATM   32  C12 UNL     1      26.743  -0.948  53.077  1.00  0.00     0.056 A 
ENDBRANCH  23  25
ENDBRANCH   5  23
TORSDOF 9
ENDMDL
MODEL 9
REMARK VINA RESULT:      -7.3      5.398      8.621
REMARK  9 active torsions:
REMARK  status: ('A' for Active; 'I' for Inactive)
REMARK    1  A    between atoms: O1_2  and  C2_3 
REMARK    2  A    between atoms: C3_4  and  C4_5 
REMARK    3  A    between atoms: C6_9  and  N3_10 
REMARK    4  A    between atoms: N3_10  and  C7_11 
REMARK    5  A    between atoms: C15_21  and  O2_22 
REMARK    6  A    between atoms: O2_22  and  C16_23 
REMARK    7  A    between atoms: C16_23  and  C17_24 
REMARK    8  A    between atoms: C17_24  and  C18_25 
REMARK    9  A    between atoms: C18_25  and  N4_26 
ROOT
HETATM    1  C4  UNL     1      25.808   6.347  49.786  1.00  0.00     0.079 A 
HETATM    2  N1  UNL     1      24.875   6.976  50.523  1.00  0.00    -0.241 NA
HETATM    3  C5  UNL     1      24.008   6.238  51.279  1.00  0.00     0.236 A 
HETATM    4  N2  UNL     1      24.106   4.897  51.272  1.00  0.00    -0.224 NA
HETATM    5  C6  UNL     1      24.995   4.191  50.576  1.00  0.00     0.137 A 
HETATM    6  C13 UNL     1      25.834   4.989  49.839  1.00  0.00     0.013 A 
HETATM    7  C14 UNL     1      26.884   4.333  49.012  1.00  0.00     0.055 C 
ENDROOT
BRANCH   1   8
HETATM    8  C3  UNL     1      26.761   7.119  48.959  1.00  0.00     0.039 A 
HETATM    9  C2  UNL     1      26.908   7.727  47.781  1.00  0.00     0.091 A 
HETATM   10  C15 UNL     1      28.093   7.784  48.702  1.00  0.00     0.216 A 
BRANCH   9  11
HETATM   11  O1  UNL     1      26.519   8.150  46.531  1.00  0.00    -0.356 OA
HETATM   12  C1  UNL     1      25.584   9.178  46.287  1.00  0.00     0.209 C 
ENDBRANCH   9  11
BRANCH  10  13
HETATM   13  O2  UNL     1      29.098   6.891  48.549  1.00  0.00    -0.374 OA
BRANCH  13  14
HETATM   14  C16 UNL     1      30.262   7.385  48.096  1.00  0.00     0.170 C 
BRANCH  14  15
HETATM   15  C17 UNL     1      31.341   7.485  49.098  1.00  0.00     0.056 C 
BRANCH  15  16
HETATM   16  C18 UNL     1      32.117   6.259  49.352  1.00  0.00     0.274 C 
BRANCH  16  17
HETATM   17  N4  UNL     1      32.825   5.947  48.078  1.00  0.00     0.092 N 
HETATM   18  C19 UNL     1      34.185   6.419  48.260  1.00  0.00     0.298 C 
HETATM   19  C20 UNL     1      35.033   5.375  48.960  1.00  0.00     0.198 C 
HETATM   20  O3  UNL     1      35.042   4.149  48.341  1.00  0.00    -0.388 OA
HETATM   21  C21 UNL     1      34.086   4.070  47.340  1.00  0.00     0.198 C 
HETATM   22  C22 UNL     1      32.773   4.496  47.994  1.00  0.00     0.298 C 
ENDBRANCH  16  17
ENDBRANCH  15  16
ENDBRANCH  14  15
ENDBRANCH  13  14
ENDBRANCH  10  13
ENDBRANCH   1   8
BRANCH   5  23
HETATM   23  N3  UNL     1      25.138   2.787  50.538  1.00  0.00    -0.340 N 
HETATM   24  H5  UNL     1      25.234   2.608  49.539  1.00  0.00     0.167 HD
BRANCH  23  25
HETATM   25  C7  UNL     1      25.161   1.767  51.525  1.00  0.00     0.035 A 
HETATM   26  C8  UNL     1      26.389   1.226  51.839  1.00  0.00     0.032 A 
HETATM   27  C9  UNL     1      26.460   0.244  52.797  1.00  0.00     0.046 A 
HETATM   28  C10 UNL     1      25.301  -0.192  53.438  1.00  0.00     0.138 A 
HETATM   29  F1  UNL     1      25.393  -1.163  54.384  1.00  0.00    -0.204 F 
HETATM   30  C11 UNL     1      24.073   0.347  53.127  1.00  0.00     0.074 A 
HETATM   31 CL1  UNL     1      22.596  -0.156  53.888  1.00  0.00    -0.081 Cl
HETATM   32  C12 UNL     1      23.995   1.346  52.151  1.00  0.00     0.056 A 
ENDBRANCH  23  25
ENDBRANCH   5  23
TORSDOF 9
ENDMDL
