MODEL 1
REMARK VINA RESULT:      -7.7      0.000      0.000
REMARK  6 active torsions:
REMARK  status: ('A' for Active; 'I' for Inactive)
REMARK    1  A    between atoms: N1_2  and  C2_3 
REMARK    2  A    between atoms: N1_2  and  C3_5 
REMARK    3  A    between atoms: C3_5  and  C4_6 
REMARK    4  A    between atoms: C4_6  and  N2_7 
REMARK    5  A    between atoms: C11_18  and  C12_19 
REMARK    6  A    between atoms: C12_19  and  C13_20 
ROOT
HETATM    1  N2  UNL     1      25.048   2.355  52.139  1.00  0.00    -0.365 N 
HETATM    2  C5  UNL     1      24.484   0.989  52.362  1.00  0.00     0.134 C 
HETATM    3  C6  UNL     1      23.049   1.175  52.006  1.00  0.00     0.095 C 
HETATM    4  S1  UNL     1      21.930  -0.190  52.240  1.00  0.00    -0.146 SA
HETATM    5  C7  UNL     1      20.301   0.492  51.659  1.00  0.00     0.223 C 
HETATM    6  N3  UNL     1      20.027   1.687  52.508  1.00  0.00    -0.273 NA
HETATM    7  C8  UNL     1      20.533   2.833  52.098  1.00  0.00     0.228 C 
HETATM    8  N4  UNL     1      20.782   4.222  52.187  1.00  0.00    -0.237 NA
HETATM    9  C9  UNL     1      21.969   4.724  52.269  1.00  0.00     0.209 C 
HETATM   10  N5  UNL     1      23.324   4.301  52.307  1.00  0.00    -0.337 N 
HETATM   11  C10 UNL     1      24.363   3.535  51.705  1.00  0.00     0.100 C 
HETATM   12  C11 UNL     1      24.801   3.952  50.540  1.00  0.00     0.026 C 
HETATM   13  H17 UNL     1      23.976   4.612  53.056  1.00  0.00     0.168 HD
ENDROOT
BRANCH   1  14
HETATM   14  C4  UNL     1      26.467   2.454  52.415  1.00  0.00     0.144 C 
BRANCH  14  15
HETATM   15  C3  UNL     1      27.148   1.102  52.350  1.00  0.00     0.144 C 
BRANCH  15  16
HETATM   16  N1  UNL     1      28.152   0.984  53.391  1.00  0.00    -0.362 N 
HETATM   17  C1  UNL     1      28.688  -0.127  54.157  1.00  0.00     0.152 C 
BRANCH  16  18
HETATM   18  C2  UNL     1      28.790   2.207  53.793  1.00  0.00     0.350 C 
HETATM   19  O1  UNL     1      29.488   2.380  54.825  1.00  0.00    -0.284 OA
ENDBRANCH  16  18
ENDBRANCH  15  16
ENDBRANCH  14  15
ENDBRANCH   1  14
BRANCH  12  20
HETATM   20  C12 UNL     1      25.781   3.586  49.531  1.00  0.00     0.069 C 
BRANCH  20  21
HETATM   21  C13 UNL     1      26.639   4.652  49.017  1.00  0.00    -0.055 A 
HETATM   22  C14 UNL     1      26.006   5.889  48.866  1.00  0.00     0.007 A 
HETATM   23  C15 UNL     1      26.643   7.018  48.391  1.00  0.00     0.001 A 
HETATM   24  C16 UNL     1      27.978   6.931  48.043  1.00  0.00     0.000 A 
HETATM   25  C17 UNL     1      28.644   5.729  48.177  1.00  0.00     0.001 A 
HETATM   26  C18 UNL     1      27.969   4.626  48.654  1.00  0.00     0.007 A 
ENDBRANCH  20  21
ENDBRANCH  12  20
TORSDOF 6
ENDMDL
MODEL 2
REMARK VINA RESULT:      -7.7      3.152      5.495
REMARK  6 active torsions:
REMARK  status: ('A' for Active; 'I' for Inactive)
REMARK    1  A    between atoms: N1_2  and  C2_3 
REMARK    2  A    between atoms: N1_2  and  C3_5 
REMARK    3  A    between atoms: C3_5  and  C4_6 
REMARK    4  A    between atoms: C4_6  and  N2_7 
REMARK    5  A    between atoms: C11_18  and  C12_19 
REMARK    6  A    between atoms: C12_19  and  C13_20 
ROOT
HETATM    1  N2  UNL     1      23.479   1.958  51.721  1.00  0.00    -0.365 N 
HETATM    2  C5  UNL     1      22.345   1.519  50.853  1.00  0.00     0.134 C 
HETATM    3  C6  UNL     1      22.556   2.328  49.619  1.00  0.00     0.095 C 
HETATM    4  S1  UNL     1      21.346   2.226  48.317  1.00  0.00    -0.146 SA
HETATM    5  C7  UNL     1      22.028   3.364  47.015  1.00  0.00     0.223 C 
HETATM    6  N3  UNL     1      22.152   4.703  47.660  1.00  0.00    -0.273 NA
HETATM    7  C8  UNL     1      23.273   4.946  48.309  1.00  0.00     0.228 C 
HETATM    8  N4  UNL     1      24.154   5.736  49.084  1.00  0.00    -0.237 NA
HETATM    9  C9  UNL     1      24.568   5.389  50.257  1.00  0.00     0.209 C 
HETATM   10  N5  UNL     1      24.427   4.324  51.185  1.00  0.00    -0.337 N 
HETATM   11  C10 UNL     1      24.495   2.923  51.428  1.00  0.00     0.100 C 
HETATM   12  C11 UNL     1      25.688   2.377  51.385  1.00  0.00     0.026 C 
HETATM   13  H17 UNL     1      24.155   4.491  52.175  1.00  0.00     0.168 HD
ENDROOT
BRANCH   1  14
HETATM   14  C4  UNL     1      23.513   1.304  53.014  1.00  0.00     0.144 C 
BRANCH  14  15
HETATM   15  C3  UNL     1      23.012  -0.124  52.935  1.00  0.00     0.144 C 
BRANCH  15  16
HETATM   16  N1  UNL     1      21.947  -0.346  53.895  1.00  0.00    -0.362 N 
HETATM   17  C1  UNL     1      20.761   0.398  54.278  1.00  0.00     0.152 C 
BRANCH  16  18
HETATM   18  C2  UNL     1      22.036  -1.554  54.668  1.00  0.00     0.350 C 
HETATM   19  O1  UNL     1      22.732  -1.730  55.699  1.00  0.00    -0.284 OA
ENDBRANCH  16  18
ENDBRANCH  15  16
ENDBRANCH  14  15
ENDBRANCH   1  14
BRANCH  12  20
HETATM   20  C12 UNL     1      26.316   1.075  51.544  1.00  0.00     0.069 C 
BRANCH  20  21
HETATM   21  C13 UNL     1      27.350   0.954  52.569  1.00  0.00    -0.055 A 
HETATM   22  C14 UNL     1      27.901   2.167  52.989  1.00  0.00     0.007 A 
HETATM   23  C15 UNL     1      28.893   2.264  53.945  1.00  0.00     0.001 A 
HETATM   24  C16 UNL     1      29.373   1.105  54.524  1.00  0.00     0.000 A 
HETATM   25  C17 UNL     1      28.857  -0.117  54.140  1.00  0.00     0.001 A 
HETATM   26  C18 UNL     1      27.868  -0.168  53.181  1.00  0.00     0.007 A 
ENDBRANCH  20  21
ENDBRANCH  12  20
TORSDOF 6
ENDMDL
MODEL 3
REMARK VINA RESULT:      -7.5      1.140      1.217
REMARK  6 active torsions:
REMARK  status: ('A' for Active; 'I' for Inactive)
REMARK    1  A    between atoms: N1_2  and  C2_3 
REMARK    2  A    between atoms: N1_2  and  C3_5 
REMARK    3  A    between atoms: C3_5  and  C4_6 
REMARK    4  A    between atoms: C4_6  and  N2_7 
REMARK    5  A    between atoms: C11_18  and  C12_19 
REMARK    6  A    between atoms: C12_19  and  C13_20 
ROOT
HETATM    1  N2  UNL     1      24.948   2.403  51.949  1.00  0.00    -0.365 N 
HETATM    2  C5  UNL     1      24.233   1.090  51.979  1.00  0.00     0.134 C 
HETATM    3  C6  UNL     1      22.876   1.454  51.482  1.00  0.00     0.095 C 
HETATM    4  S1  UNL     1      21.612   0.201  51.460  1.00  0.00    -0.146 SA
HETATM    5  C7  UNL     1      20.139   1.096  50.764  1.00  0.00     0.223 C 
HETATM    6  N3  UNL     1      19.879   2.241  51.684  1.00  0.00    -0.273 NA
HETATM    7  C8  UNL     1      20.537   3.356  51.441  1.00  0.00     0.228 C 
HETATM    8  N4  UNL     1      20.905   4.700  51.686  1.00  0.00    -0.237 NA
HETATM    9  C9  UNL     1      22.116   5.065  51.948  1.00  0.00     0.209 C 
HETATM   10  N5  UNL     1      23.410   4.499  52.100  1.00  0.00    -0.337 N 
HETATM   11  C10 UNL     1      24.436   3.680  51.552  1.00  0.00     0.100 C 
HETATM   12  C11 UNL     1      25.051   4.140  50.487  1.00  0.00     0.026 C 
HETATM   13  H17 UNL     1      23.992   4.679  52.943  1.00  0.00     0.168 HD
ENDROOT
BRANCH   1  14
HETATM   14  C4  UNL     1      26.326   2.329  52.392  1.00  0.00     0.144 C 
BRANCH  14  15
HETATM   15  C3  UNL     1      26.855   0.910  52.344  1.00  0.00     0.144 C 
BRANCH  15  16
HETATM   16  N1  UNL     1      27.621   0.610  53.540  1.00  0.00    -0.362 N 
HETATM   17  C1  UNL     1      29.040   0.574  53.848  1.00  0.00     0.152 C 
BRANCH  16  18
HETATM   18  C2  UNL     1      26.859   0.264  54.707  1.00  0.00     0.350 C 
HETATM   19  O1  UNL     1      26.050  -0.692  54.814  1.00  0.00    -0.284 OA
ENDBRANCH  16  18
ENDBRANCH  15  16
ENDBRANCH  14  15
ENDBRANCH   1  14
BRANCH  12  20
HETATM   20  C12 UNL     1      26.108   3.756  49.566  1.00  0.00     0.069 C 
BRANCH  20  21
HETATM   21  C13 UNL     1      26.880   4.833  48.949  1.00  0.00    -0.055 A 
HETATM   22  C14 UNL     1      26.152   5.998  48.690  1.00  0.00     0.007 A 
HETATM   23  C15 UNL     1      26.699   7.124  48.108  1.00  0.00     0.001 A 
HETATM   24  C16 UNL     1      28.036   7.109  47.759  1.00  0.00     0.000 A 
HETATM   25  C17 UNL     1      28.794   5.979  47.997  1.00  0.00     0.001 A 
HETATM   26  C18 UNL     1      28.207   4.876  48.580  1.00  0.00     0.007 A 
ENDBRANCH  20  21
ENDBRANCH  12  20
TORSDOF 6
ENDMDL
MODEL 4
REMARK VINA RESULT:      -7.0      6.600     10.181
REMARK  6 active torsions:
REMARK  status: ('A' for Active; 'I' for Inactive)
REMARK    1  A    between atoms: N1_2  and  C2_3 
REMARK    2  A    between atoms: N1_2  and  C3_5 
REMARK    3  A    between atoms: C3_5  and  C4_6 
REMARK    4  A    between atoms: C4_6  and  N2_7 
REMARK    5  A    between atoms: C11_18  and  C12_19 
REMARK    6  A    between atoms: C12_19  and  C13_20 
ROOT
HETATM    1  N2  UNL     1      30.957   7.683  47.891  1.00  0.00    -0.365 N 
HETATM    2  C5  UNL     1      31.577   8.353  46.707  1.00  0.00     0.134 C 
HETATM    3  C6  UNL     1      31.982   7.196  45.861  1.00  0.00     0.095 C 
HETATM    4  S1  UNL     1      32.892   7.513  44.364  1.00  0.00    -0.146 SA
HETATM    5  C7  UNL     1      33.152   5.813  43.658  1.00  0.00     0.223 C 
HETATM    6  N3  UNL     1      33.893   5.042  44.698  1.00  0.00    -0.273 NA
HETATM    7  C8  UNL     1      33.167   4.435  45.614  1.00  0.00     0.228 C 
HETATM    8  N4  UNL     1      32.971   3.638  46.766  1.00  0.00    -0.237 NA
HETATM    9  C9  UNL     1      32.386   4.069  47.833  1.00  0.00     0.209 C 
HETATM   10  N5  UNL     1      31.775   5.249  48.332  1.00  0.00    -0.337 N 
HETATM   11  C10 UNL     1      30.812   6.280  48.137  1.00  0.00     0.100 C 
HETATM   12  C11 UNL     1      29.550   5.922  48.183  1.00  0.00     0.026 C 
HETATM   13  H17 UNL     1      32.051   5.669  49.243  1.00  0.00     0.168 HD
ENDROOT
BRANCH   1  14
HETATM   14  C4  UNL     1      30.462   8.605  48.893  1.00  0.00     0.144 C 
BRANCH  14  15
HETATM   15  C3  UNL     1      30.990  10.009  48.674  1.00  0.00     0.144 C 
BRANCH  15  16
HETATM   16  N1  UNL     1      29.933  10.986  48.855  1.00  0.00    -0.362 N 
HETATM   17  C1  UNL     1      29.903  12.434  48.958  1.00  0.00     0.152 C 
BRANCH  16  18
HETATM   18  C2  UNL     1      28.600  10.462  48.963  1.00  0.00     0.350 C 
HETATM   19  O1  UNL     1      27.577  11.094  49.332  1.00  0.00    -0.284 OA
ENDBRANCH  16  18
ENDBRANCH  15  16
ENDBRANCH  14  15
ENDBRANCH   1  14
BRANCH  12  20
HETATM   20  C12 UNL     1      28.227   6.512  48.061  1.00  0.00     0.069 C 
BRANCH  20  21
HETATM   21  C13 UNL     1      27.101   5.740  48.583  1.00  0.00    -0.055 A 
HETATM   22  C14 UNL     1      27.415   4.431  48.958  1.00  0.00     0.007 A 
HETATM   23  C15 UNL     1      26.490   3.542  49.469  1.00  0.00     0.001 A 
HETATM   24  C16 UNL     1      25.181   3.959  49.621  1.00  0.00     0.000 A 
HETATM   25  C17 UNL     1      24.826   5.245  49.264  1.00  0.00     0.001 A 
HETATM   26  C18 UNL     1      25.781   6.100  48.757  1.00  0.00     0.007 A 
ENDBRANCH  20  21
ENDBRANCH  12  20
TORSDOF 6
ENDMDL
MODEL 5
REMARK VINA RESULT:      -6.8      2.680      5.367
REMARK  6 active torsions:
REMARK  status: ('A' for Active; 'I' for Inactive)
REMARK    1  A    between atoms: N1_2  and  C2_3 
REMARK    2  A    between atoms: N1_2  and  C3_5 
REMARK    3  A    between atoms: C3_5  and  C4_6 
REMARK    4  A    between atoms: C4_6  and  N2_7 
REMARK    5  A    between atoms: C11_18  and  C12_19 
REMARK    6  A    between atoms: C12_19  and  C13_20 
ROOT
HETATM    1  N2  UNL     1      23.651   4.259  51.027  1.00  0.00    -0.365 N 
HETATM    2  C5  UNL     1      22.578   4.044  52.044  1.00  0.00     0.134 C 
HETATM    3  C6  UNL     1      21.943   2.779  51.576  1.00  0.00     0.095 C 
HETATM    4  S1  UNL     1      20.501   2.182  52.433  1.00  0.00    -0.146 SA
HETATM    5  C7  UNL     1      20.087   0.614  51.525  1.00  0.00     0.223 C 
HETATM    6  N3  UNL     1      19.862   1.006  50.104  1.00  0.00    -0.273 NA
HETATM    7  C8  UNL     1      20.925   1.050  49.326  1.00  0.00     0.228 C 
HETATM    8  N4  UNL     1      21.604   1.265  48.105  1.00  0.00    -0.237 NA
HETATM    9  C9  UNL     1      22.535   2.150  47.959  1.00  0.00     0.209 C 
HETATM   10  N5  UNL     1      23.221   3.135  48.717  1.00  0.00    -0.337 N 
HETATM   11  C10 UNL     1      23.966   3.449  49.888  1.00  0.00     0.100 C 
HETATM   12  C11 UNL     1      25.164   2.920  49.983  1.00  0.00     0.026 C 
HETATM   13  H17 UNL     1      23.299   4.121  48.393  1.00  0.00     0.168 HD
ENDROOT
BRANCH   1  14
HETATM   14  C4  UNL     1      24.444   5.450  51.255  1.00  0.00     0.144 C 
BRANCH  14  15
HETATM   15  C3  UNL     1      24.262   6.467  50.147  1.00  0.00     0.144 C 
BRANCH  15  16
HETATM   16  N1  UNL     1      25.548   6.962  49.691  1.00  0.00    -0.362 N 
HETATM   17  C1  UNL     1      26.390   8.082  50.069  1.00  0.00     0.152 C 
BRANCH  16  18
HETATM   18  C2  UNL     1      26.171   6.219  48.632  1.00  0.00     0.350 C 
HETATM   19  O1  UNL     1      27.237   5.557  48.713  1.00  0.00    -0.284 OA
ENDBRANCH  16  18
ENDBRANCH  15  16
ENDBRANCH  14  15
ENDBRANCH   1  14
BRANCH  12  20
HETATM   20  C12 UNL     1      26.294   2.897  50.896  1.00  0.00     0.069 C 
BRANCH  20  21
HETATM   21  C13 UNL     1      26.356   1.794  51.853  1.00  0.00    -0.055 A 
HETATM   22  C14 UNL     1      26.129   2.161  53.182  1.00  0.00     0.007 A 
HETATM   23  C15 UNL     1      26.149   1.267  54.234  1.00  0.00     0.001 A 
HETATM   24  C16 UNL     1      26.407  -0.065  53.969  1.00  0.00     0.000 A 
HETATM   25  C17 UNL     1      26.637  -0.473  52.670  1.00  0.00     0.001 A 
HETATM   26  C18 UNL     1      26.608   0.454  51.650  1.00  0.00     0.007 A 
ENDBRANCH  20  21
ENDBRANCH  12  20
TORSDOF 6
ENDMDL
MODEL 6
REMARK VINA RESULT:      -6.8      3.025      6.215
REMARK  6 active torsions:
REMARK  status: ('A' for Active; 'I' for Inactive)
REMARK    1  A    between atoms: N1_2  and  C2_3 
REMARK    2  A    between atoms: N1_2  and  C3_5 
REMARK    3  A    between atoms: C3_5  and  C4_6 
REMARK    4  A    between atoms: C4_6  and  N2_7 
REMARK    5  A    between atoms: C11_18  and  C12_19 
REMARK    6  A    between atoms: C12_19  and  C13_20 
ROOT
HETATM    1  N2  UNL     1      24.910   2.855  50.562  1.00  0.00    -0.365 N 
HETATM    2  C5  UNL     1      25.572   4.190  50.446  1.00  0.00     0.134 C 
HETATM    3  C6  UNL     1      24.522   5.010  49.779  1.00  0.00     0.095 C 
HETATM    4  S1  UNL     1      24.914   6.684  49.316  1.00  0.00    -0.146 SA
HETATM    5  C7  UNL     1      23.332   7.295  48.555  1.00  0.00     0.223 C 
HETATM    6  N3  UNL     1      23.038   6.375  47.417  1.00  0.00    -0.273 NA
HETATM    7  C8  UNL     1      22.356   5.284  47.700  1.00  0.00     0.228 C 
HETATM    8  N4  UNL     1      21.723   4.059  47.388  1.00  0.00    -0.237 NA
HETATM    9  C9  UNL     1      22.073   2.929  47.908  1.00  0.00     0.209 C 
HETATM   10  N5  UNL     1      23.020   2.407  48.828  1.00  0.00    -0.337 N 
HETATM   11  C10 UNL     1      23.600   2.476  50.126  1.00  0.00     0.100 C 
HETATM   12  C11 UNL     1      22.829   2.141  51.134  1.00  0.00     0.026 C 
HETATM   13  H17 UNL     1      23.640   1.609  48.584  1.00  0.00     0.168 HD
ENDROOT
BRANCH   1  14
HETATM   14  C4  UNL     1      25.735   1.846  51.197  1.00  0.00     0.144 C 
BRANCH  14  15
HETATM   15  C3  UNL     1      26.981   2.447  51.815  1.00  0.00     0.144 C 
BRANCH  15  16
HETATM   16  N1  UNL     1      27.261   1.833  53.100  1.00  0.00    -0.362 N 
HETATM   17  C1  UNL     1      26.453   1.137  54.085  1.00  0.00     0.152 C 
BRANCH  16  18
HETATM   18  C2  UNL     1      28.625   1.900  53.547  1.00  0.00     0.350 C 
HETATM   19  O1  UNL     1      29.043   2.481  54.581  1.00  0.00    -0.284 OA
ENDBRANCH  16  18
ENDBRANCH  15  16
ENDBRANCH  14  15
ENDBRANCH   1  14
BRANCH  12  20
HETATM   20  C12 UNL     1      22.886   2.030  52.582  1.00  0.00     0.069 C 
BRANCH  20  21
HETATM   21  C13 UNL     1      22.343   0.812  53.180  1.00  0.00    -0.055 A 
HETATM   22  C14 UNL     1      20.974   0.623  52.978  1.00  0.00     0.007 A 
HETATM   23  C15 UNL     1      20.274  -0.462  53.466  1.00  0.00     0.001 A 
HETATM   24  C16 UNL     1      20.954  -1.418  54.196  1.00  0.00     0.000 A 
HETATM   25  C17 UNL     1      22.309  -1.272  54.421  1.00  0.00     0.001 A 
HETATM   26  C18 UNL     1      22.969  -0.172  53.916  1.00  0.00     0.007 A 
ENDBRANCH  20  21
ENDBRANCH  12  20
TORSDOF 6
ENDMDL
MODEL 7
REMARK VINA RESULT:      -6.7      3.866      6.950
REMARK  6 active torsions:
REMARK  status: ('A' for Active; 'I' for Inactive)
REMARK    1  A    between atoms: N1_2  and  C2_3 
REMARK    2  A    between atoms: N1_2  and  C3_5 
REMARK    3  A    between atoms: C3_5  and  C4_6 
REMARK    4  A    between atoms: C4_6  and  N2_7 
REMARK    5  A    between atoms: C11_18  and  C12_19 
REMARK    6  A    between atoms: C12_19  and  C13_20 
ROOT
HETATM    1  N2  UNL     1      23.094   2.421  51.855  1.00  0.00    -0.365 N 
HETATM    2  C5  UNL     1      23.008   3.877  52.182  1.00  0.00     0.134 C 
HETATM    3  C6  UNL     1      22.074   4.384  51.137  1.00  0.00     0.095 C 
HETATM    4  S1  UNL     1      21.758   6.134  51.053  1.00  0.00    -0.146 SA
HETATM    5  C7  UNL     1      20.554   6.280  49.644  1.00  0.00     0.223 C 
HETATM    6  N3  UNL     1      21.240   5.703  48.452  1.00  0.00    -0.273 NA
HETATM    7  C8  UNL     1      21.125   4.403  48.275  1.00  0.00     0.228 C 
HETATM    8  N4  UNL     1      21.356   3.181  47.602  1.00  0.00    -0.237 NA
HETATM    9  C9  UNL     1      21.959   2.176  48.146  1.00  0.00     0.209 C 
HETATM   10  N5  UNL     1      22.564   1.814  49.378  1.00  0.00    -0.337 N 
HETATM   11  C10 UNL     1      22.445   1.713  50.793  1.00  0.00     0.100 C 
HETATM   12  C11 UNL     1      21.596   0.821  51.250  1.00  0.00     0.026 C 
HETATM   13  H17 UNL     1      23.530   1.431  49.424  1.00  0.00     0.168 HD
ENDROOT
BRANCH   1  14
HETATM   14  C4  UNL     1      23.958   1.672  52.746  1.00  0.00     0.144 C 
BRANCH  14  15
HETATM   15  C3  UNL     1      25.175   1.131  52.023  1.00  0.00     0.144 C 
BRANCH  15  16
HETATM   16  N1  UNL     1      25.738   0.004  52.744  1.00  0.00    -0.362 N 
HETATM   17  C1  UNL     1      26.987  -0.730  52.653  1.00  0.00     0.152 C 
BRANCH  16  18
HETATM   18  C2  UNL     1      24.921  -0.549  53.788  1.00  0.00     0.350 C 
HETATM   19  O1  UNL     1      25.327  -1.023  54.880  1.00  0.00    -0.284 OA
ENDBRANCH  16  18
ENDBRANCH  15  16
ENDBRANCH  14  15
ENDBRANCH   1  14
BRANCH  12  20
HETATM   20  C12 UNL     1      21.098   0.316  52.519  1.00  0.00     0.069 C 
BRANCH  20  21
HETATM   21  C13 UNL     1      19.734  -0.208  52.538  1.00  0.00    -0.055 A 
HETATM   22  C14 UNL     1      18.948   0.169  51.446  1.00  0.00     0.007 A 
HETATM   23  C15 UNL     1      17.633  -0.219  51.283  1.00  0.00     0.001 A 
HETATM   24  C16 UNL     1      17.053  -1.023  52.247  1.00  0.00     0.000 A 
HETATM   25  C17 UNL     1      17.793  -1.420  53.343  1.00  0.00     0.001 A 
HETATM   26  C18 UNL     1      19.102  -1.009  53.466  1.00  0.00     0.007 A 
ENDBRANCH  20  21
ENDBRANCH  12  20
TORSDOF 6
ENDMDL
MODEL 8
REMARK VINA RESULT:      -6.6      7.877     10.771
REMARK  6 active torsions:
REMARK  status: ('A' for Active; 'I' for Inactive)
REMARK    1  A    between atoms: N1_2  and  C2_3 
REMARK    2  A    between atoms: N1_2  and  C3_5 
REMARK    3  A    between atoms: C3_5  and  C4_6 
REMARK    4  A    between atoms: C4_6  and  N2_7 
REMARK    5  A    between atoms: C11_18  and  C12_19 
REMARK    6  A    between atoms: C12_19  and  C13_20 
ROOT
HETATM    1  N2  UNL     1      33.192   6.682  47.731  1.00  0.00    -0.365 N 
HETATM    2  C5  UNL     1      33.547   8.078  48.130  1.00  0.00     0.134 C 
HETATM    3  C6  UNL     1      32.997   8.882  47.001  1.00  0.00     0.095 C 
HETATM    4  S1  UNL     1      33.296  10.637  46.980  1.00  0.00    -0.146 SA
HETATM    5  C7  UNL     1      32.429  11.197  45.435  1.00  0.00     0.223 C 
HETATM    6  N3  UNL     1      33.051  10.435  44.313  1.00  0.00    -0.273 NA
HETATM    7  C8  UNL     1      32.538   9.252  44.045  1.00  0.00     0.228 C 
HETATM    8  N4  UNL     1      32.447   8.031  43.336  1.00  0.00    -0.237 NA
HETATM    9  C9  UNL     1      32.596   6.876  43.895  1.00  0.00     0.209 C 
HETATM   10  N5  UNL     1      32.859   6.317  45.174  1.00  0.00    -0.337 N 
HETATM   11  C10 UNL     1      32.507   6.246  46.551  1.00  0.00     0.100 C 
HETATM   12  C11 UNL     1      31.354   5.687  46.836  1.00  0.00     0.026 C 
HETATM   13  H17 UNL     1      33.626   5.630  45.325  1.00  0.00     0.168 HD
ENDROOT
BRANCH   1  14
HETATM   14  C4  UNL     1      33.618   5.676  48.683  1.00  0.00     0.144 C 
BRANCH  14  15
HETATM   15  C3  UNL     1      34.812   4.893  48.175  1.00  0.00     0.144 C 
BRANCH  15  16
HETATM   16  N1  UNL     1      34.380   3.687  47.492  1.00  0.00    -0.362 N 
HETATM   17  C1  UNL     1      33.396   2.659  47.782  1.00  0.00     0.152 C 
BRANCH  16  18
HETATM   18  C2  UNL     1      35.037   3.396  46.249  1.00  0.00     0.350 C 
HETATM   19  O1  UNL     1      35.061   4.130  45.228  1.00  0.00    -0.284 OA
ENDBRANCH  16  18
ENDBRANCH  15  16
ENDBRANCH  14  15
ENDBRANCH   1  14
BRANCH  12  20
HETATM   20  C12 UNL     1      30.536   5.365  47.994  1.00  0.00     0.069 C 
BRANCH  20  21
HETATM   21  C13 UNL     1      29.188   5.928  48.036  1.00  0.00    -0.055 A 
HETATM   22  C14 UNL     1      28.219   5.082  48.583  1.00  0.00     0.007 A 
HETATM   23  C15 UNL     1      26.888   5.428  48.707  1.00  0.00     0.001 A 
HETATM   24  C16 UNL     1      26.482   6.674  48.268  1.00  0.00     0.000 A 
HETATM   25  C17 UNL     1      27.406   7.543  47.720  1.00  0.00     0.001 A 
HETATM   26  C18 UNL     1      28.724   7.157  47.615  1.00  0.00     0.007 A 
ENDBRANCH  20  21
ENDBRANCH  12  20
TORSDOF 6
ENDMDL
MODEL 9
REMARK VINA RESULT:      -6.5      6.796      9.526
REMARK  6 active torsions:
REMARK  status: ('A' for Active; 'I' for Inactive)
REMARK    1  A    between atoms: N1_2  and  C2_3 
REMARK    2  A    between atoms: N1_2  and  C3_5 
REMARK    3  A    between atoms: C3_5  and  C4_6 
REMARK    4  A    between atoms: C4_6  and  N2_7 
REMARK    5  A    between atoms: C11_18  and  C12_19 
REMARK    6  A    between atoms: C12_19  and  C13_20 
ROOT
HETATM    1  N2  UNL     1      30.646   8.361  48.547  1.00  0.00    -0.365 N 
HETATM    2  C5  UNL     1      30.183   9.579  49.279  1.00  0.00     0.134 C 
HETATM    3  C6  UNL     1      29.226  10.188  48.312  1.00  0.00     0.095 C 
HETATM    4  S1  UNL     1      28.495  11.761  48.712  1.00  0.00    -0.146 SA
HETATM    5  C7  UNL     1      27.390  12.098  47.256  1.00  0.00     0.223 C 
HETATM    6  N3  UNL     1      28.276  12.098  46.055  1.00  0.00    -0.273 NA
HETATM    7  C8  UNL     1      28.497  10.932  45.483  1.00  0.00     0.228 C 
HETATM    8  N4  UNL     1      29.067  10.074  44.514  1.00  0.00    -0.237 NA
HETATM    9  C9  UNL     1      29.860   9.099  44.813  1.00  0.00     0.209 C 
HETATM   10  N5  UNL     1      30.451   8.493  45.953  1.00  0.00    -0.337 N 
HETATM   11  C10 UNL     1      30.265   7.916  47.241  1.00  0.00     0.100 C 
HETATM   12  C11 UNL     1      29.633   6.765  47.284  1.00  0.00     0.026 C 
HETATM   13  H17 UNL     1      31.476   8.330  46.019  1.00  0.00     0.168 HD
ENDROOT
BRANCH   1  14
HETATM   14  C4  UNL     1      31.606   7.565  49.285  1.00  0.00     0.144 C 
BRANCH  14  15
HETATM   15  C3  UNL     1      33.028   7.848  48.845  1.00  0.00     0.144 C 
BRANCH  15  16
HETATM   16  N1  UNL     1      33.552   6.741  48.066  1.00  0.00    -0.362 N 
HETATM   17  C1  UNL     1      33.800   5.338  48.345  1.00  0.00     0.152 C 
BRANCH  16  18
HETATM   18  C2  UNL     1      33.925   7.043  46.712  1.00  0.00     0.350 C 
HETATM   19  O1  UNL     1      33.399   7.910  45.969  1.00  0.00    -0.284 OA
ENDBRANCH  16  18
ENDBRANCH  15  16
ENDBRANCH  14  15
ENDBRANCH   1  14
BRANCH  12  20
HETATM   20  C12 UNL     1      29.190   5.782  48.259  1.00  0.00     0.069 C 
BRANCH  20  21
HETATM   21  C13 UNL     1      27.753   5.695  48.513  1.00  0.00    -0.055 A 
HETATM   22  C14 UNL     1      27.315   4.449  48.968  1.00  0.00     0.007 A 
HETATM   23  C15 UNL     1      25.996   4.165  49.260  1.00  0.00     0.001 A 
HETATM   24  C16 UNL     1      25.050   5.159  49.096  1.00  0.00     0.000 A 
HETATM   25  C17 UNL     1      25.438   6.407  48.648  1.00  0.00     0.001 A 
HETATM   26  C18 UNL     1      26.766   6.647  48.368  1.00  0.00     0.007 A 
ENDBRANCH  20  21
ENDBRANCH  12  20
TORSDOF 6
ENDMDL
