MODEL 1
REMARK VINA RESULT:      -7.6      0.000      0.000
REMARK  3 active torsions:
REMARK  status: ('A' for Active; 'I' for Inactive)
REMARK    1  A    between atoms: O1_2  and  C1_3 
REMARK    2  A    between atoms: C7_12  and  N3_13 
REMARK    3  A    between atoms: N3_13  and  C8_14 
ROOT
HETATM    1  C1  UNL     1      22.959   2.151  50.303  1.00  0.00     0.104 C 
HETATM    2  C2  UNL     1      22.686   2.119  51.596  1.00  0.00     0.011 C 
HETATM    3  C3  UNL     1      22.440   0.885  52.337  1.00  0.00     0.036 C 
HETATM    4  C4  UNL     1      23.291   0.111  53.026  1.00  0.00     0.144 C 
HETATM    5  O2  UNL     1      24.552   0.691  52.936  1.00  0.00    -0.316 OA
HETATM    6  C5  UNL     1      25.705  -0.055  52.753  1.00  0.00     0.258 C 
HETATM    7  N1  UNL     1      26.072   1.186  52.879  1.00  0.00    -0.230 NA
HETATM    8  C6  UNL     1      25.160   2.258  53.084  1.00  0.00     0.233 C 
HETATM    9  N2  UNL     1      25.309   2.553  51.845  1.00  0.00    -0.222 NA
HETATM   10  C7  UNL     1      24.672   3.629  51.145  1.00  0.00     0.337 C 
HETATM   11  C13 UNL     1      24.027   3.093  49.878  1.00  0.00     0.159 C 
HETATM   12  N5  UNL     1      23.747   4.288  52.013  1.00  0.00     0.153 N 
HETATM   13  C14 UNL     1      22.424   4.668  51.565  1.00  0.00     0.320 A 
HETATM   14  C15 UNL     1      22.622   3.381  52.337  1.00  0.00     0.292 A 
ENDROOT
BRANCH  10  15
HETATM   15  N3  UNL     1      25.707   4.571  50.786  1.00  0.00    -0.339 N 
HETATM   16  H5  UNL     1      26.337   5.142  51.406  1.00  0.00     0.163 HD
BRANCH  15  17
HETATM   17  C8  UNL     1      26.139   4.965  49.487  1.00  0.00     0.022 C 
HETATM   18  C9  UNL     1      27.126   4.408  48.798  1.00  0.00     0.015 C 
HETATM   19  C10 UNL     1      28.125   5.260  48.618  1.00  0.00     0.097 C 
HETATM   20  N4  UNL     1      27.897   6.648  48.939  1.00  0.00    -0.398 N 
HETATM   21  C11 UNL     1      26.561   7.209  48.766  1.00  0.00     0.125 C 
HETATM   22  H7  UNL     1      28.668   7.256  49.293  1.00  0.00     0.158 HD
HETATM   23  C12 UNL     1      25.531   6.084  48.700  1.00  0.00     0.077 C 
ENDBRANCH  15  17
ENDBRANCH  10  15
BRANCH   1  24
HETATM   24  O1  UNL     1      22.226   1.310  49.483  1.00  0.00    -0.159 OA
HETATM   25  F1  UNL     1      22.298   1.350  48.131  1.00  0.00    -0.042 F 
ENDBRANCH   1  24
TORSDOF 3
ENDMDL
MODEL 2
REMARK VINA RESULT:      -7.4      2.838      3.884
REMARK  3 active torsions:
REMARK  status: ('A' for Active; 'I' for Inactive)
REMARK    1  A    between atoms: O1_2  and  C1_3 
REMARK    2  A    between atoms: C7_12  and  N3_13 
REMARK    3  A    between atoms: N3_13  and  C8_14 
ROOT
HETATM    1  C1  UNL     1      22.166   1.726  50.102  1.00  0.00     0.104 C 
HETATM    2  C2  UNL     1      21.304   1.870  51.094  1.00  0.00     0.011 C 
HETATM    3  C3  UNL     1      20.291   0.873  51.431  1.00  0.00     0.036 C 
HETATM    4  C4  UNL     1      20.340  -0.140  52.308  1.00  0.00     0.144 C 
HETATM    5  O2  UNL     1      21.594  -0.113  52.911  1.00  0.00    -0.316 OA
HETATM    6  C5  UNL     1      22.319  -1.263  53.177  1.00  0.00     0.258 C 
HETATM    7  N1  UNL     1      23.003  -0.265  53.651  1.00  0.00    -0.230 NA
HETATM    8  C6  UNL     1      22.577   1.090  53.569  1.00  0.00     0.233 C 
HETATM    9  N2  UNL     1      23.412   1.239  52.607  1.00  0.00    -0.222 NA
HETATM   10  C7  UNL     1      23.649   2.443  51.867  1.00  0.00     0.337 C 
HETATM   11  C13 UNL     1      23.565   2.146  50.380  1.00  0.00     0.159 C 
HETATM   12  N5  UNL     1      22.736   3.458  52.291  1.00  0.00     0.153 N 
HETATM   13  C14 UNL     1      22.052   4.309  51.340  1.00  0.00     0.320 A 
HETATM   14  C15 UNL     1      21.355   3.088  51.905  1.00  0.00     0.292 A 
ENDROOT
BRANCH  10  15
HETATM   15  N3  UNL     1      24.990   2.879  52.187  1.00  0.00    -0.339 N 
HETATM   16  H5  UNL     1      25.379   3.854  52.251  1.00  0.00     0.163 HD
BRANCH  15  17
HETATM   17  C8  UNL     1      26.131   2.086  52.498  1.00  0.00     0.022 C 
HETATM   18  C9  UNL     1      26.768   1.282  51.657  1.00  0.00     0.015 C 
HETATM   19  C10 UNL     1      26.663   0.015  52.032  1.00  0.00     0.097 C 
HETATM   20  N4  UNL     1      26.140  -0.260  53.348  1.00  0.00    -0.398 N 
HETATM   21  C11 UNL     1      26.391   0.690  54.426  1.00  0.00     0.125 C 
HETATM   22  H7  UNL     1      25.586  -1.123  53.542  1.00  0.00     0.158 HD
HETATM   23  C12 UNL     1      26.788   2.044  53.843  1.00  0.00     0.077 C 
ENDBRANCH  15  17
ENDBRANCH  10  15
BRANCH   1  24
HETATM   24  O1  UNL     1      21.681   1.206  48.915  1.00  0.00    -0.159 OA
HETATM   25  F1  UNL     1      22.315   1.357  47.728  1.00  0.00    -0.042 F 
ENDBRANCH   1  24
TORSDOF 3
ENDMDL
MODEL 3
REMARK VINA RESULT:      -7.3      3.643      6.816
REMARK  3 active torsions:
REMARK  status: ('A' for Active; 'I' for Inactive)
REMARK    1  A    between atoms: O1_2  and  C1_3 
REMARK    2  A    between atoms: C7_12  and  N3_13 
REMARK    3  A    between atoms: N3_13  and  C8_14 
ROOT
HETATM    1  C1  UNL     1      27.202  -1.059  53.363  1.00  0.00     0.104 C 
HETATM    2  C2  UNL     1      27.307   0.046  54.082  1.00  0.00     0.011 C 
HETATM    3  C3  UNL     1      28.332   1.060  53.854  1.00  0.00     0.036 C 
HETATM    4  C4  UNL     1      28.290   2.171  53.104  1.00  0.00     0.144 C 
HETATM    5  O2  UNL     1      27.029   2.237  52.521  1.00  0.00    -0.316 OA
HETATM    6  C5  UNL     1      26.834   2.633  51.208  1.00  0.00     0.258 C 
HETATM    7  N1  UNL     1      25.657   2.431  51.722  1.00  0.00    -0.230 NA
HETATM    8  C6  UNL     1      25.448   2.011  53.065  1.00  0.00     0.233 C 
HETATM    9  N2  UNL     1      25.225   0.834  52.607  1.00  0.00    -0.222 NA
HETATM   10  C7  UNL     1      24.901  -0.330  53.377  1.00  0.00     0.337 C 
HETATM   11  C13 UNL     1      25.825  -1.469  52.982  1.00  0.00     0.159 C 
HETATM   12  N5  UNL     1      24.956  -0.017  54.771  1.00  0.00     0.153 N 
HETATM   13  C14 UNL     1      25.585  -0.907  55.724  1.00  0.00     0.320 A 
HETATM   14  C15 UNL     1      26.352   0.275  55.169  1.00  0.00     0.292 A 
ENDROOT
BRANCH  10  15
HETATM   15  N3  UNL     1      23.541  -0.690  53.047  1.00  0.00    -0.339 N 
HETATM   16  H5  UNL     1      23.183  -1.358  52.318  1.00  0.00     0.163 HD
BRANCH  15  17
HETATM   17  C8  UNL     1      22.330  -0.223  53.636  1.00  0.00     0.022 C 
HETATM   18  C9  UNL     1      21.567  -0.907  54.478  1.00  0.00     0.015 C 
HETATM   19  C10 UNL     1      20.380  -1.167  53.947  1.00  0.00     0.097 C 
HETATM   20  N4  UNL     1      20.023  -0.487  52.726  1.00  0.00    -0.398 N 
HETATM   21  C11 UNL     1      20.532   0.859  52.484  1.00  0.00     0.125 C 
HETATM   22  H7  UNL     1      19.409  -0.939  52.013  1.00  0.00     0.158 HD
HETATM   23  C12 UNL     1      21.735   1.127  53.385  1.00  0.00     0.077 C 
ENDBRANCH  15  17
ENDBRANCH  10  15
BRANCH   1  24
HETATM   24  O1  UNL     1      28.378  -1.716  53.042  1.00  0.00    -0.159 OA
HETATM   25  F1  UNL     1      28.438  -3.048  52.801  1.00  0.00    -0.042 F 
ENDBRANCH   1  24
TORSDOF 3
ENDMDL
MODEL 4
REMARK VINA RESULT:      -7.2      2.645      3.845
REMARK  3 active torsions:
REMARK  status: ('A' for Active; 'I' for Inactive)
REMARK    1  A    between atoms: O1_2  and  C1_3 
REMARK    2  A    between atoms: C7_12  and  N3_13 
REMARK    3  A    between atoms: N3_13  and  C8_14 
ROOT
HETATM    1  C1  UNL     1      26.569  -0.225  51.997  1.00  0.00     0.104 C 
HETATM    2  C2  UNL     1      26.379  -0.156  53.304  1.00  0.00     0.011 C 
HETATM    3  C3  UNL     1      27.302  -0.720  54.283  1.00  0.00     0.036 C 
HETATM    4  C4  UNL     1      28.330  -0.148  54.926  1.00  0.00     0.144 C 
HETATM    5  O2  UNL     1      28.407   1.175  54.500  1.00  0.00    -0.316 OA
HETATM    6  C5  UNL     1      29.612   1.806  54.239  1.00  0.00     0.258 C 
HETATM    7  N1  UNL     1      28.677   2.692  54.073  1.00  0.00    -0.230 NA
HETATM    8  C6  UNL     1      27.292   2.417  54.253  1.00  0.00     0.233 C 
HETATM    9  N2  UNL     1      27.190   2.368  52.976  1.00  0.00    -0.222 NA
HETATM   10  C7  UNL     1      25.995   2.109  52.229  1.00  0.00     0.337 C 
HETATM   11  C13 UNL     1      26.261   1.004  51.220  1.00  0.00     0.159 C 
HETATM   12  N5  UNL     1      24.922   1.807  53.124  1.00  0.00     0.153 N 
HETATM   13  C14 UNL     1      24.007   0.714  52.872  1.00  0.00     0.320 A 
HETATM   14  C15 UNL     1      25.181   0.519  53.808  1.00  0.00     0.292 A 
ENDROOT
BRANCH  10  15
HETATM   15  N3  UNL     1      25.666   3.325  51.522  1.00  0.00    -0.339 N 
HETATM   16  H5  UNL     1      25.353   4.255  51.900  1.00  0.00     0.163 HD
BRANCH  15  17
HETATM   17  C8  UNL     1      25.686   3.571  50.119  1.00  0.00     0.022 C 
HETATM   18  C9  UNL     1      26.759   3.885  49.404  1.00  0.00     0.015 C 
HETATM   19  C10 UNL     1      26.659   5.108  48.902  1.00  0.00     0.097 C 
HETATM   20  N4  UNL     1      25.379   5.768  48.977  1.00  0.00    -0.398 N 
HETATM   21  C11 UNL     1      24.161   4.968  48.913  1.00  0.00     0.125 C 
HETATM   22  H7  UNL     1      25.308   6.804  49.078  1.00  0.00     0.158 HD
HETATM   23  C12 UNL     1      24.480   3.509  49.234  1.00  0.00     0.077 C 
ENDBRANCH  15  17
ENDBRANCH  10  15
BRANCH   1  24
HETATM   24  O1  UNL     1      27.033  -1.427  51.490  1.00  0.00    -0.159 OA
HETATM   25  F1  UNL     1      26.534  -2.629  51.867  1.00  0.00    -0.042 F 
ENDBRANCH   1  24
TORSDOF 3
ENDMDL
MODEL 5
REMARK VINA RESULT:      -7.1      3.040      4.326
REMARK  3 active torsions:
REMARK  status: ('A' for Active; 'I' for Inactive)
REMARK    1  A    between atoms: O1_2  and  C1_3 
REMARK    2  A    between atoms: C7_12  and  N3_13 
REMARK    3  A    between atoms: N3_13  and  C8_14 
ROOT
HETATM    1  C1  UNL     1      26.061   1.509  54.041  1.00  0.00     0.104 C 
HETATM    2  C2  UNL     1      25.728   0.705  53.045  1.00  0.00     0.011 C 
HETATM    3  C3  UNL     1      25.276  -0.670  53.238  1.00  0.00     0.036 C 
HETATM    4  C4  UNL     1      24.033  -1.157  53.361  1.00  0.00     0.144 C 
HETATM    5  O2  UNL     1      23.151  -0.085  53.271  1.00  0.00    -0.316 OA
HETATM    6  C5  UNL     1      22.033   0.032  54.080  1.00  0.00     0.258 C 
HETATM    7  N1  UNL     1      22.009   1.035  53.255  1.00  0.00    -0.230 NA
HETATM    8  C6  UNL     1      23.002   1.258  52.260  1.00  0.00     0.233 C 
HETATM    9  N2  UNL     1      23.491   2.163  53.026  1.00  0.00    -0.222 NA
HETATM   10  C7  UNL     1      24.639   2.976  52.755  1.00  0.00     0.337 C 
HETATM   11  C13 UNL     1      25.591   2.916  53.938  1.00  0.00     0.159 C 
HETATM   12  N5  UNL     1      25.242   2.565  51.525  1.00  0.00     0.153 N 
HETATM   13  C14 UNL     1      26.676   2.421  51.394  1.00  0.00     0.320 A 
HETATM   14  C15 UNL     1      25.814   1.207  51.672  1.00  0.00     0.292 A 
ENDROOT
BRANCH  10  15
HETATM   15  N3  UNL     1      24.168   4.333  52.597  1.00  0.00    -0.339 N 
HETATM   16  H5  UNL     1      24.034   5.084  53.321  1.00  0.00     0.163 HD
BRANCH  15  17
HETATM   17  C8  UNL     1      23.765   5.001  51.405  1.00  0.00     0.022 C 
HETATM   18  C9  UNL     1      24.457   5.940  50.772  1.00  0.00     0.015 C 
HETATM   19  C10 UNL     1      23.821   7.103  50.798  1.00  0.00     0.097 C 
HETATM   20  N4  UNL     1      22.449   7.114  51.243  1.00  0.00    -0.398 N 
HETATM   21  C11 UNL     1      21.608   5.950  50.985  1.00  0.00     0.125 C 
HETATM   22  H7  UNL     1      22.048   7.936  51.745  1.00  0.00     0.158 HD
HETATM   23  C12 UNL     1      22.481   4.735  50.681  1.00  0.00     0.077 C 
ENDBRANCH  15  17
ENDBRANCH  10  15
BRANCH   1  24
HETATM   24  O1  UNL     1      26.810   0.963  55.069  1.00  0.00    -0.159 OA
HETATM   25  F1  UNL     1      28.017   0.382  54.876  1.00  0.00    -0.042 F 
ENDBRANCH   1  24
TORSDOF 3
ENDMDL
MODEL 6
REMARK VINA RESULT:      -7.0      2.391      5.068
REMARK  3 active torsions:
REMARK  status: ('A' for Active; 'I' for Inactive)
REMARK    1  A    between atoms: O1_2  and  C1_3 
REMARK    2  A    between atoms: C7_12  and  N3_13 
REMARK    3  A    between atoms: N3_13  and  C8_14 
ROOT
HETATM    1  C1  UNL     1      22.568   4.137  51.581  1.00  0.00     0.104 C 
HETATM    2  C2  UNL     1      22.682   3.634  50.363  1.00  0.00     0.011 C 
HETATM    3  C3  UNL     1      22.663   4.446  49.151  1.00  0.00     0.036 C 
HETATM    4  C4  UNL     1      23.678   4.987  48.461  1.00  0.00     0.144 C 
HETATM    5  O2  UNL     1      24.859   4.638  49.110  1.00  0.00    -0.316 OA
HETATM    6  C5  UNL     1      25.909   5.526  49.275  1.00  0.00     0.258 C 
HETATM    7  N1  UNL     1      26.296   4.385  49.764  1.00  0.00    -0.230 NA
HETATM    8  C6  UNL     1      25.481   3.219  49.776  1.00  0.00     0.233 C 
HETATM    9  N2  UNL     1      25.264   3.447  51.019  1.00  0.00    -0.222 NA
HETATM   10  C7  UNL     1      24.450   2.660  51.898  1.00  0.00     0.337 C 
HETATM   11  C13 UNL     1      23.465   3.565  52.618  1.00  0.00     0.159 C 
HETATM   12  N5  UNL     1      23.817   1.612  51.159  1.00  0.00     0.153 N 
HETATM   13  C14 UNL     1      22.420   1.284  51.353  1.00  0.00     0.320 A 
HETATM   14  C15 UNL     1      22.835   2.185  50.209  1.00  0.00     0.292 A 
ENDROOT
BRANCH  10  15
HETATM   15  N3  UNL     1      25.335   2.058  52.868  1.00  0.00    -0.339 N 
HETATM   16  H5  UNL     1      25.272   2.052  53.918  1.00  0.00     0.163 HD
BRANCH  15  17
HETATM   17  C8  UNL     1      26.528   1.312  52.642  1.00  0.00     0.022 C 
HETATM   18  C9  UNL     1      26.601   0.138  52.030  1.00  0.00     0.015 C 
HETATM   19  C10 UNL     1      27.006  -0.812  52.862  1.00  0.00     0.097 C 
HETATM   20  N4  UNL     1      27.527  -0.410  54.145  1.00  0.00    -0.398 N 
HETATM   21  C11 UNL     1      28.234   0.862  54.260  1.00  0.00     0.125 C 
HETATM   22  H7  UNL     1      27.407  -1.009  54.991  1.00  0.00     0.158 HD
HETATM   23  C12 UNL     1      27.893   1.754  53.069  1.00  0.00     0.077 C 
ENDBRANCH  15  17
ENDBRANCH  10  15
BRANCH   1  24
HETATM   24  O1  UNL     1      21.629   5.138  51.763  1.00  0.00    -0.159 OA
HETATM   25  F1  UNL     1      21.914   6.454  51.618  1.00  0.00    -0.042 F 
ENDBRANCH   1  24
TORSDOF 3
ENDMDL
MODEL 7
REMARK VINA RESULT:      -7.0      2.905      5.322
REMARK  3 active torsions:
REMARK  status: ('A' for Active; 'I' for Inactive)
REMARK    1  A    between atoms: O1_2  and  C1_3 
REMARK    2  A    between atoms: C7_12  and  N3_13 
REMARK    3  A    between atoms: N3_13  and  C8_14 
ROOT
HETATM    1  C1  UNL     1      24.921   4.444  50.346  1.00  0.00     0.104 C 
HETATM    2  C2  UNL     1      23.634   4.731  50.443  1.00  0.00     0.011 C 
HETATM    3  C3  UNL     1      22.848   5.288  49.347  1.00  0.00     0.036 C 
HETATM    4  C4  UNL     1      22.107   4.667  48.417  1.00  0.00     0.144 C 
HETATM    5  O2  UNL     1      22.193   3.299  48.657  1.00  0.00    -0.316 OA
HETATM    6  C5  UNL     1      22.317   2.369  47.639  1.00  0.00     0.258 C 
HETATM    7  N1  UNL     1      22.235   1.703  48.752  1.00  0.00    -0.230 NA
HETATM    8  C6  UNL     1      22.097   2.319  50.027  1.00  0.00     0.233 C 
HETATM    9  N2  UNL     1      23.343   2.086  50.216  1.00  0.00    -0.222 NA
HETATM   10  C7  UNL     1      24.103   2.423  51.384  1.00  0.00     0.337 C 
HETATM   11  C13 UNL     1      25.361   3.168  50.969  1.00  0.00     0.159 C 
HETATM   12  N5  UNL     1      23.285   3.163  52.294  1.00  0.00     0.153 N 
HETATM   13  C14 UNL     1      23.779   4.342  52.973  1.00  0.00     0.320 A 
HETATM   14  C15 UNL     1      22.949   4.483  51.714  1.00  0.00     0.292 A 
ENDROOT
BRANCH  10  15
HETATM   15  N3  UNL     1      24.478   1.181  52.019  1.00  0.00    -0.339 N 
HETATM   16  H5  UNL     1      23.899   0.321  52.200  1.00  0.00     0.163 HD
BRANCH  15  17
HETATM   17  C8  UNL     1      25.740   0.805  52.562  1.00  0.00     0.022 C 
HETATM   18  C9  UNL     1      26.615  -0.011  51.991  1.00  0.00     0.015 C 
HETATM   19  C10 UNL     1      26.774  -1.118  52.702  1.00  0.00     0.097 C 
HETATM   20  N4  UNL     1      26.215  -1.153  54.032  1.00  0.00    -0.398 N 
HETATM   21  C11 UNL     1      26.145   0.081  54.807  1.00  0.00     0.125 C 
HETATM   22  H7  UNL     1      25.861  -2.042  54.449  1.00  0.00     0.158 HD
HETATM   23  C12 UNL     1      26.269   1.285  53.877  1.00  0.00     0.077 C 
ENDBRANCH  15  17
ENDBRANCH  10  15
BRANCH   1  24
HETATM   24  O1  UNL     1      25.721   5.355  49.678  1.00  0.00    -0.159 OA
HETATM   25  F1  UNL     1      26.455   5.033  48.586  1.00  0.00    -0.042 F 
ENDBRANCH   1  24
TORSDOF 3
ENDMDL
MODEL 8
REMARK VINA RESULT:      -6.9      1.505      2.074
REMARK  3 active torsions:
REMARK  status: ('A' for Active; 'I' for Inactive)
REMARK    1  A    between atoms: O1_2  and  C1_3 
REMARK    2  A    between atoms: C7_12  and  N3_13 
REMARK    3  A    between atoms: N3_13  and  C8_14 
ROOT
HETATM    1  C1  UNL     1      23.127   1.902  50.752  1.00  0.00     0.104 C 
HETATM    2  C2  UNL     1      23.261   1.767  52.060  1.00  0.00     0.011 C 
HETATM    3  C3  UNL     1      23.352   0.474  52.732  1.00  0.00     0.036 C 
HETATM    4  C4  UNL     1      24.432  -0.246  53.069  1.00  0.00     0.144 C 
HETATM    5  O2  UNL     1      25.555   0.465  52.660  1.00  0.00    -0.316 OA
HETATM    6  C5  UNL     1      26.655  -0.146  52.081  1.00  0.00     0.258 C 
HETATM    7  N1  UNL     1      26.941   1.117  52.199  1.00  0.00    -0.230 NA
HETATM    8  C6  UNL     1      26.050   2.076  52.756  1.00  0.00     0.233 C 
HETATM    9  N2  UNL     1      25.793   2.455  51.559  1.00  0.00    -0.222 NA
HETATM   10  C7  UNL     1      24.889   3.498  51.173  1.00  0.00     0.337 C 
HETATM   11  C13 UNL     1      23.936   2.973  50.113  1.00  0.00     0.159 C 
HETATM   12  N5  UNL     1      24.219   4.007  52.329  1.00  0.00     0.153 N 
HETATM   13  C14 UNL     1      22.796   4.274  52.327  1.00  0.00     0.320 A 
HETATM   14  C15 UNL     1      23.323   2.971  52.892  1.00  0.00     0.292 A 
ENDROOT
BRANCH  10  15
HETATM   15  N3  UNL     1      25.686   4.561  50.607  1.00  0.00    -0.339 N 
HETATM   16  H5  UNL     1      26.731   4.636  50.511  1.00  0.00     0.163 HD
BRANCH  15  17
HETATM   17  C8  UNL     1      25.251   5.788  50.029  1.00  0.00     0.022 C 
HETATM   18  C9  UNL     1      24.956   6.896  50.696  1.00  0.00     0.015 C 
HETATM   19  C10 UNL     1      23.672   7.200  50.578  1.00  0.00     0.097 C 
HETATM   20  N4  UNL     1      22.895   6.486  49.593  1.00  0.00    -0.398 N 
HETATM   21  C11 UNL     1      23.544   6.032  48.368  1.00  0.00     0.125 C 
HETATM   22  H7  UNL     1      21.882   6.287  49.742  1.00  0.00     0.158 HD
HETATM   23  C12 UNL     1      25.058   6.008  48.560  1.00  0.00     0.077 C 
ENDBRANCH  15  17
ENDBRANCH  10  15
BRANCH   1  24
HETATM   24  O1  UNL     1      22.251   1.039  50.116  1.00  0.00    -0.159 OA
HETATM   25  F1  UNL     1      20.945   0.930  50.455  1.00  0.00    -0.042 F 
ENDBRANCH   1  24
TORSDOF 3
ENDMDL
MODEL 9
REMARK VINA RESULT:      -6.8      8.208     10.427
REMARK  3 active torsions:
REMARK  status: ('A' for Active; 'I' for Inactive)
REMARK    1  A    between atoms: O1_2  and  C1_3 
REMARK    2  A    between atoms: C7_12  and  N3_13 
REMARK    3  A    between atoms: N3_13  and  C8_14 
ROOT
HETATM    1  C1  UNL     1      33.213   3.814  47.517  1.00  0.00     0.104 C 
HETATM    2  C2  UNL     1      34.320   4.289  46.972  1.00  0.00     0.011 C 
HETATM    3  C3  UNL     1      34.766   3.946  45.625  1.00  0.00     0.036 C 
HETATM    4  C4  UNL     1      34.542   4.569  44.459  1.00  0.00     0.144 C 
HETATM    5  O2  UNL     1      33.759   5.688  44.725  1.00  0.00    -0.316 OA
HETATM    6  C5  UNL     1      32.713   6.078  43.906  1.00  0.00     0.258 C 
HETATM    7  N1  UNL     1      32.812   6.971  44.845  1.00  0.00    -0.230 NA
HETATM    8  C6  UNL     1      33.782   6.913  45.884  1.00  0.00     0.233 C 
HETATM    9  N2  UNL     1      32.849   6.497  46.660  1.00  0.00    -0.222 NA
HETATM   10  C7  UNL     1      32.985   6.159  48.046  1.00  0.00     0.337 C 
HETATM   11  C13 UNL     1      32.390   4.782  48.289  1.00  0.00     0.159 C 
HETATM   12  N5  UNL     1      34.358   6.256  48.434  1.00  0.00     0.153 N 
HETATM   13  C14 UNL     1      34.988   5.243  49.255  1.00  0.00     0.320 A 
HETATM   14  C15 UNL     1      35.152   5.210  47.750  1.00  0.00     0.292 A 
ENDROOT
BRANCH  10  15
HETATM   15  N3  UNL     1      32.232   7.137  48.796  1.00  0.00    -0.339 N 
HETATM   16  H5  UNL     1      32.420   7.539  49.750  1.00  0.00     0.163 HD
BRANCH  15  17
HETATM   17  C8  UNL     1      31.033   7.811  48.425  1.00  0.00     0.022 C 
HETATM   18  C9  UNL     1      29.835   7.253  48.313  1.00  0.00     0.015 C 
HETATM   19  C10 UNL     1      29.406   7.287  47.059  1.00  0.00     0.097 C 
HETATM   20  N4  UNL     1      30.132   8.105  46.118  1.00  0.00    -0.398 N 
HETATM   21  C11 UNL     1      30.781   9.324  46.587  1.00  0.00     0.125 C 
HETATM   22  H7  UNL     1      30.201   7.841  45.110  1.00  0.00     0.158 HD
HETATM   23  C12 UNL     1      30.951   9.271  48.103  1.00  0.00     0.077 C 
ENDBRANCH  15  17
ENDBRANCH  10  15
BRANCH   1  24
HETATM   24  O1  UNL     1      32.936   2.473  47.314  1.00  0.00    -0.159 OA
HETATM   25  F1  UNL     1      33.110   1.530  48.271  1.00  0.00    -0.042 F 
ENDBRANCH   1  24
TORSDOF 3
ENDMDL
