MODEL 1
REMARK VINA RESULT:      -9.2      0.000      0.000
REMARK  5 active torsions:
REMARK  status: ('A' for Active; 'I' for Inactive)
REMARK    1  A    between atoms: C5_6  and  C6_7 
REMARK    2  A    between atoms: C6_7  and  O1_8 
REMARK    3  A    between atoms: O1_8  and  C7_9 
REMARK    4  A    between atoms: C9_12  and  N1_13 
REMARK    5  A    between atoms: N1_13  and  C10_14 
ROOT
HETATM    1  C7  UNL     1      22.122   3.693  48.979  1.00  0.00     0.311 A 
HETATM    2  O2  UNL     1      23.407   3.095  48.936  1.00  0.00    -0.325 OA
HETATM    3  C8  UNL     1      24.120   2.991  50.116  1.00  0.00     0.168 A 
HETATM    4  C9  UNL     1      23.825   3.369  51.348  1.00  0.00     0.057 A 
HETATM    5  C19 UNL     1      22.527   4.002  51.502  1.00  0.00     0.056 A 
HETATM    6  C20 UNL     1      21.855   4.093  50.383  1.00  0.00     0.069 A 
HETATM    7 CL1  UNL     1      20.257   4.840  50.399  1.00  0.00    -0.084 Cl
ENDROOT
BRANCH   4   8
HETATM    8  N1  UNL     1      24.647   3.209  52.495  1.00  0.00    -0.340 N 
HETATM    9  H8  UNL     1      25.132   4.114  52.786  1.00  0.00     0.167 HD
BRANCH   8  10
HETATM   10  C10 UNL     1      24.850   1.982  53.237  1.00  0.00     0.116 C 
HETATM   11  C11 UNL     1      24.062   0.885  53.096  1.00  0.00     0.181 C 
HETATM   12  O3  UNL     1      24.467  -0.225  53.947  1.00  0.00    -0.358 OA
HETATM   13  C12 UNL     1      25.904  -0.344  53.903  1.00  0.00     0.114 C 
HETATM   14  C13 UNL     1      26.542  -1.061  52.901  1.00  0.00     0.110 C 
HETATM   15  C14 UNL     1      28.047  -1.091  52.953  1.00  0.00    -0.022 C 
HETATM   16  C15 UNL     1      29.203  -0.692  53.570  1.00  0.00    -0.025 C 
HETATM   17  C16 UNL     1      28.867   0.171  54.733  1.00  0.00     0.073 C 
HETATM   18  C17 UNL     1      29.328   1.575  54.540  1.00  0.00     0.090 C 
HETATM   19  N2  UNL     1      28.530   2.451  54.023  1.00  0.00    -0.274 NA
HETATM   20  C18 UNL     1      27.192   2.211  53.595  1.00  0.00     0.447 C 
HETATM   21  N3  UNL     1      25.990   2.392  54.013  1.00  0.00    -0.373 NA
ENDBRANCH   8  10
ENDBRANCH   4   8
BRANCH   1  22
HETATM   22  O1  UNL     1      21.235   2.788  48.490  1.00  0.00    -0.351 OA
BRANCH  22  23
HETATM   23  C6  UNL     1      21.392   1.471  48.748  1.00  0.00     0.210 C 
BRANCH  23  24
HETATM   24  C5  UNL     1      20.476   1.033  49.823  1.00  0.00    -0.032 A 
HETATM   25  C4  UNL     1      19.110   1.073  49.937  1.00  0.00     0.009 A 
HETATM   26  C3  UNL     1      18.443   0.598  51.024  1.00  0.00     0.004 A 
HETATM   27  C2  UNL     1      19.136   0.041  52.083  1.00  0.00     0.042 A 
HETATM   28  C1  UNL     1      20.499  -0.020  52.016  1.00  0.00     0.117 A 
HETATM   29  F1  UNL     1      21.106  -0.574  53.083  1.00  0.00    -0.206 F 
HETATM   30  C21 UNL     1      21.144   0.469  50.904  1.00  0.00     0.051 A 
ENDBRANCH  23  24
ENDBRANCH  22  23
ENDBRANCH   1  22
TORSDOF 5
ENDMDL
MODEL 2
REMARK VINA RESULT:      -8.9      1.189      1.527
REMARK  5 active torsions:
REMARK  status: ('A' for Active; 'I' for Inactive)
REMARK    1  A    between atoms: C5_6  and  C6_7 
REMARK    2  A    between atoms: C6_7  and  O1_8 
REMARK    3  A    between atoms: O1_8  and  C7_9 
REMARK    4  A    between atoms: C9_12  and  N1_13 
REMARK    5  A    between atoms: N1_13  and  C10_14 
ROOT
HETATM    1  C7  UNL     1      23.075   4.168  48.768  1.00  0.00     0.311 A 
HETATM    2  O2  UNL     1      24.260   3.414  48.968  1.00  0.00    -0.325 OA
HETATM    3  C8  UNL     1      24.708   3.231  50.263  1.00  0.00     0.168 A 
HETATM    4  C9  UNL     1      24.226   3.652  51.419  1.00  0.00     0.057 A 
HETATM    5  C19 UNL     1      23.011   4.443  51.327  1.00  0.00     0.056 A 
HETATM    6  C20 UNL     1      22.590   4.609  50.099  1.00  0.00     0.069 A 
HETATM    7 CL1  UNL     1      21.125   5.549  49.814  1.00  0.00    -0.084 Cl
ENDROOT
BRANCH   4   8
HETATM    8  N1  UNL     1      24.780   3.400  52.702  1.00  0.00    -0.340 N 
HETATM    9  H8  UNL     1      25.123   4.286  53.187  1.00  0.00     0.167 HD
BRANCH   8  10
HETATM   10  C10 UNL     1      24.898   2.106  53.343  1.00  0.00     0.116 C 
HETATM   11  C11 UNL     1      24.021   1.090  53.141  1.00  0.00     0.181 C 
HETATM   12  O3  UNL     1      24.351  -0.112  53.894  1.00  0.00    -0.358 OA
HETATM   13  C12 UNL     1      25.772  -0.341  53.802  1.00  0.00     0.114 C 
HETATM   14  C13 UNL     1      26.329  -1.027  52.731  1.00  0.00     0.110 C 
HETATM   15  C14 UNL     1      27.827  -1.180  52.740  1.00  0.00    -0.022 C 
HETATM   16  C15 UNL     1      29.024  -0.923  53.354  1.00  0.00    -0.025 C 
HETATM   17  C16 UNL     1      28.785  -0.129  54.588  1.00  0.00     0.073 C 
HETATM   18  C17 UNL     1      29.355   1.244  54.489  1.00  0.00     0.090 C 
HETATM   19  N2  UNL     1      28.620   2.218  54.062  1.00  0.00    -0.274 NA
HETATM   20  C18 UNL     1      27.258   2.120  53.653  1.00  0.00     0.447 C 
HETATM   21  N3  UNL     1      26.084   2.363  54.117  1.00  0.00    -0.373 NA
ENDBRANCH   8  10
ENDBRANCH   4   8
BRANCH   1  22
HETATM   22  O1  UNL     1      22.197   3.377  48.099  1.00  0.00    -0.351 OA
BRANCH  22  23
HETATM   23  C6  UNL     1      22.310   2.031  48.156  1.00  0.00     0.210 C 
BRANCH  23  24
HETATM   24  C5  UNL     1      21.427   1.474  49.203  1.00  0.00    -0.032 A 
HETATM   25  C4  UNL     1      21.695   0.756  50.341  1.00  0.00     0.009 A 
HETATM   26  C3  UNL     1      20.722   0.339  51.198  1.00  0.00     0.004 A 
HETATM   27  C2  UNL     1      19.395   0.631  50.948  1.00  0.00     0.042 A 
HETATM   28  C1  UNL     1      19.079   1.344  49.825  1.00  0.00     0.117 A 
HETATM   29  F1  UNL     1      17.768   1.590  49.647  1.00  0.00    -0.206 F 
HETATM   30  C21 UNL     1      20.084   1.750  48.979  1.00  0.00     0.051 A 
ENDBRANCH  23  24
ENDBRANCH  22  23
ENDBRANCH   1  22
TORSDOF 5
ENDMDL
MODEL 3
REMARK VINA RESULT:      -8.7      3.280      4.960
REMARK  5 active torsions:
REMARK  status: ('A' for Active; 'I' for Inactive)
REMARK    1  A    between atoms: C5_6  and  C6_7 
REMARK    2  A    between atoms: C6_7  and  O1_8 
REMARK    3  A    between atoms: O1_8  and  C7_9 
REMARK    4  A    between atoms: C9_12  and  N1_13 
REMARK    5  A    between atoms: N1_13  and  C10_14 
ROOT
HETATM    1  C7  UNL     1      21.349   4.923  50.387  1.00  0.00     0.311 A 
HETATM    2  O2  UNL     1      21.501   4.991  51.795  1.00  0.00    -0.325 OA
HETATM    3  C8  UNL     1      22.657   4.478  52.354  1.00  0.00     0.168 A 
HETATM    4  C9  UNL     1      23.707   3.896  51.802  1.00  0.00     0.057 A 
HETATM    5  C19 UNL     1      23.650   3.769  50.356  1.00  0.00     0.056 A 
HETATM    6  C20 UNL     1      22.556   4.260  49.833  1.00  0.00     0.069 A 
HETATM    7 CL1  UNL     1      22.330   4.184  48.085  1.00  0.00    -0.084 Cl
ENDROOT
BRANCH   4   8
HETATM    8  N1  UNL     1      24.850   3.402  52.485  1.00  0.00    -0.340 N 
HETATM    9  H8  UNL     1      25.679   4.072  52.443  1.00  0.00     0.167 HD
BRANCH   8  10
HETATM   10  C10 UNL     1      24.948   2.137  53.183  1.00  0.00     0.116 C 
HETATM   11  C11 UNL     1      24.101   1.097  52.969  1.00  0.00     0.181 C 
HETATM   12  O3  UNL     1      24.403  -0.068  53.788  1.00  0.00    -0.358 OA
HETATM   13  C12 UNL     1      25.831  -0.274  53.792  1.00  0.00     0.114 C 
HETATM   14  C13 UNL     1      26.464  -0.991  52.786  1.00  0.00     0.110 C 
HETATM   15  C14 UNL     1      27.961  -1.116  52.893  1.00  0.00    -0.022 C 
HETATM   16  C15 UNL     1      29.114  -0.814  53.569  1.00  0.00    -0.025 C 
HETATM   17  C16 UNL     1      28.785   0.023  54.753  1.00  0.00     0.073 C 
HETATM   18  C17 UNL     1      29.338   1.401  54.635  1.00  0.00     0.090 C 
HETATM   19  N2  UNL     1      28.616   2.344  54.124  1.00  0.00    -0.274 NA
HETATM   20  C18 UNL     1      27.284   2.205  53.637  1.00  0.00     0.447 C 
HETATM   21  N3  UNL     1      26.080   2.445  54.018  1.00  0.00    -0.373 NA
ENDBRANCH   8  10
ENDBRANCH   4   8
BRANCH   1  22
HETATM   22  O1  UNL     1      21.164   6.190  49.935  1.00  0.00    -0.351 OA
BRANCH  22  23
HETATM   23  C6  UNL     1      21.582   7.245  50.671  1.00  0.00     0.210 C 
BRANCH  23  24
HETATM   24  C5  UNL     1      22.715   7.929  50.013  1.00  0.00    -0.032 A 
HETATM   25  C4  UNL     1      22.768   8.828  48.978  1.00  0.00     0.009 A 
HETATM   26  C3  UNL     1      23.933   9.361  48.520  1.00  0.00     0.004 A 
HETATM   27  C2  UNL     1      25.140   9.008  49.095  1.00  0.00     0.042 A 
HETATM   28  C1  UNL     1      25.138   8.115  50.129  1.00  0.00     0.117 A 
HETATM   29  F1  UNL     1      26.349   7.818  50.638  1.00  0.00    -0.206 F 
HETATM   30  C21 UNL     1      23.944   7.593  50.569  1.00  0.00     0.051 A 
ENDBRANCH  23  24
ENDBRANCH  22  23
ENDBRANCH   1  22
TORSDOF 5
ENDMDL
MODEL 4
REMARK VINA RESULT:      -8.5      3.619      5.451
REMARK  5 active torsions:
REMARK  status: ('A' for Active; 'I' for Inactive)
REMARK    1  A    between atoms: C5_6  and  C6_7 
REMARK    2  A    between atoms: C6_7  and  O1_8 
REMARK    3  A    between atoms: O1_8  and  C7_9 
REMARK    4  A    between atoms: C9_12  and  N1_13 
REMARK    5  A    between atoms: N1_13  and  C10_14 
ROOT
HETATM    1  C7  UNL     1      22.872   4.883  49.225  1.00  0.00     0.311 A 
HETATM    2  O2  UNL     1      23.063   5.742  50.338  1.00  0.00    -0.325 OA
HETATM    3  C8  UNL     1      23.680   5.227  51.463  1.00  0.00     0.168 A 
HETATM    4  C9  UNL     1      24.148   4.019  51.723  1.00  0.00     0.057 A 
HETATM    5  C19 UNL     1      23.998   3.056  50.646  1.00  0.00     0.056 A 
HETATM    6  C20 UNL     1      23.417   3.550  49.583  1.00  0.00     0.069 A 
HETATM    7 CL1  UNL     1      23.157   2.508  48.184  1.00  0.00    -0.084 Cl
ENDROOT
BRANCH   4   8
HETATM    8  N1  UNL     1      24.769   3.600  52.930  1.00  0.00    -0.340 N 
HETATM    9  H8  UNL     1      25.231   4.404  53.458  1.00  0.00     0.167 HD
BRANCH   8  10
HETATM   10  C10 UNL     1      24.809   2.248  53.447  1.00  0.00     0.116 C 
HETATM   11  C11 UNL     1      23.885   1.303  53.139  1.00  0.00     0.181 C 
HETATM   12  O3  UNL     1      24.140   0.020  53.778  1.00  0.00    -0.358 OA
HETATM   13  C12 UNL     1      25.549  -0.275  53.682  1.00  0.00     0.114 C 
HETATM   14  C13 UNL     1      26.087  -0.885  52.558  1.00  0.00     0.110 C 
HETATM   15  C14 UNL     1      27.576  -1.117  52.569  1.00  0.00    -0.022 C 
HETATM   16  C15 UNL     1      28.774  -0.984  53.219  1.00  0.00    -0.025 C 
HETATM   17  C16 UNL     1      28.554  -0.298  54.520  1.00  0.00     0.073 C 
HETATM   18  C17 UNL     1      29.196   1.046  54.559  1.00  0.00     0.090 C 
HETATM   19  N2  UNL     1      28.520   2.094  54.217  1.00  0.00    -0.274 NA
HETATM   20  C18 UNL     1      27.162   2.107  53.785  1.00  0.00     0.447 C 
HETATM   21  N3  UNL     1      25.994   2.367  54.256  1.00  0.00    -0.373 NA
ENDBRANCH   8  10
ENDBRANCH   4   8
BRANCH   1  22
HETATM   22  O1  UNL     1      23.487   5.457  48.159  1.00  0.00    -0.351 OA
BRANCH  22  23
HETATM   23  C6  UNL     1      24.172   6.613  48.306  1.00  0.00     0.210 C 
BRANCH  23  24
HETATM   24  C5  UNL     1      25.630   6.363  48.305  1.00  0.00    -0.032 A 
HETATM   25  C4  UNL     1      26.379   5.304  48.750  1.00  0.00     0.009 A 
HETATM   26  C3  UNL     1      27.735   5.260  48.642  1.00  0.00     0.004 A 
HETATM   27  C2  UNL     1      28.427   6.308  48.065  1.00  0.00     0.042 A 
HETATM   28  C1  UNL     1      27.724   7.386  47.607  1.00  0.00     0.117 A 
HETATM   29  F1  UNL     1      28.464   8.368  47.059  1.00  0.00    -0.206 F 
HETATM   30  C21 UNL     1      26.354   7.401  47.731  1.00  0.00     0.051 A 
ENDBRANCH  23  24
ENDBRANCH  22  23
ENDBRANCH   1  22
TORSDOF 5
ENDMDL
MODEL 5
REMARK VINA RESULT:      -8.5      3.262      6.588
REMARK  5 active torsions:
REMARK  status: ('A' for Active; 'I' for Inactive)
REMARK    1  A    between atoms: C5_6  and  C6_7 
REMARK    2  A    between atoms: C6_7  and  O1_8 
REMARK    3  A    between atoms: O1_8  and  C7_9 
REMARK    4  A    between atoms: C9_12  and  N1_13 
REMARK    5  A    between atoms: N1_13  and  C10_14 
ROOT
HETATM    1  C7  UNL     1      26.725  -0.486  54.139  1.00  0.00     0.311 A 
HETATM    2  O2  UNL     1      26.567   0.843  54.608  1.00  0.00    -0.325 OA
HETATM    3  C8  UNL     1      26.469   1.859  53.675  1.00  0.00     0.168 A 
HETATM    4  C9  UNL     1      26.503   1.834  52.354  1.00  0.00     0.057 A 
HETATM    5  C19 UNL     1      26.668   0.515  51.768  1.00  0.00     0.056 A 
HETATM    6  C20 UNL     1      26.756  -0.442  52.656  1.00  0.00     0.069 A 
HETATM    7 CL1  UNL     1      26.962  -2.105  52.108  1.00  0.00    -0.084 Cl
ENDROOT
BRANCH   4   8
HETATM    8  N1  UNL     1      26.391   2.955  51.489  1.00  0.00    -0.340 N 
HETATM    9  H8  UNL     1      27.335   3.390  51.251  1.00  0.00     0.167 HD
BRANCH   8  10
HETATM   10  C10 UNL     1      25.161   3.502  50.953  1.00  0.00     0.116 C 
HETATM   11  C11 UNL     1      23.963   3.406  51.583  1.00  0.00     0.181 C 
HETATM   12  O3  UNL     1      22.875   4.034  50.848  1.00  0.00    -0.358 OA
HETATM   13  C12 UNL     1      23.334   5.302  50.334  1.00  0.00     0.114 C 
HETATM   14  C13 UNL     1      23.293   6.455  51.106  1.00  0.00     0.110 C 
HETATM   15  C14 UNL     1      23.823   7.710  50.463  1.00  0.00    -0.022 C 
HETATM   16  C15 UNL     1      24.399   8.312  49.376  1.00  0.00    -0.025 C 
HETATM   17  C16 UNL     1      24.627   7.297  48.314  1.00  0.00     0.073 C 
HETATM   18  C17 UNL     1      26.077   7.068  48.061  1.00  0.00     0.090 C 
HETATM   19  N2  UNL     1      26.702   6.130  48.694  1.00  0.00    -0.274 NA
HETATM   20  C18 UNL     1      26.130   5.247  49.655  1.00  0.00     0.447 C 
HETATM   21  N3  UNL     1      25.689   4.042  49.727  1.00  0.00    -0.373 NA
ENDBRANCH   8  10
ENDBRANCH   4   8
BRANCH   1  22
HETATM   22  O1  UNL     1      25.701  -1.220  54.644  1.00  0.00    -0.351 OA
BRANCH  22  23
HETATM   23  C6  UNL     1      24.729  -0.626  55.372  1.00  0.00     0.210 C 
BRANCH  23  24
HETATM   24  C5  UNL     1      23.410  -0.793  54.724  1.00  0.00    -0.032 A 
HETATM   25  C4  UNL     1      22.296  -1.506  55.085  1.00  0.00     0.009 A 
HETATM   26  C3  UNL     1      21.154  -1.519  54.343  1.00  0.00     0.004 A 
HETATM   27  C2  UNL     1      21.073  -0.796  53.168  1.00  0.00     0.042 A 
HETATM   28  C1  UNL     1      22.159  -0.070  52.767  1.00  0.00     0.117 A 
HETATM   29  F1  UNL     1      22.008   0.608  51.614  1.00  0.00    -0.206 F 
HETATM   30  C21 UNL     1      23.298  -0.078  53.538  1.00  0.00     0.051 A 
ENDBRANCH  23  24
ENDBRANCH  22  23
ENDBRANCH   1  22
TORSDOF 5
ENDMDL
MODEL 6
REMARK VINA RESULT:      -8.1      6.883      9.206
REMARK  5 active torsions:
REMARK  status: ('A' for Active; 'I' for Inactive)
REMARK    1  A    between atoms: C5_6  and  C6_7 
REMARK    2  A    between atoms: C6_7  and  O1_8 
REMARK    3  A    between atoms: O1_8  and  C7_9 
REMARK    4  A    between atoms: C9_12  and  N1_13 
REMARK    5  A    between atoms: N1_13  and  C10_14 
ROOT
HETATM    1  C7  UNL     1      25.981   3.757  49.758  1.00  0.00     0.311 A 
HETATM    2  O2  UNL     1      27.244   3.737  49.113  1.00  0.00    -0.325 OA
HETATM    3  C8  UNL     1      27.744   4.927  48.617  1.00  0.00     0.168 A 
HETATM    4  C9  UNL     1      27.244   6.150  48.619  1.00  0.00     0.057 A 
HETATM    5  C19 UNL     1      25.944   6.282  49.253  1.00  0.00     0.056 A 
HETATM    6  C20 UNL     1      25.477   5.153  49.724  1.00  0.00     0.069 A 
HETATM    7 CL1  UNL     1      23.906   5.141  50.524  1.00  0.00    -0.084 Cl
ENDROOT
BRANCH   4   8
HETATM    8  N1  UNL     1      27.856   7.309  48.072  1.00  0.00    -0.340 N 
HETATM    9  H8  UNL     1      27.482   7.557  47.104  1.00  0.00     0.167 HD
BRANCH   8  10
HETATM   10  C10 UNL     1      28.880   8.114  48.704  1.00  0.00     0.116 C 
HETATM   11  C11 UNL     1      30.187   7.752  48.758  1.00  0.00     0.181 C 
HETATM   12  O3  UNL     1      31.025   8.726  49.444  1.00  0.00    -0.358 OA
HETATM   13  C12 UNL     1      30.649  10.049  49.009  1.00  0.00     0.114 C 
HETATM   14  C13 UNL     1      31.178  10.612  47.856  1.00  0.00     0.110 C 
HETATM   15  C14 UNL     1      30.687  11.991  47.498  1.00  0.00    -0.022 C 
HETATM   16  C15 UNL     1      29.872  13.052  47.788  1.00  0.00    -0.025 C 
HETATM   17  C16 UNL     1      29.091  12.753  49.017  1.00  0.00     0.073 C 
HETATM   18  C17 UNL     1      27.633  12.627  48.736  1.00  0.00     0.090 C 
HETATM   19  N2  UNL     1      27.124  11.468  48.473  1.00  0.00    -0.274 NA
HETATM   20  C18 UNL     1      27.838  10.236  48.419  1.00  0.00     0.447 C 
HETATM   21  N3  UNL     1      28.048   9.200  49.151  1.00  0.00    -0.373 NA
ENDBRANCH   8  10
ENDBRANCH   4   8
BRANCH   1  22
HETATM   22  O1  UNL     1      26.156   3.269  51.013  1.00  0.00    -0.351 OA
BRANCH  22  23
HETATM   23  C6  UNL     1      25.734   2.024  51.326  1.00  0.00     0.210 C 
BRANCH  23  24
HETATM   24  C5  UNL     1      26.742   1.319  52.148  1.00  0.00    -0.032 A 
HETATM   25  C4  UNL     1      26.993  -0.014  52.345  1.00  0.00     0.009 A 
HETATM   26  C3  UNL     1      27.996  -0.467  53.147  1.00  0.00     0.004 A 
HETATM   27  C2  UNL     1      28.820   0.423  53.809  1.00  0.00     0.042 A 
HETATM   28  C1  UNL     1      28.607   1.762  53.645  1.00  0.00     0.117 A 
HETATM   29  F1  UNL     1      29.447   2.568  54.321  1.00  0.00    -0.206 F 
HETATM   30  C21 UNL     1      27.586   2.189  52.829  1.00  0.00     0.051 A 
ENDBRANCH  23  24
ENDBRANCH  22  23
ENDBRANCH   1  22
TORSDOF 5
ENDMDL
MODEL 7
REMARK VINA RESULT:      -8.1      3.753      5.192
REMARK  5 active torsions:
REMARK  status: ('A' for Active; 'I' for Inactive)
REMARK    1  A    between atoms: C5_6  and  C6_7 
REMARK    2  A    between atoms: C6_7  and  O1_8 
REMARK    3  A    between atoms: O1_8  and  C7_9 
REMARK    4  A    between atoms: C9_12  and  N1_13 
REMARK    5  A    between atoms: N1_13  and  C10_14 
ROOT
HETATM    1  C7  UNL     1      21.486   4.878  50.202  1.00  0.00     0.311 A 
HETATM    2  O2  UNL     1      21.582   4.956  51.615  1.00  0.00    -0.325 OA
HETATM    3  C8  UNL     1      22.716   4.448  52.222  1.00  0.00     0.168 A 
HETATM    4  C9  UNL     1      23.787   3.862  51.716  1.00  0.00     0.057 A 
HETATM    5  C19 UNL     1      23.787   3.725  50.270  1.00  0.00     0.056 A 
HETATM    6  C20 UNL     1      22.714   4.211  49.701  1.00  0.00     0.069 A 
HETATM    7 CL1  UNL     1      22.557   4.122  47.946  1.00  0.00    -0.084 Cl
ENDROOT
BRANCH   4   8
HETATM    8  N1  UNL     1      24.902   3.373  52.447  1.00  0.00    -0.340 N 
HETATM    9  H8  UNL     1      25.730   4.045  52.436  1.00  0.00     0.167 HD
BRANCH   8  10
HETATM   10  C10 UNL     1      24.974   2.111  53.154  1.00  0.00     0.116 C 
HETATM   11  C11 UNL     1      24.101   1.091  52.954  1.00  0.00     0.181 C 
HETATM   12  O3  UNL     1      24.381  -0.075  53.779  1.00  0.00    -0.358 OA
HETATM   13  C12 UNL     1      25.803  -0.316  53.775  1.00  0.00     0.114 C 
HETATM   14  C13 UNL     1      26.411  -1.056  52.770  1.00  0.00     0.110 C 
HETATM   15  C14 UNL     1      27.905  -1.216  52.867  1.00  0.00    -0.022 C 
HETATM   16  C15 UNL     1      29.070  -0.938  53.532  1.00  0.00    -0.025 C 
HETATM   17  C16 UNL     1      28.770  -0.084  54.712  1.00  0.00     0.073 C 
HETATM   18  C17 UNL     1      29.356   1.279  54.579  1.00  0.00     0.090 C 
HETATM   19  N2  UNL     1      28.653   2.236  54.067  1.00  0.00    -0.274 NA
HETATM   20  C18 UNL     1      27.315   2.126  53.591  1.00  0.00     0.447 C 
HETATM   21  N3  UNL     1      26.120   2.398  53.978  1.00  0.00    -0.373 NA
ENDBRANCH   8  10
ENDBRANCH   4   8
BRANCH   1  22
HETATM   22  O1  UNL     1      21.319   6.141  49.734  1.00  0.00    -0.351 OA
BRANCH  22  23
HETATM   23  C6  UNL     1      21.321   7.191  50.587  1.00  0.00     0.210 C 
BRANCH  23  24
HETATM   24  C5  UNL     1      20.985   8.444  49.877  1.00  0.00    -0.032 A 
HETATM   25  C4  UNL     1      21.727   9.265  49.067  1.00  0.00     0.009 A 
HETATM   26  C3  UNL     1      21.219  10.388  48.488  1.00  0.00     0.004 A 
HETATM   27  C2  UNL     1      19.904  10.753  48.701  1.00  0.00     0.042 A 
HETATM   28  C1  UNL     1      19.125   9.966  49.502  1.00  0.00     0.117 A 
HETATM   29  F1  UNL     1      17.856  10.384  49.664  1.00  0.00    -0.206 F 
HETATM   30  C21 UNL     1      19.667   8.838  50.073  1.00  0.00     0.051 A 
ENDBRANCH  23  24
ENDBRANCH  22  23
ENDBRANCH   1  22
TORSDOF 5
ENDMDL
MODEL 8
REMARK VINA RESULT:      -8.0      3.158      4.811
REMARK  5 active torsions:
REMARK  status: ('A' for Active; 'I' for Inactive)
REMARK    1  A    between atoms: C5_6  and  C6_7 
REMARK    2  A    between atoms: C6_7  and  O1_8 
REMARK    3  A    between atoms: O1_8  and  C7_9 
REMARK    4  A    between atoms: C9_12  and  N1_13 
REMARK    5  A    between atoms: N1_13  and  C10_14 
ROOT
HETATM    1  C7  UNL     1      21.396   3.637  49.304  1.00  0.00     0.311 A 
HETATM    2  O2  UNL     1      21.362   4.203  50.604  1.00  0.00    -0.325 OA
HETATM    3  C8  UNL     1      22.418   3.944  51.458  1.00  0.00     0.168 A 
HETATM    4  C9  UNL     1      23.515   3.224  51.294  1.00  0.00     0.057 A 
HETATM    5  C19 UNL     1      23.646   2.593  49.993  1.00  0.00     0.056 A 
HETATM    6  C20 UNL     1      22.646   2.845  49.188  1.00  0.00     0.069 A 
HETATM    7 CL1  UNL     1      22.652   2.149  47.567  1.00  0.00    -0.084 Cl
ENDROOT
BRANCH   4   8
HETATM    8  N1  UNL     1      24.542   3.028  52.254  1.00  0.00    -0.340 N 
HETATM    9  H8  UNL     1      25.195   3.867  52.340  1.00  0.00     0.167 HD
BRANCH   8  10
HETATM   10  C10 UNL     1      24.740   1.843  53.064  1.00  0.00     0.116 C 
HETATM   11  C11 UNL     1      23.958   0.737  52.973  1.00  0.00     0.181 C 
HETATM   12  O3  UNL     1      24.356  -0.324  53.887  1.00  0.00    -0.358 OA
HETATM   13  C12 UNL     1      25.794  -0.439  53.868  1.00  0.00     0.114 C 
HETATM   14  C13 UNL     1      26.447  -1.207  52.914  1.00  0.00     0.110 C 
HETATM   15  C14 UNL     1      27.952  -1.227  52.986  1.00  0.00    -0.022 C 
HETATM   16  C15 UNL     1      29.098  -0.790  53.596  1.00  0.00    -0.025 C 
HETATM   17  C16 UNL     1      28.744   0.133  54.706  1.00  0.00     0.073 C 
HETATM   18  C17 UNL     1      29.203   1.526  54.443  1.00  0.00     0.090 C 
HETATM   19  N2  UNL     1      28.408   2.369  53.869  1.00  0.00    -0.274 NA
HETATM   20  C18 UNL     1      27.077   2.101  53.438  1.00  0.00     0.447 C 
HETATM   21  N3  UNL     1      25.869   2.299  53.831  1.00  0.00    -0.373 NA
ENDBRANCH   8  10
ENDBRANCH   4   8
BRANCH   1  22
HETATM   22  O1  UNL     1      21.310   4.658  48.413  1.00  0.00    -0.351 OA
BRANCH  22  23
HETATM   23  C6  UNL     1      21.503   5.934  48.816  1.00  0.00     0.210 C 
BRANCH  23  24
HETATM   24  C5  UNL     1      22.836   6.420  48.402  1.00  0.00    -0.032 A 
HETATM   25  C4  UNL     1      24.077   6.291  48.972  1.00  0.00     0.009 A 
HETATM   26  C3  UNL     1      25.205   6.812  48.415  1.00  0.00     0.004 A 
HETATM   27  C2  UNL     1      25.141   7.507  47.222  1.00  0.00     0.042 A 
HETATM   28  C1  UNL     1      23.926   7.663  46.616  1.00  0.00     0.117 A 
HETATM   29  F1  UNL     1      23.941   8.351  45.460  1.00  0.00    -0.206 F 
HETATM   30  C21 UNL     1      22.805   7.126  47.205  1.00  0.00     0.051 A 
ENDBRANCH  23  24
ENDBRANCH  22  23
ENDBRANCH   1  22
TORSDOF 5
ENDMDL
MODEL 9
REMARK VINA RESULT:      -7.7      5.539      6.978
REMARK  5 active torsions:
REMARK  status: ('A' for Active; 'I' for Inactive)
REMARK    1  A    between atoms: C5_6  and  C6_7 
REMARK    2  A    between atoms: C6_7  and  O1_8 
REMARK    3  A    between atoms: O1_8  and  C7_9 
REMARK    4  A    between atoms: C9_12  and  N1_13 
REMARK    5  A    between atoms: N1_13  and  C10_14 
ROOT
HETATM    1  C7  UNL     1      24.167   3.249  49.356  1.00  0.00     0.311 A 
HETATM    2  O2  UNL     1      25.508   2.972  49.727  1.00  0.00    -0.325 OA
HETATM    3  C8  UNL     1      26.434   3.995  49.641  1.00  0.00     0.168 A 
HETATM    4  C9  UNL     1      26.311   5.251  49.250  1.00  0.00     0.057 A 
HETATM    5  C19 UNL     1      24.972   5.639  48.841  1.00  0.00     0.056 A 
HETATM    6  C20 UNL     1      24.099   4.668  48.929  1.00  0.00     0.069 A 
HETATM    7 CL1  UNL     1      22.425   4.975  48.467  1.00  0.00    -0.084 Cl
ENDROOT
BRANCH   4   8
HETATM    8  N1  UNL     1      27.347   6.222  49.202  1.00  0.00    -0.340 N 
HETATM    9  H8  UNL     1      27.587   6.619  50.163  1.00  0.00     0.167 HD
BRANCH   8  10
HETATM   10  C10 UNL     1      28.043   6.671  48.014  1.00  0.00     0.116 C 
HETATM   11  C11 UNL     1      27.655   7.745  47.281  1.00  0.00     0.181 C 
HETATM   12  O3  UNL     1      28.515   8.000  46.134  1.00  0.00    -0.358 OA
HETATM   13  C12 UNL     1      29.890   7.851  46.544  1.00  0.00     0.114 C 
HETATM   14  C13 UNL     1      30.591   8.897  47.126  1.00  0.00     0.110 C 
HETATM   15  C14 UNL     1      32.013   8.608  47.531  1.00  0.00    -0.022 C 
HETATM   16  C15 UNL     1      33.041   7.708  47.623  1.00  0.00    -0.025 C 
HETATM   17  C16 UNL     1      32.595   6.394  47.088  1.00  0.00     0.073 C 
HETATM   18  C17 UNL     1      32.533   5.350  48.149  1.00  0.00     0.090 C 
HETATM   19  N2  UNL     1      31.428   5.144  48.787  1.00  0.00    -0.274 NA
HETATM   20  C18 UNL     1      30.201   5.839  48.579  1.00  0.00     0.447 C 
HETATM   21  N3  UNL     1      29.075   5.667  47.984  1.00  0.00    -0.373 NA
ENDBRANCH   8  10
ENDBRANCH   4   8
BRANCH   1  22
HETATM   22  O1  UNL     1      23.381   2.961  50.425  1.00  0.00    -0.351 OA
BRANCH  22  23
HETATM   23  C6  UNL     1      23.887   3.010  51.678  1.00  0.00     0.210 C 
BRANCH  23  24
HETATM   24  C5  UNL     1      23.501   1.807  52.448  1.00  0.00    -0.032 A 
HETATM   25  C4  UNL     1      22.283   1.346  52.876  1.00  0.00     0.009 A 
HETATM   26  C3  UNL     1      22.135   0.186  53.574  1.00  0.00     0.004 A 
HETATM   27  C2  UNL     1      23.235  -0.590  53.885  1.00  0.00     0.042 A 
HETATM   28  C1  UNL     1      24.471  -0.171  53.480  1.00  0.00     0.117 A 
HETATM   29  F1  UNL     1      25.495  -0.976  53.819  1.00  0.00    -0.206 F 
HETATM   30  C21 UNL     1      24.588   1.006  52.777  1.00  0.00     0.051 A 
ENDBRANCH  23  24
ENDBRANCH  22  23
ENDBRANCH   1  22
TORSDOF 5
ENDMDL
