MODEL 1
REMARK VINA RESULT:      -7.3      0.000      0.000
REMARK  5 active torsions:
REMARK  status: ('A' for Active; 'I' for Inactive)
REMARK    1  A    between atoms: C1_2  and  C2_3 
REMARK       I    between atoms: C1_2  and  N2_13 
REMARK    2  A    between atoms: C2_3  and  S1_4 
REMARK    3  A    between atoms: S1_4  and  C3_5 
REMARK    4  A    between atoms: N2_13  and  N3_14 
REMARK       I    between atoms: N3_14  and  C9_15 
REMARK       I    between atoms: C9_15  and  N4_17 
REMARK    5  A    between atoms: N4_17  and  C10_18 
ROOT
HETATM    1  O1  UNL     1      25.306   4.095  50.535  1.00  0.00    -0.271 OA
HETATM    2  C1  UNL     1      24.306   4.134  51.279  1.00  0.00     0.245 C 
HETATM    3  N2  UNL     1      24.233   3.674  52.614  1.00  0.00    -0.265 N 
HETATM    4  H7  UNL     1      23.378   3.721  53.211  1.00  0.00     0.190 HD
ENDROOT
BRANCH   3   5
HETATM    5  N3  UNL     1      25.184   3.080  53.446  1.00  0.00    -0.249 N 
HETATM    6  C9  UNL     1      26.117   2.017  53.235  1.00  0.00     0.339 C 
HETATM    7  O2  UNL     1      26.291   1.344  52.179  1.00  0.00    -0.245 OA
HETATM    8  N4  UNL     1      26.968   1.629  54.284  1.00  0.00    -0.308 N 
HETATM    9  H9  UNL     1      26.913   2.122  55.219  1.00  0.00     0.170 HD
HETATM   10  H8  UNL     1      25.173   3.536  54.397  1.00  0.00     0.192 HD
BRANCH   8  11
HETATM   11  C10 UNL     1      27.853   0.549  53.930  1.00  0.00     0.036 A 
HETATM   12  C11 UNL     1      27.464  -0.734  53.603  1.00  0.00     0.029 A 
HETATM   13  C12 UNL     1      28.428  -1.648  53.288  1.00  0.00     0.002 A 
HETATM   14  C13 UNL     1      29.772  -1.284  53.301  1.00  0.00     0.000 A 
HETATM   15  C14 UNL     1      30.165  -0.001  53.627  1.00  0.00     0.002 A 
HETATM   16  C15 UNL     1      29.196   0.937  53.948  1.00  0.00     0.029 A 
ENDBRANCH   8  11
ENDBRANCH   3   5
BRANCH   2  17
HETATM   17  C2  UNL     1      23.004   4.717  50.781  1.00  0.00     0.180 C 
BRANCH  17  18
HETATM   18  S1  UNL     1      21.751   3.448  51.061  1.00  0.00    -0.131 SA
BRANCH  18  19
HETATM   19  C3  UNL     1      22.410   1.846  50.625  1.00  0.00     0.183 C 
HETATM   20  N1  UNL     1      22.867   1.122  51.849  1.00  0.00    -0.270 NA
HETATM   21  C4  UNL     1      21.949   0.242  52.086  1.00  0.00     0.095 C 
HETATM   22  C5  UNL     1      20.764   0.574  51.580  1.00  0.00     0.024 A 
HETATM   23  S2  UNL     1      18.993   0.891  51.455  1.00  0.00    -0.103 SA
HETATM   24  C8  UNL     1      21.325   0.880  50.216  1.00  0.00     0.086 A 
HETATM   25  C6  UNL     1      19.038   1.429  49.741  1.00  0.00     0.047 A 
HETATM   26  C7  UNL     1      20.303   1.339  49.331  1.00  0.00    -0.007 A 
ENDBRANCH  18  19
ENDBRANCH  17  18
ENDBRANCH   2  17
TORSDOF 5
ENDMDL
MODEL 2
REMARK VINA RESULT:      -7.3      1.269      1.711
REMARK  5 active torsions:
REMARK  status: ('A' for Active; 'I' for Inactive)
REMARK    1  A    between atoms: C1_2  and  C2_3 
REMARK       I    between atoms: C1_2  and  N2_13 
REMARK    2  A    between atoms: C2_3  and  S1_4 
REMARK    3  A    between atoms: S1_4  and  C3_5 
REMARK    4  A    between atoms: N2_13  and  N3_14 
REMARK       I    between atoms: N3_14  and  C9_15 
REMARK       I    between atoms: C9_15  and  N4_17 
REMARK    5  A    between atoms: N4_17  and  C10_18 
ROOT
HETATM    1  O1  UNL     1      25.152   4.338  50.630  1.00  0.00    -0.271 OA
HETATM    2  C1  UNL     1      24.145   4.352  51.365  1.00  0.00     0.245 C 
HETATM    3  N2  UNL     1      24.058   3.838  52.680  1.00  0.00    -0.265 N 
HETATM    4  H7  UNL     1      23.198   3.864  53.270  1.00  0.00     0.190 HD
ENDROOT
BRANCH   3   5
HETATM    5  N3  UNL     1      24.999   3.206  53.495  1.00  0.00    -0.249 N 
HETATM    6  C9  UNL     1      25.914   2.133  53.256  1.00  0.00     0.339 C 
HETATM    7  O2  UNL     1      26.077   1.485  52.182  1.00  0.00    -0.245 OA
HETATM    8  N4  UNL     1      26.758   1.704  54.295  1.00  0.00    -0.308 N 
HETATM    9  H9  UNL     1      26.712   2.173  55.241  1.00  0.00     0.170 HD
HETATM   10  H8  UNL     1      24.995   3.637  54.458  1.00  0.00     0.192 HD
BRANCH   8  11
HETATM   11  C10 UNL     1      27.626   0.618  53.911  1.00  0.00     0.036 A 
HETATM   12  C11 UNL     1      27.214  -0.642  53.531  1.00  0.00     0.029 A 
HETATM   13  C12 UNL     1      28.163  -1.565  53.194  1.00  0.00     0.002 A 
HETATM   14  C13 UNL     1      29.513  -1.230  53.240  1.00  0.00     0.000 A 
HETATM   15  C14 UNL     1      29.929   0.030  53.620  1.00  0.00     0.002 A 
HETATM   16  C15 UNL     1      28.975   0.976  53.963  1.00  0.00     0.029 A 
ENDBRANCH   8  11
ENDBRANCH   3   5
BRANCH   2  17
HETATM   17  C2  UNL     1      22.851   4.959  50.879  1.00  0.00     0.180 C 
BRANCH  17  18
HETATM   18  S1  UNL     1      21.531   4.066  51.728  1.00  0.00    -0.131 SA
BRANCH  18  19
HETATM   19  C3  UNL     1      20.701   2.983  50.577  1.00  0.00     0.183 C 
HETATM   20  N1  UNL     1      21.611   2.635  49.443  1.00  0.00    -0.270 NA
HETATM   21  C4  UNL     1      22.008   1.428  49.684  1.00  0.00     0.095 C 
HETATM   22  C5  UNL     1      21.952   1.107  50.975  1.00  0.00     0.024 A 
HETATM   23  S2  UNL     1      22.438   0.500  52.602  1.00  0.00    -0.103 SA
HETATM   24  C8  UNL     1      20.533   1.589  51.131  1.00  0.00     0.086 A 
HETATM   25  C6  UNL     1      20.885   0.912  53.406  1.00  0.00     0.047 A 
HETATM   26  C7  UNL     1      20.086   1.442  52.479  1.00  0.00    -0.007 A 
ENDBRANCH  18  19
ENDBRANCH  17  18
ENDBRANCH   2  17
TORSDOF 5
ENDMDL
MODEL 3
REMARK VINA RESULT:      -7.1      1.921      2.662
REMARK  5 active torsions:
REMARK  status: ('A' for Active; 'I' for Inactive)
REMARK    1  A    between atoms: C1_2  and  C2_3 
REMARK       I    between atoms: C1_2  and  N2_13 
REMARK    2  A    between atoms: C2_3  and  S1_4 
REMARK    3  A    between atoms: S1_4  and  C3_5 
REMARK    4  A    between atoms: N2_13  and  N3_14 
REMARK       I    between atoms: N3_14  and  C9_15 
REMARK       I    between atoms: C9_15  and  N4_17 
REMARK    5  A    between atoms: N4_17  and  C10_18 
ROOT
HETATM    1  O1  UNL     1      22.924   4.768  52.838  1.00  0.00    -0.271 OA
HETATM    2  C1  UNL     1      22.483   4.220  51.808  1.00  0.00     0.245 C 
HETATM    3  N2  UNL     1      23.225   3.445  50.887  1.00  0.00    -0.265 N 
HETATM    4  H7  UNL     1      22.826   2.999  50.032  1.00  0.00     0.190 HD
ENDROOT
BRANCH   3   5
HETATM    5  N3  UNL     1      24.573   3.082  50.849  1.00  0.00    -0.249 N 
HETATM    6  C9  UNL     1      25.436   2.487  51.822  1.00  0.00     0.339 C 
HETATM    7  O2  UNL     1      25.143   2.139  53.001  1.00  0.00    -0.245 OA
HETATM    8  N4  UNL     1      26.778   2.234  51.487  1.00  0.00    -0.308 N 
HETATM    9  H9  UNL     1      27.139   2.484  50.524  1.00  0.00     0.170 HD
HETATM   10  H8  UNL     1      24.985   3.311  49.906  1.00  0.00     0.192 HD
BRANCH   8  11
HETATM   11  C10 UNL     1      27.529   1.633  52.560  1.00  0.00     0.036 A 
HETATM   12  C11 UNL     1      28.347   2.307  53.443  1.00  0.00     0.029 A 
HETATM   13  C12 UNL     1      28.992   1.592  54.411  1.00  0.00     0.002 A 
HETATM   14  C13 UNL     1      28.823   0.213  54.495  1.00  0.00     0.000 A 
HETATM   15  C14 UNL     1      28.004  -0.465  53.613  1.00  0.00     0.002 A 
HETATM   16  C15 UNL     1      27.342   0.250  52.627  1.00  0.00     0.029 A 
ENDBRANCH   8  11
ENDBRANCH   3   5
BRANCH   2  17
HETATM   17  C2  UNL     1      21.025   4.349  51.436  1.00  0.00     0.180 C 
BRANCH  17  18
HETATM   18  S1  UNL     1      20.185   2.962  52.230  1.00  0.00    -0.131 SA
BRANCH  18  19
HETATM   19  C3  UNL     1      19.658   1.789  50.990  1.00  0.00     0.183 C 
HETATM   20  N1  UNL     1      20.584   1.822  49.818  1.00  0.00    -0.270 NA
HETATM   21  C4  UNL     1      21.321   0.766  49.939  1.00  0.00     0.095 C 
HETATM   22  C5  UNL     1      21.410   0.330  51.193  1.00  0.00     0.024 A 
HETATM   23  S2  UNL     1      22.113  -0.249  52.749  1.00  0.00    -0.103 SA
HETATM   24  C8  UNL     1      19.920   0.364  51.411  1.00  0.00     0.086 A 
HETATM   25  C6  UNL     1      20.540  -0.378  53.607  1.00  0.00     0.047 A 
HETATM   26  C7  UNL     1      19.587  -0.024  52.744  1.00  0.00    -0.007 A 
ENDBRANCH  18  19
ENDBRANCH  17  18
ENDBRANCH   2  17
TORSDOF 5
ENDMDL
MODEL 4
REMARK VINA RESULT:      -7.1      1.888      2.156
REMARK  5 active torsions:
REMARK  status: ('A' for Active; 'I' for Inactive)
REMARK    1  A    between atoms: C1_2  and  C2_3 
REMARK       I    between atoms: C1_2  and  N2_13 
REMARK    2  A    between atoms: C2_3  and  S1_4 
REMARK    3  A    between atoms: S1_4  and  C3_5 
REMARK    4  A    between atoms: N2_13  and  N3_14 
REMARK       I    between atoms: N3_14  and  C9_15 
REMARK       I    between atoms: C9_15  and  N4_17 
REMARK    5  A    between atoms: N4_17  and  C10_18 
ROOT
HETATM    1  O1  UNL     1      26.827   4.164  49.676  1.00  0.00    -0.271 OA
HETATM    2  C1  UNL     1      25.676   4.429  50.076  1.00  0.00     0.245 C 
HETATM    3  N2  UNL     1      25.076   3.970  51.272  1.00  0.00    -0.265 N 
HETATM    4  H7  UNL     1      24.108   4.210  51.579  1.00  0.00     0.190 HD
ENDROOT
BRANCH   3   5
HETATM    5  N3  UNL     1      25.551   3.143  52.292  1.00  0.00    -0.249 N 
HETATM    6  C9  UNL     1      26.280   1.913  52.273  1.00  0.00     0.339 C 
HETATM    7  O2  UNL     1      26.677   1.269  51.260  1.00  0.00    -0.245 OA
HETATM    8  N4  UNL     1      26.627   1.299  53.490  1.00  0.00    -0.308 N 
HETATM    9  H9  UNL     1      26.347   1.747  54.406  1.00  0.00     0.170 HD
HETATM   10  H8  UNL     1      25.298   3.545  53.234  1.00  0.00     0.192 HD
BRANCH   8  11
HETATM   11  C10 UNL     1      27.359   0.070  53.319  1.00  0.00     0.036 A 
HETATM   12  C11 UNL     1      26.824  -1.131  52.901  1.00  0.00     0.029 A 
HETATM   13  C12 UNL     1      27.653  -2.211  52.787  1.00  0.00     0.002 A 
HETATM   14  C13 UNL     1      29.006  -2.091  53.090  1.00  0.00     0.000 A 
HETATM   15  C14 UNL     1      29.545  -0.890  53.507  1.00  0.00     0.002 A 
HETATM   16  C15 UNL     1      28.714   0.214  53.626  1.00  0.00     0.029 A 
ENDBRANCH   8  11
ENDBRANCH   3   5
BRANCH   2  17
HETATM   17  C2  UNL     1      24.769   5.321  49.263  1.00  0.00     0.180 C 
BRANCH  17  18
HETATM   18  S1  UNL     1      23.154   4.514  49.252  1.00  0.00    -0.131 SA
BRANCH  18  19
HETATM   19  C3  UNL     1      23.358   2.768  48.932  1.00  0.00     0.183 C 
HETATM   20  N1  UNL     1      23.005   1.974  50.146  1.00  0.00    -0.270 NA
HETATM   21  C4  UNL     1      21.834   1.480  49.901  1.00  0.00     0.095 C 
HETATM   22  C5  UNL     1      21.145   2.189  49.011  1.00  0.00     0.024 A 
HETATM   23  S2  UNL     1      19.796   3.102  48.237  1.00  0.00    -0.103 SA
HETATM   24  C8  UNL     1      22.280   2.230  48.022  1.00  0.00     0.086 A 
HETATM   25  C6  UNL     1      20.713   3.529  46.751  1.00  0.00     0.047 A 
HETATM   26  C7  UNL     1      21.926   2.987  46.865  1.00  0.00    -0.007 A 
ENDBRANCH  18  19
ENDBRANCH  17  18
ENDBRANCH   2  17
TORSDOF 5
ENDMDL
MODEL 5
REMARK VINA RESULT:      -7.0      2.716      4.905
REMARK  5 active torsions:
REMARK  status: ('A' for Active; 'I' for Inactive)
REMARK    1  A    between atoms: C1_2  and  C2_3 
REMARK       I    between atoms: C1_2  and  N2_13 
REMARK    2  A    between atoms: C2_3  and  S1_4 
REMARK    3  A    between atoms: S1_4  and  C3_5 
REMARK    4  A    between atoms: N2_13  and  N3_14 
REMARK       I    between atoms: N3_14  and  C9_15 
REMARK       I    between atoms: C9_15  and  N4_17 
REMARK    5  A    between atoms: N4_17  and  C10_18 
ROOT
HETATM    1  O1  UNL     1      23.686   2.096  50.829  1.00  0.00    -0.271 OA
HETATM    2  C1  UNL     1      23.706   3.237  51.332  1.00  0.00     0.245 C 
HETATM    3  N2  UNL     1      24.382   3.621  52.513  1.00  0.00    -0.265 N 
HETATM    4  H7  UNL     1      24.379   4.587  52.910  1.00  0.00     0.190 HD
ENDROOT
BRANCH   3   5
HETATM    5  N3  UNL     1      25.172   2.899  53.410  1.00  0.00    -0.249 N 
HETATM    6  C9  UNL     1      26.204   1.928  53.216  1.00  0.00     0.339 C 
HETATM    7  O2  UNL     1      26.651   1.488  52.119  1.00  0.00    -0.245 OA
HETATM    8  N4  UNL     1      26.834   1.362  54.338  1.00  0.00    -0.308 N 
HETATM    9  H9  UNL     1      26.543   1.653  55.312  1.00  0.00     0.170 HD
HETATM   10  H8  UNL     1      24.922   3.153  54.402  1.00  0.00     0.192 HD
BRANCH   8  11
HETATM   11  C10 UNL     1      27.853   0.401  53.994  1.00  0.00     0.036 A 
HETATM   12  C11 UNL     1      29.212   0.583  54.147  1.00  0.00     0.029 A 
HETATM   13  C12 UNL     1      30.052  -0.427  53.774  1.00  0.00     0.002 A 
HETATM   14  C13 UNL     1      29.537  -1.609  53.249  1.00  0.00     0.000 A 
HETATM   15  C14 UNL     1      28.177  -1.795  53.094  1.00  0.00     0.002 A 
HETATM   16  C15 UNL     1      27.314  -0.777  53.471  1.00  0.00     0.029 A 
ENDBRANCH   8  11
ENDBRANCH   3   5
BRANCH   2  17
HETATM   17  C2  UNL     1      22.962   4.376  50.677  1.00  0.00     0.180 C 
BRANCH  17  18
HETATM   18  S1  UNL     1      23.998   4.924  49.304  1.00  0.00    -0.131 SA
BRANCH  18  19
HETATM   19  C3  UNL     1      25.584   5.461  49.926  1.00  0.00     0.183 C 
HETATM   20  N1  UNL     1      26.658   5.165  48.931  1.00  0.00    -0.270 NA
HETATM   21  C4  UNL     1      26.932   6.302  48.378  1.00  0.00     0.095 C 
HETATM   22  C5  UNL     1      25.925   7.169  48.440  1.00  0.00     0.024 A 
HETATM   23  S2  UNL     1      24.688   8.382  47.940  1.00  0.00    -0.103 SA
HETATM   24  C8  UNL     1      25.715   6.965  49.918  1.00  0.00     0.086 A 
HETATM   25  C6  UNL     1      23.942   8.544  49.567  1.00  0.00     0.047 A 
HETATM   26  C7  UNL     1      24.619   7.746  50.394  1.00  0.00    -0.007 A 
ENDBRANCH  18  19
ENDBRANCH  17  18
ENDBRANCH   2  17
TORSDOF 5
ENDMDL
MODEL 6
REMARK VINA RESULT:      -7.0      1.458      1.980
REMARK  5 active torsions:
REMARK  status: ('A' for Active; 'I' for Inactive)
REMARK    1  A    between atoms: C1_2  and  C2_3 
REMARK       I    between atoms: C1_2  and  N2_13 
REMARK    2  A    between atoms: C2_3  and  S1_4 
REMARK    3  A    between atoms: S1_4  and  C3_5 
REMARK    4  A    between atoms: N2_13  and  N3_14 
REMARK       I    between atoms: N3_14  and  C9_15 
REMARK       I    between atoms: C9_15  and  N4_17 
REMARK    5  A    between atoms: N4_17  and  C10_18 
ROOT
HETATM    1  O1  UNL     1      24.423   3.123  50.616  1.00  0.00    -0.271 OA
HETATM    2  C1  UNL     1      24.113   3.995  51.453  1.00  0.00     0.245 C 
HETATM    3  N2  UNL     1      24.381   3.959  52.841  1.00  0.00    -0.265 N 
HETATM    4  H7  UNL     1      24.107   4.706  53.516  1.00  0.00     0.190 HD
ENDROOT
BRANCH   3   5
HETATM    5  N3  UNL     1      25.024   3.012  53.640  1.00  0.00    -0.249 N 
HETATM    6  C9  UNL     1      26.154   2.166  53.409  1.00  0.00     0.339 C 
HETATM    7  O2  UNL     1      26.858   2.092  52.361  1.00  0.00    -0.245 OA
HETATM    8  N4  UNL     1      26.581   1.296  54.426  1.00  0.00    -0.308 N 
HETATM    9  H9  UNL     1      26.067   1.270  55.350  1.00  0.00     0.170 HD
HETATM   10  H8  UNL     1      24.550   2.945  54.579  1.00  0.00     0.192 HD
BRANCH   8  11
HETATM   11  C10 UNL     1      27.728   0.506  54.055  1.00  0.00     0.036 A 
HETATM   12  C11 UNL     1      29.046   0.879  54.218  1.00  0.00     0.029 A 
HETATM   13  C12 UNL     1      30.024   0.015  53.816  1.00  0.00     0.002 A 
HETATM   14  C13 UNL     1      29.686  -1.213  53.253  1.00  0.00     0.000 A 
HETATM   15  C14 UNL     1      28.368  -1.590  53.088  1.00  0.00     0.002 A 
HETATM   16  C15 UNL     1      27.366  -0.722  53.494  1.00  0.00     0.029 A 
ENDBRANCH   8  11
ENDBRANCH   3   5
BRANCH   2  17
HETATM   17  C2  UNL     1      23.377   5.242  51.022  1.00  0.00     0.180 C 
BRANCH  17  18
HETATM   18  S1  UNL     1      21.694   4.718  50.635  1.00  0.00    -0.131 SA
BRANCH  18  19
HETATM   19  C3  UNL     1      21.288   3.255  51.575  1.00  0.00     0.183 C 
HETATM   20  N1  UNL     1      20.058   3.487  52.390  1.00  0.00    -0.270 NA
HETATM   21  C4  UNL     1      19.112   2.866  51.761  1.00  0.00     0.095 C 
HETATM   22  C5  UNL     1      19.363   2.709  50.464  1.00  0.00     0.024 A 
HETATM   23  S2  UNL     1      19.148   2.725  48.674  1.00  0.00    -0.103 SA
HETATM   24  C8  UNL     1      20.743   2.153  50.700  1.00  0.00     0.086 A 
HETATM   25  C6  UNL     1      20.787   2.089  48.301  1.00  0.00     0.047 A 
HETATM   26  C7  UNL     1      21.403   1.875  49.465  1.00  0.00    -0.007 A 
ENDBRANCH  18  19
ENDBRANCH  17  18
ENDBRANCH   2  17
TORSDOF 5
ENDMDL
MODEL 7
REMARK VINA RESULT:      -7.0      4.483      6.602
REMARK  5 active torsions:
REMARK  status: ('A' for Active; 'I' for Inactive)
REMARK    1  A    between atoms: C1_2  and  C2_3 
REMARK       I    between atoms: C1_2  and  N2_13 
REMARK    2  A    between atoms: C2_3  and  S1_4 
REMARK    3  A    between atoms: S1_4  and  C3_5 
REMARK    4  A    between atoms: N2_13  and  N3_14 
REMARK       I    between atoms: N3_14  and  C9_15 
REMARK       I    between atoms: C9_15  and  N4_17 
REMARK    5  A    between atoms: N4_17  and  C10_18 
ROOT
HETATM    1  O1  UNL     1      27.177   4.032  49.656  1.00  0.00    -0.271 OA
HETATM    2  C1  UNL     1      26.023   4.343  50.012  1.00  0.00     0.245 C 
HETATM    3  N2  UNL     1      25.354   3.896  51.174  1.00  0.00    -0.265 N 
HETATM    4  H7  UNL     1      24.385   4.175  51.444  1.00  0.00     0.190 HD
ENDROOT
BRANCH   3   5
HETATM    5  N3  UNL     1      25.747   3.034  52.200  1.00  0.00    -0.249 N 
HETATM    6  C9  UNL     1      26.413   1.768  52.192  1.00  0.00     0.339 C 
HETATM    7  O2  UNL     1      26.815   1.117  51.186  1.00  0.00    -0.245 OA
HETATM    8  N4  UNL     1      26.681   1.124  53.412  1.00  0.00    -0.308 N 
HETATM    9  H9  UNL     1      26.390   1.576  54.323  1.00  0.00     0.170 HD
HETATM   10  H8  UNL     1      25.480   3.438  53.137  1.00  0.00     0.192 HD
BRANCH   8  11
HETATM   11  C10 UNL     1      27.356  -0.139  53.252  1.00  0.00     0.036 A 
HETATM   12  C11 UNL     1      26.761  -1.324  52.870  1.00  0.00     0.029 A 
HETATM   13  C12 UNL     1      27.540  -2.440  52.762  1.00  0.00     0.002 A 
HETATM   14  C13 UNL     1      28.903  -2.374  53.036  1.00  0.00     0.000 A 
HETATM   15  C14 UNL     1      29.502  -1.190  53.419  1.00  0.00     0.002 A 
HETATM   16  C15 UNL     1      28.722  -0.049  53.531  1.00  0.00     0.029 A 
ENDBRANCH   8  11
ENDBRANCH   3   5
BRANCH   2  17
HETATM   17  C2  UNL     1      25.193   5.287  49.175  1.00  0.00     0.180 C 
BRANCH  17  18
HETATM   18  S1  UNL     1      26.053   6.874  49.212  1.00  0.00    -0.131 SA
BRANCH  18  19
HETATM   19  C3  UNL     1      26.202   7.514  47.551  1.00  0.00     0.183 C 
HETATM   20  N1  UNL     1      25.668   8.908  47.483  1.00  0.00    -0.270 NA
HETATM   21  C4  UNL     1      26.712   9.671  47.449  1.00  0.00     0.095 C 
HETATM   22  C5  UNL     1      27.791   9.105  47.985  1.00  0.00     0.024 A 
HETATM   23  S2  UNL     1      29.262   8.864  49.000  1.00  0.00    -0.103 SA
HETATM   24  C8  UNL     1      27.634   7.833  47.194  1.00  0.00     0.086 A 
HETATM   25  C6  UNL     1      29.585   7.189  48.433  1.00  0.00     0.047 A 
HETATM   26  C7  UNL     1      28.647   6.887  47.535  1.00  0.00    -0.007 A 
ENDBRANCH  18  19
ENDBRANCH  17  18
ENDBRANCH   2  17
TORSDOF 5
ENDMDL
MODEL 8
REMARK VINA RESULT:      -6.9      2.084      3.943
REMARK  5 active torsions:
REMARK  status: ('A' for Active; 'I' for Inactive)
REMARK    1  A    between atoms: C1_2  and  C2_3 
REMARK       I    between atoms: C1_2  and  N2_13 
REMARK    2  A    between atoms: C2_3  and  S1_4 
REMARK    3  A    between atoms: S1_4  and  C3_5 
REMARK    4  A    between atoms: N2_13  and  N3_14 
REMARK       I    between atoms: N3_14  and  C9_15 
REMARK       I    between atoms: C9_15  and  N4_17 
REMARK    5  A    between atoms: N4_17  and  C10_18 
ROOT
HETATM    1  O1  UNL     1      21.930   1.081  50.188  1.00  0.00    -0.271 OA
HETATM    2  C1  UNL     1      21.442   1.708  51.148  1.00  0.00     0.245 C 
HETATM    3  N2  UNL     1      21.730   1.504  52.517  1.00  0.00    -0.265 N 
HETATM    4  H7  UNL     1      21.302   2.047  53.300  1.00  0.00     0.190 HD
ENDROOT
BRANCH   3   5
HETATM    5  N3  UNL     1      22.583   0.609  53.165  1.00  0.00    -0.249 N 
HETATM    6  C9  UNL     1      24.008   0.531  53.254  1.00  0.00     0.339 C 
HETATM    7  O2  UNL     1      24.856   1.309  52.730  1.00  0.00    -0.245 OA
HETATM    8  N4  UNL     1      24.595  -0.508  53.997  1.00  0.00    -0.308 N 
HETATM    9  H9  UNL     1      23.984  -1.223  54.482  1.00  0.00     0.170 HD
HETATM   10  H8  UNL     1      22.022  -0.130  53.669  1.00  0.00     0.192 HD
BRANCH   8  11
HETATM   11  C10 UNL     1      26.036  -0.462  54.000  1.00  0.00     0.036 A 
HETATM   12  C11 UNL     1      26.813   0.296  54.851  1.00  0.00     0.029 A 
HETATM   13  C12 UNL     1      28.171   0.229  54.728  1.00  0.00     0.002 A 
HETATM   14  C13 UNL     1      28.749  -0.589  53.761  1.00  0.00     0.000 A 
HETATM   15  C14 UNL     1      27.974  -1.350  52.907  1.00  0.00     0.002 A 
HETATM   16  C15 UNL     1      26.593  -1.291  53.023  1.00  0.00     0.029 A 
ENDBRANCH   8  11
ENDBRANCH   3   5
BRANCH   2  17
HETATM   17  C2  UNL     1      20.436   2.809  50.911  1.00  0.00     0.180 C 
BRANCH  17  18
HETATM   18  S1  UNL     1      21.315   4.100  50.005  1.00  0.00    -0.131 SA
BRANCH  18  19
HETATM   19  C3  UNL     1      21.861   5.365  51.141  1.00  0.00     0.183 C 
HETATM   20  N1  UNL     1      22.096   4.781  52.495  1.00  0.00    -0.270 NA
HETATM   21  C4  UNL     1      23.381   4.682  52.605  1.00  0.00     0.095 C 
HETATM   22  C5  UNL     1      24.001   4.607  51.430  1.00  0.00     0.024 A 
HETATM   23  S2  UNL     1      25.094   4.035  50.114  1.00  0.00    -0.103 SA
HETATM   24  C8  UNL     1      23.279   5.801  50.864  1.00  0.00     0.086 A 
HETATM   25  C6  UNL     1      24.575   5.269  48.915  1.00  0.00     0.047 A 
HETATM   26  C7  UNL     1      23.665   6.041  49.510  1.00  0.00    -0.007 A 
ENDBRANCH  18  19
ENDBRANCH  17  18
ENDBRANCH   2  17
TORSDOF 5
ENDMDL
MODEL 9
REMARK VINA RESULT:      -6.8      2.799      4.654
REMARK  5 active torsions:
REMARK  status: ('A' for Active; 'I' for Inactive)
REMARK    1  A    between atoms: C1_2  and  C2_3 
REMARK       I    between atoms: C1_2  and  N2_13 
REMARK    2  A    between atoms: C2_3  and  S1_4 
REMARK    3  A    between atoms: S1_4  and  C3_5 
REMARK    4  A    between atoms: N2_13  and  N3_14 
REMARK       I    between atoms: N3_14  and  C9_15 
REMARK       I    between atoms: C9_15  and  N4_17 
REMARK    5  A    between atoms: N4_17  and  C10_18 
ROOT
HETATM    1  O1  UNL     1      22.448   2.532  52.194  1.00  0.00    -0.271 OA
HETATM    2  C1  UNL     1      23.071   3.612  52.207  1.00  0.00     0.245 C 
HETATM    3  N2  UNL     1      24.271   3.882  52.905  1.00  0.00    -0.265 N 
HETATM    4  H7  UNL     1      24.769   4.799  52.895  1.00  0.00     0.190 HD
ENDROOT
BRANCH   3   5
HETATM    5  N3  UNL     1      25.065   3.084  53.731  1.00  0.00    -0.249 N 
HETATM    6  C9  UNL     1      26.111   2.150  53.451  1.00  0.00     0.339 C 
HETATM    7  O2  UNL     1      26.571   1.828  52.318  1.00  0.00    -0.245 OA
HETATM    8  N4  UNL     1      26.742   1.483  54.515  1.00  0.00    -0.308 N 
HETATM    9  H9  UNL     1      26.440   1.673  55.511  1.00  0.00     0.170 HD
HETATM   10  H8  UNL     1      24.805   3.234  54.742  1.00  0.00     0.192 HD
BRANCH   8  11
HETATM   11  C10 UNL     1      27.775   0.575  54.085  1.00  0.00     0.036 A 
HETATM   12  C11 UNL     1      29.132   0.814  54.153  1.00  0.00     0.029 A 
HETATM   13  C12 UNL     1      29.988  -0.151  53.705  1.00  0.00     0.002 A 
HETATM   14  C13 UNL     1      29.491  -1.346  53.190  1.00  0.00     0.000 A 
HETATM   15  C14 UNL     1      28.133  -1.588  53.121  1.00  0.00     0.002 A 
HETATM   16  C15 UNL     1      27.254  -0.616  53.574  1.00  0.00     0.029 A 
ENDBRANCH   8  11
ENDBRANCH   3   5
BRANCH   2  17
HETATM   17  C2  UNL     1      22.561   4.799  51.424  1.00  0.00     0.180 C 
BRANCH  17  18
HETATM   18  S1  UNL     1      24.025   5.721  50.907  1.00  0.00    -0.131 SA
BRANCH  18  19
HETATM   19  C3  UNL     1      24.484   5.239  49.250  1.00  0.00     0.183 C 
HETATM   20  N1  UNL     1      23.279   4.802  48.484  1.00  0.00    -0.270 NA
HETATM   21  C4  UNL     1      23.001   5.790  47.696  1.00  0.00     0.095 C 
HETATM   22  C5  UNL     1      23.457   6.958  48.141  1.00  0.00     0.024 A 
HETATM   23  S2  UNL     1      23.507   8.693  48.628  1.00  0.00    -0.103 SA
HETATM   24  C8  UNL     1      24.844   6.428  48.394  1.00  0.00     0.086 A 
HETATM   25  C6  UNL     1      25.223   8.670  49.161  1.00  0.00     0.047 A 
HETATM   26  C7  UNL     1      25.686   7.438  48.950  1.00  0.00    -0.007 A 
ENDBRANCH  18  19
ENDBRANCH  17  18
ENDBRANCH   2  17
TORSDOF 5
ENDMDL
