MODEL 1
REMARK VINA RESULT:      -7.3      0.000      0.000
REMARK  3 active torsions:
REMARK  status: ('A' for Active; 'I' for Inactive)
REMARK    1  A    between atoms: N1_2  and  C2_3 
REMARK    2  A    between atoms: C2_3  and  N2_4 
REMARK    3  A    between atoms: N2_4  and  C4_6 
ROOT
HETATM    1  C4  UNL     1      24.785   0.532  53.033  1.00  0.00     0.184 C 
HETATM    2  C5  UNL     1      23.678  -0.066  53.738  1.00  0.00     0.042 C 
HETATM    3  C6  UNL     1      22.832  -0.674  54.548  1.00  0.00     0.028 C 
HETATM    4  C7  UNL     1      21.393  -0.781  54.265  1.00  0.00     0.070 A 
HETATM    5  C8  UNL     1      21.219  -0.265  52.998  1.00  0.00     0.159 A 
HETATM    6  C9  UNL     1      21.003   0.253  51.711  1.00  0.00     0.115 A 
HETATM    7  N3  UNL     1      19.770  -0.053  51.937  1.00  0.00    -0.235 NA
HETATM    8  C10 UNL     1      19.222  -0.627  53.059  1.00  0.00     0.182 A 
HETATM    9  N4  UNL     1      20.248  -0.759  53.768  1.00  0.00    -0.250 NA
HETATM   10  N5  UNL     1      21.843   0.821  50.681  1.00  0.00    -0.378 NA
HETATM   11  C11 UNL     1      22.579   1.906  50.970  1.00  0.00     0.263 C 
HETATM   12  C12 UNL     1      22.761   2.732  52.161  1.00  0.00     0.105 C 
HETATM   13  C13 UNL     1      24.209   2.922  52.495  1.00  0.00     0.273 C 
HETATM   14  F1  UNL     1      24.148   3.923  53.538  1.00  0.00    -0.227 F 
HETATM   15  N6  UNL     1      24.980   1.904  53.037  1.00  0.00    -0.367 N 
HETATM   16  C14 UNL     1      26.358   2.353  53.095  1.00  0.00     0.148 C 
ENDROOT
BRANCH   1  17
HETATM   17  N2  UNL     1      26.090  -0.092  53.282  1.00  0.00    -0.381 N 
HETATM   18  C3  UNL     1      26.458  -1.109  52.386  1.00  0.00     0.146 C 
BRANCH  17  19
HETATM   19  C2  UNL     1      26.503  -0.133  54.611  1.00  0.00     0.236 C 
BRANCH  19  20
HETATM   20  N1  UNL     1      27.829  -0.499  54.945  1.00  0.00    -0.410 N 
HETATM   21  C1  UNL     1      28.832   0.458  54.739  1.00  0.00     0.141 C 
HETATM   22  H4  UNL     1      27.931  -1.193  55.687  1.00  0.00     0.154 HD
ENDBRANCH  19  20
ENDBRANCH  17  19
ENDBRANCH   1  17
TORSDOF 3
ENDMDL
MODEL 2
REMARK VINA RESULT:      -6.6      2.157      4.017
REMARK  3 active torsions:
REMARK  status: ('A' for Active; 'I' for Inactive)
REMARK    1  A    between atoms: N1_2  and  C2_3 
REMARK    2  A    between atoms: C2_3  and  N2_4 
REMARK    3  A    between atoms: N2_4  and  C4_6 
ROOT
HETATM    1  C4  UNL     1      23.475   1.902  52.600  1.00  0.00     0.184 C 
HETATM    2  C5  UNL     1      22.437   1.630  51.637  1.00  0.00     0.042 C 
HETATM    3  C6  UNL     1      21.628   1.502  50.602  1.00  0.00     0.028 C 
HETATM    4  C7  UNL     1      20.342   0.793  50.676  1.00  0.00     0.070 A 
HETATM    5  C8  UNL     1      20.167   0.470  52.005  1.00  0.00     0.159 A 
HETATM    6  C9  UNL     1      19.954   0.124  53.350  1.00  0.00     0.115 A 
HETATM    7  N3  UNL     1      18.852  -0.383  52.908  1.00  0.00    -0.235 NA
HETATM    8  C10 UNL     1      18.380  -0.412  51.618  1.00  0.00     0.182 A 
HETATM    9  N4  UNL     1      19.309   0.184  51.025  1.00  0.00    -0.250 NA
HETATM   10  N5  UNL     1      20.682   0.313  54.584  1.00  0.00    -0.378 NA
HETATM   11  C11 UNL     1      21.931  -0.169  54.681  1.00  0.00     0.263 C 
HETATM   12  C12 UNL     1      22.818  -0.903  53.780  1.00  0.00     0.105 C 
HETATM   13  C13 UNL     1      24.169  -0.263  53.680  1.00  0.00     0.273 C 
HETATM   14  F1  UNL     1      24.917  -1.255  52.939  1.00  0.00    -0.227 F 
HETATM   15  N6  UNL     1      24.374   0.918  52.982  1.00  0.00    -0.367 N 
HETATM   16  C14 UNL     1      25.740   1.352  53.206  1.00  0.00     0.148 C 
ENDROOT
BRANCH   1  17
HETATM   17  N2  UNL     1      24.251   3.123  52.348  1.00  0.00    -0.381 N 
HETATM   18  C3  UNL     1      23.827   4.266  53.045  1.00  0.00     0.146 C 
BRANCH  17  19
HETATM   19  C2  UNL     1      24.823   3.233  51.083  1.00  0.00     0.236 C 
BRANCH  19  20
HETATM   20  N1  UNL     1      25.883   4.141  50.846  1.00  0.00    -0.410 N 
HETATM   21  C1  UNL     1      25.781   4.969  49.720  1.00  0.00     0.141 C 
HETATM   22  H4  UNL     1      26.394   4.460  51.670  1.00  0.00     0.154 HD
ENDBRANCH  19  20
ENDBRANCH  17  19
ENDBRANCH   1  17
TORSDOF 3
ENDMDL
MODEL 3
REMARK VINA RESULT:      -6.6      2.835      5.115
REMARK  3 active torsions:
REMARK  status: ('A' for Active; 'I' for Inactive)
REMARK    1  A    between atoms: N1_2  and  C2_3 
REMARK    2  A    between atoms: C2_3  and  N2_4 
REMARK    3  A    between atoms: N2_4  and  C4_6 
ROOT
HETATM    1  C4  UNL     1      25.161   1.557  52.501  1.00  0.00     0.184 C 
HETATM    2  C5  UNL     1      25.802   2.158  51.357  1.00  0.00     0.042 C 
HETATM    3  C6  UNL     1      26.531   2.513  50.316  1.00  0.00     0.028 C 
HETATM    4  C7  UNL     1      26.305   3.759  49.569  1.00  0.00     0.070 A 
HETATM    5  C8  UNL     1      25.333   4.445  50.268  1.00  0.00     0.159 A 
HETATM    6  C9  UNL     1      24.346   5.172  50.953  1.00  0.00     0.115 A 
HETATM    7  N3  UNL     1      24.522   6.042  50.015  1.00  0.00    -0.235 NA
HETATM    8  C10 UNL     1      25.382   5.983  48.945  1.00  0.00     0.182 A 
HETATM    9  N4  UNL     1      25.924   4.872  49.151  1.00  0.00    -0.250 NA
HETATM   10  N5  UNL     1      23.570   4.966  52.155  1.00  0.00    -0.378 NA
HETATM   11  C11 UNL     1      22.798   3.872  52.248  1.00  0.00     0.263 C 
HETATM   12  C12 UNL     1      22.514   2.741  51.368  1.00  0.00     0.105 C 
HETATM   13  C13 UNL     1      22.685   1.428  52.069  1.00  0.00     0.273 C 
HETATM   14  F1  UNL     1      22.148   0.498  51.099  1.00  0.00    -0.227 F 
HETATM   15  N6  UNL     1      23.936   0.919  52.382  1.00  0.00    -0.367 N 
HETATM   16  C14 UNL     1      23.757  -0.274  53.188  1.00  0.00     0.148 C 
ENDROOT
BRANCH   1  17
HETATM   17  N2  UNL     1      26.024   0.691  53.313  1.00  0.00    -0.381 N 
HETATM   18  C3  UNL     1      26.420   1.219  54.553  1.00  0.00     0.146 C 
BRANCH  17  19
HETATM   19  C2  UNL     1      26.861  -0.170  52.608  1.00  0.00     0.236 C 
BRANCH  19  20
HETATM   20  N1  UNL     1      27.503  -1.249  53.261  1.00  0.00    -0.410 N 
HETATM   21  C1  UNL     1      28.904  -1.233  53.307  1.00  0.00     0.141 C 
HETATM   22  H4  UNL     1      26.974  -1.702  54.008  1.00  0.00     0.154 HD
ENDBRANCH  19  20
ENDBRANCH  17  19
ENDBRANCH   1  17
TORSDOF 3
ENDMDL
MODEL 4
REMARK VINA RESULT:      -6.5      2.099      5.648
REMARK  3 active torsions:
REMARK  status: ('A' for Active; 'I' for Inactive)
REMARK    1  A    between atoms: N1_2  and  C2_3 
REMARK    2  A    between atoms: C2_3  and  N2_4 
REMARK    3  A    between atoms: N2_4  and  C4_6 
ROOT
HETATM    1  C4  UNL     1      22.382   1.905  52.136  1.00  0.00     0.184 C 
HETATM    2  C5  UNL     1      23.608   2.325  52.768  1.00  0.00     0.042 C 
HETATM    3  C6  UNL     1      24.659   2.932  53.287  1.00  0.00     0.028 C 
HETATM    4  C7  UNL     1      25.753   2.208  53.951  1.00  0.00     0.070 A 
HETATM    5  C8  UNL     1      25.482   0.868  53.769  1.00  0.00     0.159 A 
HETATM    6  C9  UNL     1      25.239  -0.505  53.603  1.00  0.00     0.115 A 
HETATM    7  N3  UNL     1      26.338  -0.646  54.264  1.00  0.00    -0.235 NA
HETATM    8  C10 UNL     1      27.160   0.330  54.775  1.00  0.00     0.182 A 
HETATM    9  N4  UNL     1      26.540   1.358  54.415  1.00  0.00    -0.250 NA
HETATM   10  N5  UNL     1      24.214  -1.294  52.956  1.00  0.00    -0.378 NA
HETATM   11  C11 UNL     1      22.937  -1.137  53.338  1.00  0.00     0.263 C 
HETATM   12  C12 UNL     1      22.260  -0.302  54.328  1.00  0.00     0.105 C 
HETATM   13  C13 UNL     1      21.103   0.443  53.736  1.00  0.00     0.273 C 
HETATM   14  F1  UNL     1      20.473   1.004  54.912  1.00  0.00    -0.227 F 
HETATM   15  N6  UNL     1      21.281   1.527  52.889  1.00  0.00    -0.367 N 
HETATM   16  C14 UNL     1      19.985   1.920  52.369  1.00  0.00     0.148 C 
ENDROOT
BRANCH   1  17
HETATM   17  N2  UNL     1      21.895   2.794  51.074  1.00  0.00    -0.381 N 
HETATM   18  C3  UNL     1      22.126   2.353  49.760  1.00  0.00     0.146 C 
BRANCH  17  19
HETATM   19  C2  UNL     1      21.879   4.154  51.375  1.00  0.00     0.236 C 
BRANCH  19  20
HETATM   20  N1  UNL     1      22.543   5.086  50.541  1.00  0.00    -0.410 N 
HETATM   21  C1  UNL     1      23.646   5.760  51.079  1.00  0.00     0.141 C 
HETATM   22  H4  UNL     1      22.497   4.903  49.537  1.00  0.00     0.154 HD
ENDBRANCH  19  20
ENDBRANCH  17  19
ENDBRANCH   1  17
TORSDOF 3
ENDMDL
MODEL 5
REMARK VINA RESULT:      -6.4      2.659      5.473
REMARK  3 active torsions:
REMARK  status: ('A' for Active; 'I' for Inactive)
REMARK    1  A    between atoms: N1_2  and  C2_3 
REMARK    2  A    between atoms: C2_3  and  N2_4 
REMARK    3  A    between atoms: N2_4  and  C4_6 
ROOT
HETATM    1  C4  UNL     1      24.327   3.330  51.701  1.00  0.00     0.184 C 
HETATM    2  C5  UNL     1      23.743   2.099  52.172  1.00  0.00     0.042 C 
HETATM    3  C6  UNL     1      23.018   1.039  52.473  1.00  0.00     0.028 C 
HETATM    4  C7  UNL     1      23.498  -0.036  53.354  1.00  0.00     0.070 A 
HETATM    5  C8  UNL     1      24.715   0.395  53.842  1.00  0.00     0.159 A 
HETATM    6  C9  UNL     1      25.956   0.800  54.360  1.00  0.00     0.115 A 
HETATM    7  N3  UNL     1      25.919  -0.332  54.979  1.00  0.00    -0.235 NA
HETATM    8  C10 UNL     1      24.943  -1.299  54.937  1.00  0.00     0.182 A 
HETATM    9  N4  UNL     1      24.130  -0.765  54.146  1.00  0.00    -0.250 NA
HETATM   10  N5  UNL     1      26.791   1.971  54.221  1.00  0.00    -0.378 NA
HETATM   11  C11 UNL     1      27.212   2.325  52.996  1.00  0.00     0.263 C 
HETATM   12  C12 UNL     1      27.027   1.780  51.652  1.00  0.00     0.105 C 
HETATM   13  C13 UNL     1      26.572   2.826  50.681  1.00  0.00     0.273 C 
HETATM   14  F1  UNL     1      26.673   2.128  49.418  1.00  0.00    -0.227 F 
HETATM   15  N6  UNL     1      25.280   3.331  50.695  1.00  0.00    -0.367 N 
HETATM   16  C14 UNL     1      25.207   4.427  49.746  1.00  0.00     0.148 C 
ENDROOT
BRANCH   1  17
HETATM   17  N2  UNL     1      23.365   4.394  51.387  1.00  0.00    -0.381 N 
HETATM   18  C3  UNL     1      23.452   5.546  52.186  1.00  0.00     0.146 C 
BRANCH  17  19
HETATM   19  C2  UNL     1      22.139   3.976  50.874  1.00  0.00     0.236 C 
BRANCH  19  20
HETATM   20  N1  UNL     1      20.926   4.384  51.479  1.00  0.00    -0.410 N 
HETATM   21  C1  UNL     1      20.054   3.378  51.916  1.00  0.00     0.141 C 
HETATM   22  H4  UNL     1      20.943   5.287  51.956  1.00  0.00     0.154 HD
ENDBRANCH  19  20
ENDBRANCH  17  19
ENDBRANCH   1  17
TORSDOF 3
ENDMDL
MODEL 6
REMARK VINA RESULT:      -6.2      2.610      5.758
REMARK  3 active torsions:
REMARK  status: ('A' for Active; 'I' for Inactive)
REMARK    1  A    between atoms: N1_2  and  C2_3 
REMARK    2  A    between atoms: C2_3  and  N2_4 
REMARK    3  A    between atoms: N2_4  and  C4_6 
ROOT
HETATM    1  C4  UNL     1      23.541   1.646  52.003  1.00  0.00     0.184 C 
HETATM    2  C5  UNL     1      23.269   3.058  52.116  1.00  0.00     0.042 C 
HETATM    3  C6  UNL     1      22.834   4.280  52.357  1.00  0.00     0.028 C 
HETATM    4  C7  UNL     1      23.484   5.482  51.813  1.00  0.00     0.070 A 
HETATM    5  C8  UNL     1      24.465   5.024  50.958  1.00  0.00     0.159 A 
HETATM    6  C9  UNL     1      25.474   4.595  50.080  1.00  0.00     0.115 A 
HETATM    7  N3  UNL     1      25.677   5.858  49.907  1.00  0.00    -0.235 NA
HETATM    8  C10 UNL     1      25.020   6.917  50.484  1.00  0.00     0.182 A 
HETATM    9  N4  UNL     1      24.193   6.307  51.200  1.00  0.00    -0.250 NA
HETATM   10  N5  UNL     1      25.963   3.311  49.630  1.00  0.00    -0.378 NA
HETATM   11  C11 UNL     1      26.413   2.434  50.541  1.00  0.00     0.263 C 
HETATM   12  C12 UNL     1      26.550   2.447  51.996  1.00  0.00     0.105 C 
HETATM   13  C13 UNL     1      25.944   1.231  52.626  1.00  0.00     0.273 C 
HETATM   14  F1  UNL     1      26.386   1.353  53.999  1.00  0.00    -0.227 F 
HETATM   15  N6  UNL     1      24.571   1.057  52.719  1.00  0.00    -0.367 N 
HETATM   16  C14 UNL     1      24.312  -0.276  53.231  1.00  0.00     0.148 C 
ENDROOT
BRANCH   1  17
HETATM   17  N2  UNL     1      22.368   0.775  52.134  1.00  0.00    -0.381 N 
HETATM   18  C3  UNL     1      21.726   0.434  50.932  1.00  0.00     0.146 C 
BRANCH  17  19
HETATM   19  C2  UNL     1      21.641   0.904  53.316  1.00  0.00     0.236 C 
BRANCH  19  20
HETATM   20  N1  UNL     1      20.577   0.018  53.609  1.00  0.00    -0.410 N 
HETATM   21  C1  UNL     1      20.904  -1.204  54.214  1.00  0.00     0.141 C 
HETATM   22  H4  UNL     1      19.669   0.449  53.791  1.00  0.00     0.154 HD
ENDBRANCH  19  20
ENDBRANCH  17  19
ENDBRANCH   1  17
TORSDOF 3
ENDMDL
MODEL 7
REMARK VINA RESULT:      -6.1      8.636     10.473
REMARK  3 active torsions:
REMARK  status: ('A' for Active; 'I' for Inactive)
REMARK    1  A    between atoms: N1_2  and  C2_3 
REMARK    2  A    between atoms: C2_3  and  N2_4 
REMARK    3  A    between atoms: N2_4  and  C4_6 
ROOT
HETATM    1  C4  UNL     1      31.145   6.534  47.581  1.00  0.00     0.184 C 
HETATM    2  C5  UNL     1      29.886   5.945  47.961  1.00  0.00     0.042 C 
HETATM    3  C6  UNL     1      28.860   5.203  48.334  1.00  0.00     0.028 C 
HETATM    4  C7  UNL     1      27.495   5.733  48.465  1.00  0.00     0.070 A 
HETATM    5  C8  UNL     1      27.550   7.031  48.001  1.00  0.00     0.159 A 
HETATM    6  C9  UNL     1      27.567   8.356  47.534  1.00  0.00     0.115 A 
HETATM    7  N3  UNL     1      26.309   8.334  47.821  1.00  0.00    -0.235 NA
HETATM    8  C10 UNL     1      25.569   7.303  48.347  1.00  0.00     0.182 A 
HETATM    9  N4  UNL     1      26.454   6.423  48.457  1.00  0.00    -0.250 NA
HETATM   10  N5  UNL     1      28.574   9.236  46.986  1.00  0.00    -0.378 NA
HETATM   11  C11 UNL     1      29.669   9.502  47.715  1.00  0.00     0.263 C 
HETATM   12  C12 UNL     1      30.142   9.096  49.037  1.00  0.00     0.105 C 
HETATM   13  C13 UNL     1      31.547   8.577  48.994  1.00  0.00     0.273 C 
HETATM   14  F1  UNL     1      31.865   8.455  50.401  1.00  0.00    -0.227 F 
HETATM   15  N6  UNL     1      31.857   7.335  48.461  1.00  0.00    -0.367 N 
HETATM   16  C14 UNL     1      33.300   7.198  48.425  1.00  0.00     0.148 C 
ENDROOT
BRANCH   1  17
HETATM   17  N2  UNL     1      32.104   5.607  46.967  1.00  0.00    -0.381 N 
HETATM   18  C3  UNL     1      32.531   5.943  45.672  1.00  0.00     0.146 C 
BRANCH  17  19
HETATM   19  C2  UNL     1      31.999   4.274  47.357  1.00  0.00     0.236 C 
BRANCH  19  20
HETATM   20  N1  UNL     1      32.937   3.708  48.253  1.00  0.00    -0.410 N 
HETATM   21  C1  UNL     1      34.113   3.177  47.705  1.00  0.00     0.141 C 
HETATM   22  H4  UNL     1      32.945   4.092  49.199  1.00  0.00     0.154 HD
ENDBRANCH  19  20
ENDBRANCH  17  19
ENDBRANCH   1  17
TORSDOF 3
ENDMDL
MODEL 8
REMARK VINA RESULT:      -6.1      9.734     12.714
REMARK  3 active torsions:
REMARK  status: ('A' for Active; 'I' for Inactive)
REMARK    1  A    between atoms: N1_2  and  C2_3 
REMARK    2  A    between atoms: C2_3  and  N2_4 
REMARK    3  A    between atoms: N2_4  and  C4_6 
ROOT
HETATM    1  C4  UNL     1      30.989   7.587  47.594  1.00  0.00     0.184 C 
HETATM    2  C5  UNL     1      31.195   6.160  47.559  1.00  0.00     0.042 C 
HETATM    3  C6  UNL     1      31.144   4.843  47.497  1.00  0.00     0.028 C 
HETATM    4  C7  UNL     1      32.337   3.990  47.614  1.00  0.00     0.070 A 
HETATM    5  C8  UNL     1      33.378   4.841  47.921  1.00  0.00     0.159 A 
HETATM    6  C9  UNL     1      34.462   5.676  48.235  1.00  0.00     0.115 A 
HETATM    7  N3  UNL     1      35.140   4.577  48.234  1.00  0.00    -0.235 NA
HETATM    8  C10 UNL     1      34.697   3.300  47.989  1.00  0.00     0.182 A 
HETATM    9  N4  UNL     1      33.481   3.519  47.779  1.00  0.00    -0.250 NA
HETATM   10  N5  UNL     1      34.633   7.094  48.458  1.00  0.00    -0.378 NA
HETATM   11  C11 UNL     1      34.285   7.950  47.484  1.00  0.00     0.263 C 
HETATM   12  C12 UNL     1      33.733   7.801  46.139  1.00  0.00     0.105 C 
HETATM   13  C13 UNL     1      32.532   8.670  45.926  1.00  0.00     0.273 C 
HETATM   14  F1  UNL     1      32.305   8.527  44.504  1.00  0.00    -0.227 F 
HETATM   15  N6  UNL     1      31.304   8.382  46.503  1.00  0.00    -0.367 N 
HETATM   16  C14 UNL     1      30.402   9.487  46.236  1.00  0.00     0.148 C 
ENDROOT
BRANCH   1  17
HETATM   17  N2  UNL     1      29.669   8.012  48.074  1.00  0.00    -0.381 N 
HETATM   18  C3  UNL     1      29.671   8.809  49.230  1.00  0.00     0.146 C 
BRANCH  17  19
HETATM   19  C2  UNL     1      28.614   7.140  47.814  1.00  0.00     0.236 C 
BRANCH  19  20
HETATM   20  N1  UNL     1      27.960   6.463  48.871  1.00  0.00    -0.410 N 
HETATM   21  C1  UNL     1      27.562   5.139  48.639  1.00  0.00     0.141 C 
HETATM   22  H4  UNL     1      28.202   6.764  49.816  1.00  0.00     0.154 HD
ENDBRANCH  19  20
ENDBRANCH  17  19
ENDBRANCH   1  17
TORSDOF 3
ENDMDL
MODEL 9
REMARK VINA RESULT:      -6.1      2.207      5.905
REMARK  3 active torsions:
REMARK  status: ('A' for Active; 'I' for Inactive)
REMARK    1  A    between atoms: N1_2  and  C2_3 
REMARK    2  A    between atoms: C2_3  and  N2_4 
REMARK    3  A    between atoms: N2_4  and  C4_6 
ROOT
HETATM    1  C4  UNL     1      21.140   1.827  51.077  1.00  0.00     0.184 C 
HETATM    2  C5  UNL     1      21.954   0.912  51.839  1.00  0.00     0.042 C 
HETATM    3  C6  UNL     1      22.519  -0.081  52.499  1.00  0.00     0.028 C 
HETATM    4  C7  UNL     1      23.832   0.037  53.150  1.00  0.00     0.070 A 
HETATM    5  C8  UNL     1      24.196   1.362  53.025  1.00  0.00     0.159 A 
HETATM    6  C9  UNL     1      24.599   2.703  52.918  1.00  0.00     0.115 A 
HETATM    7  N3  UNL     1      25.642   2.304  53.566  1.00  0.00    -0.235 NA
HETATM    8  C10 UNL     1      25.935   1.041  54.021  1.00  0.00     0.182 A 
HETATM    9  N4  UNL     1      24.918   0.419  53.633  1.00  0.00    -0.250 NA
HETATM   10  N5  UNL     1      24.029   3.902  52.347  1.00  0.00    -0.378 NA
HETATM   11  C11 UNL     1      23.719   3.914  51.041  1.00  0.00     0.263 C 
HETATM   12  C12 UNL     1      23.822   2.941  49.955  1.00  0.00     0.105 C 
HETATM   13  C13 UNL     1      22.529   2.791  49.213  1.00  0.00     0.273 C 
HETATM   14  F1  UNL     1      22.924   1.977  48.084  1.00  0.00    -0.227 F 
HETATM   15  N6  UNL     1      21.441   2.125  49.757  1.00  0.00    -0.367 N 
HETATM   16  C14 UNL     1      20.309   2.291  48.865  1.00  0.00     0.148 C 
ENDROOT
BRANCH   1  17
HETATM   17  N2  UNL     1      19.695   1.577  51.146  1.00  0.00    -0.381 N 
HETATM   18  C3  UNL     1      18.937   2.570  51.788  1.00  0.00     0.146 C 
BRANCH  17  19
HETATM   19  C2  UNL     1      19.309   0.240  51.203  1.00  0.00     0.236 C 
BRANCH  19  20
HETATM   20  N1  UNL     1      18.252  -0.171  52.050  1.00  0.00    -0.410 N 
HETATM   21  C1  UNL     1      18.587  -0.951  53.165  1.00  0.00     0.141 C 
HETATM   22  H4  UNL     1      17.438   0.444  52.084  1.00  0.00     0.154 HD
ENDBRANCH  19  20
ENDBRANCH  17  19
ENDBRANCH   1  17
TORSDOF 3
ENDMDL
