MODEL 1
REMARK VINA RESULT:      -9.0      0.000      0.000
REMARK  2 active torsions:
REMARK  status: ('A' for Active; 'I' for Inactive)
REMARK    1  A    between atoms: C3_4  and  N2_5 
REMARK    2  A    between atoms: C7_9  and  C8_10 
ROOT
HETATM    1  C1  UNL     1      19.728   1.603  51.501  1.00  0.00     0.177 C 
HETATM    2  N1  UNL     1      21.114   1.857  51.731  1.00  0.00    -0.298 NA
HETATM    3  C2  UNL     1      21.775   1.320  52.686  1.00  0.00     0.070 C 
HETATM    4  C3  UNL     1      21.262   0.369  53.702  1.00  0.00     0.290 C 
HETATM    5  C4  UNL     1      22.462  -0.436  54.005  1.00  0.00     0.023 C 
HETATM    6  C5  UNL     1      23.578   0.171  53.643  1.00  0.00    -0.030 C 
HETATM    7  C6  UNL     1      24.999  -0.139  53.697  1.00  0.00     0.027 C 
HETATM    8  C7  UNL     1      25.973   0.376  52.973  1.00  0.00     0.046 C 
HETATM    9  C14 UNL     1      25.406   1.294  52.001  1.00  0.00     0.255 C 
HETATM   10  O1  UNL     1      26.071   1.933  51.155  1.00  0.00    -0.267 OA
HETATM   11  N3  UNL     1      24.034   1.610  51.840  1.00  0.00    -0.338 N 
HETATM   12  C15 UNL     1      23.419   2.030  50.577  1.00  0.00     0.154 C 
HETATM   13  C16 UNL     1      23.209   1.500  53.032  1.00  0.00     0.170 C 
ENDROOT
BRANCH   8  14
HETATM   14  C8  UNL     1      27.357   0.010  53.087  1.00  0.00     0.023 A 
HETATM   15  C9  UNL     1      27.831  -1.258  52.917  1.00  0.00     0.046 A 
HETATM   16 CL1  UNL     1      26.827  -2.603  52.340  1.00  0.00    -0.083 Cl
HETATM   17  C10 UNL     1      29.118  -1.696  53.106  1.00  0.00     0.025 A 
HETATM   18  C11 UNL     1      30.084  -0.799  53.510  1.00  0.00     0.003 A 
HETATM   19  C12 UNL     1      29.665   0.520  53.703  1.00  0.00     0.025 A 
HETATM   20  C13 UNL     1      28.353   0.866  53.491  1.00  0.00     0.046 A 
HETATM   21 CL2  UNL     1      28.139   2.549  53.898  1.00  0.00    -0.083 Cl
ENDBRANCH   8  14
BRANCH   4  22
HETATM   22  N2  UNL     1      20.167  -0.431  53.205  1.00  0.00     0.092 N 
HETATM   23  H5  UNL     1      20.218  -0.630  52.182  1.00  0.00     0.314 HD
HETATM   24  H6  UNL     1      20.095  -1.273  53.809  1.00  0.00     0.314 HD
ENDBRANCH   4  22
TORSDOF 2
ENDMDL
MODEL 2
REMARK VINA RESULT:      -8.6      1.137      2.363
REMARK  2 active torsions:
REMARK  status: ('A' for Active; 'I' for Inactive)
REMARK    1  A    between atoms: C3_4  and  N2_5 
REMARK    2  A    between atoms: C7_9  and  C8_10 
ROOT
HETATM    1  C1  UNL     1      20.940   3.464  50.100  1.00  0.00     0.177 C 
HETATM    2  N1  UNL     1      22.264   3.402  50.627  1.00  0.00    -0.298 NA
HETATM    3  C2  UNL     1      22.579   2.700  51.650  1.00  0.00     0.070 C 
HETATM    4  C3  UNL     1      21.674   1.849  52.460  1.00  0.00     0.290 C 
HETATM    5  C4  UNL     1      22.588   0.791  52.935  1.00  0.00     0.023 C 
HETATM    6  C5  UNL     1      23.856   1.153  52.859  1.00  0.00    -0.030 C 
HETATM    7  C6  UNL     1      25.137   0.538  53.176  1.00  0.00     0.027 C 
HETATM    8  C7  UNL     1      26.329   0.853  52.709  1.00  0.00     0.046 C 
HETATM    9  C14 UNL     1      26.187   1.907  51.720  1.00  0.00     0.255 C 
HETATM   10  O1  UNL     1      27.136   2.415  51.082  1.00  0.00    -0.267 OA
HETATM   11  N3  UNL     1      24.977   2.520  51.309  1.00  0.00    -0.338 N 
HETATM   12  C15 UNL     1      24.750   3.108  49.985  1.00  0.00     0.154 C 
HETATM   13  C16 UNL     1      23.910   2.550  52.295  1.00  0.00     0.170 C 
ENDROOT
BRANCH   8  14
HETATM   14  C8  UNL     1      27.550   0.191  53.073  1.00  0.00     0.023 A 
HETATM   15  C9  UNL     1      28.668   0.836  53.517  1.00  0.00     0.046 A 
HETATM   16 CL1  UNL     1      28.707   2.570  53.892  1.00  0.00    -0.083 Cl
HETATM   17  C10 UNL     1      29.894   0.282  53.788  1.00  0.00     0.025 A 
HETATM   18  C11 UNL     1      30.076  -1.073  53.611  1.00  0.00     0.003 A 
HETATM   19  C12 UNL     1      28.969  -1.795  53.158  1.00  0.00     0.025 A 
HETATM   20  C13 UNL     1      27.780  -1.153  52.911  1.00  0.00     0.046 A 
HETATM   21 CL2  UNL     1      26.634  -2.308  52.280  1.00  0.00    -0.083 Cl
ENDBRANCH   8  14
BRANCH   4  22
HETATM   22  N2  UNL     1      20.572   1.325  51.686  1.00  0.00     0.092 N 
HETATM   23  H5  UNL     1      19.710   1.144  52.245  1.00  0.00     0.314 HD
HETATM   24  H6  UNL     1      20.436   1.952  50.869  1.00  0.00     0.314 HD
ENDBRANCH   4  22
TORSDOF 2
ENDMDL
MODEL 3
REMARK VINA RESULT:      -8.5      1.596      3.480
REMARK  2 active torsions:
REMARK  status: ('A' for Active; 'I' for Inactive)
REMARK    1  A    between atoms: C3_4  and  N2_5 
REMARK    2  A    between atoms: C7_9  and  C8_10 
ROOT
HETATM    1  C1  UNL     1      20.830   4.066  51.229  1.00  0.00     0.177 C 
HETATM    2  N1  UNL     1      21.688   2.949  51.459  1.00  0.00    -0.298 NA
HETATM    3  C2  UNL     1      22.864   2.855  50.963  1.00  0.00     0.070 C 
HETATM    4  C3  UNL     1      23.544   3.841  50.088  1.00  0.00     0.290 C 
HETATM    5  C4  UNL     1      24.963   3.636  50.437  1.00  0.00     0.023 C 
HETATM    6  C5  UNL     1      25.173   2.470  51.020  1.00  0.00    -0.030 C 
HETATM    7  C6  UNL     1      26.328   1.764  51.557  1.00  0.00     0.027 C 
HETATM    8  C7  UNL     1      26.347   0.783  52.437  1.00  0.00     0.046 C 
HETATM    9  C14 UNL     1      24.990   0.530  52.892  1.00  0.00     0.255 C 
HETATM   10  O1  UNL     1      24.676  -0.333  53.742  1.00  0.00    -0.267 OA
HETATM   11  N3  UNL     1      23.819   1.206  52.469  1.00  0.00    -0.338 N 
HETATM   12  C15 UNL     1      22.615   1.377  53.288  1.00  0.00     0.154 C 
HETATM   13  C16 UNL     1      23.850   1.754  51.123  1.00  0.00     0.170 C 
ENDROOT
BRANCH   8  14
HETATM   14  C8  UNL     1      27.536   0.139  52.919  1.00  0.00     0.023 A 
HETATM   15  C9  UNL     1      28.608   0.803  53.442  1.00  0.00     0.046 A 
HETATM   16 CL1  UNL     1      28.604   2.545  53.779  1.00  0.00    -0.083 Cl
HETATM   17  C10 UNL     1      29.810   0.265  53.829  1.00  0.00     0.025 A 
HETATM   18  C11 UNL     1      30.015  -1.093  53.700  1.00  0.00     0.003 A 
HETATM   19  C12 UNL     1      28.954  -1.833  53.170  1.00  0.00     0.025 A 
HETATM   20  C13 UNL     1      27.787  -1.206  52.808  1.00  0.00     0.046 A 
HETATM   21 CL2  UNL     1      26.707  -2.384  52.108  1.00  0.00    -0.083 Cl
ENDBRANCH   8  14
BRANCH   4  22
HETATM   22  N2  UNL     1      23.101   5.194  50.333  1.00  0.00     0.092 N 
HETATM   23  H5  UNL     1      23.822   5.920  50.131  1.00  0.00     0.314 HD
HETATM   24  H6  UNL     1      22.200   5.324  49.832  1.00  0.00     0.314 HD
ENDBRANCH   4  22
TORSDOF 2
ENDMDL
MODEL 4
REMARK VINA RESULT:      -8.5      1.391      2.528
REMARK  2 active torsions:
REMARK  status: ('A' for Active; 'I' for Inactive)
REMARK    1  A    between atoms: C3_4  and  N2_5 
REMARK    2  A    between atoms: C7_9  and  C8_10 
ROOT
HETATM    1  C1  UNL     1      20.070   3.049  52.006  1.00  0.00     0.177 C 
HETATM    2  N1  UNL     1      21.093   2.060  52.118  1.00  0.00    -0.298 NA
HETATM    3  C2  UNL     1      22.207   2.131  51.493  1.00  0.00     0.070 C 
HETATM    4  C3  UNL     1      22.643   3.203  50.566  1.00  0.00     0.290 C 
HETATM    5  C4  UNL     1      24.107   3.195  50.752  1.00  0.00     0.023 C 
HETATM    6  C5  UNL     1      24.539   2.067  51.286  1.00  0.00    -0.030 C 
HETATM    7  C6  UNL     1      25.833   1.525  51.677  1.00  0.00     0.027 C 
HETATM    8  C7  UNL     1      26.084   0.554  52.531  1.00  0.00     0.046 C 
HETATM    9  C14 UNL     1      24.835   0.114  53.129  1.00  0.00     0.255 C 
HETATM   10  O1  UNL     1      24.739  -0.787  53.992  1.00  0.00    -0.267 OA
HETATM   11  N3  UNL     1      23.543   0.624  52.852  1.00  0.00    -0.338 N 
HETATM   12  C15 UNL     1      22.426   0.624  53.803  1.00  0.00     0.154 C 
HETATM   13  C16 UNL     1      23.346   1.176  51.521  1.00  0.00     0.170 C 
ENDROOT
BRANCH   8  14
HETATM   14  C8  UNL     1      27.397   0.079  52.865  1.00  0.00     0.023 A 
HETATM   15  C9  UNL     1      27.776  -1.231  52.804  1.00  0.00     0.046 A 
HETATM   16 CL1  UNL     1      26.754  -2.508  52.116  1.00  0.00    -0.083 Cl
HETATM   17  C10 UNL     1      28.976  -1.768  53.199  1.00  0.00     0.025 A 
HETATM   18  C11 UNL     1      29.946  -0.940  53.722  1.00  0.00     0.003 A 
HETATM   19  C12 UNL     1      29.623   0.416  53.813  1.00  0.00     0.025 A 
HETATM   20  C13 UNL     1      28.393   0.863  53.394  1.00  0.00     0.046 A 
HETATM   21 CL2  UNL     1      28.272   2.573  53.718  1.00  0.00    -0.083 Cl
ENDBRANCH   8  14
BRANCH   4  22
HETATM   22  N2  UNL     1      22.049   4.482  50.885  1.00  0.00     0.092 N 
HETATM   23  H5  UNL     1      22.667   5.298  50.684  1.00  0.00     0.314 HD
HETATM   24  H6  UNL     1      21.118   4.518  50.426  1.00  0.00     0.314 HD
ENDBRANCH   4  22
TORSDOF 2
ENDMDL
MODEL 5
REMARK VINA RESULT:      -8.4      4.375      6.886
REMARK  2 active torsions:
REMARK  status: ('A' for Active; 'I' for Inactive)
REMARK    1  A    between atoms: C3_4  and  N2_5 
REMARK    2  A    between atoms: C7_9  and  C8_10 
ROOT
HETATM    1  C1  UNL     1      27.301   8.581  49.322  1.00  0.00     0.177 C 
HETATM    2  N1  UNL     1      26.202   7.690  49.507  1.00  0.00    -0.298 NA
HETATM    3  C2  UNL     1      26.233   6.458  49.161  1.00  0.00     0.070 C 
HETATM    4  C3  UNL     1      27.363   5.738  48.527  1.00  0.00     0.290 C 
HETATM    5  C4  UNL     1      27.173   4.363  49.028  1.00  0.00     0.023 C 
HETATM    6  C5  UNL     1      25.946   4.154  49.467  1.00  0.00    -0.030 C 
HETATM    7  C6  UNL     1      25.222   3.032  50.048  1.00  0.00     0.027 C 
HETATM    8  C7  UNL     1      24.127   3.062  50.781  1.00  0.00     0.046 C 
HETATM    9  C14 UNL     1      23.750   4.445  51.015  1.00  0.00     0.255 C 
HETATM   10  O1  UNL     1      22.760   4.808  51.689  1.00  0.00    -0.267 OA
HETATM   11  N3  UNL     1      24.428   5.595  50.538  1.00  0.00    -0.338 N 
HETATM   12  C15 UNL     1      24.425   6.900  51.208  1.00  0.00     0.154 C 
HETATM   13  C16 UNL     1      25.165   5.433  49.296  1.00  0.00     0.170 C 
ENDROOT
BRANCH   8  14
HETATM   14  C8  UNL     1      23.473   1.903  51.321  1.00  0.00     0.023 A 
HETATM   15  C9  UNL     1      22.337   1.353  50.802  1.00  0.00     0.046 A 
HETATM   16 CL1  UNL     1      21.614   1.877  49.269  1.00  0.00    -0.083 Cl
HETATM   17  C10 UNL     1      21.607   0.311  51.320  1.00  0.00     0.025 A 
HETATM   18  C11 UNL     1      22.020  -0.286  52.491  1.00  0.00     0.003 A 
HETATM   19  C12 UNL     1      23.180   0.230  53.077  1.00  0.00     0.025 A 
HETATM   20  C13 UNL     1      23.844   1.278  52.487  1.00  0.00     0.046 A 
HETATM   21 CL2  UNL     1      25.187   1.739  53.500  1.00  0.00    -0.083 Cl
ENDBRANCH   8  14
BRANCH   4  22
HETATM   22  N2  UNL     1      28.646   6.292  48.896  1.00  0.00     0.092 N 
HETATM   23  H5  UNL     1      28.584   7.192  49.420  1.00  0.00     0.314 HD
HETATM   24  H6  UNL     1      29.183   5.544  49.378  1.00  0.00     0.314 HD
ENDBRANCH   4  22
TORSDOF 2
ENDMDL
MODEL 6
REMARK VINA RESULT:      -8.3      4.127      6.634
REMARK  2 active torsions:
REMARK  status: ('A' for Active; 'I' for Inactive)
REMARK    1  A    between atoms: C3_4  and  N2_5 
REMARK    2  A    between atoms: C7_9  and  C8_10 
ROOT
HETATM    1  C1  UNL     1      27.006   8.320  49.167  1.00  0.00     0.177 C 
HETATM    2  N1  UNL     1      25.956   7.406  49.485  1.00  0.00    -0.298 NA
HETATM    3  C2  UNL     1      26.022   6.152  49.242  1.00  0.00     0.070 C 
HETATM    4  C3  UNL     1      27.148   5.423  48.609  1.00  0.00     0.290 C 
HETATM    5  C4  UNL     1      27.043   4.090  49.233  1.00  0.00     0.023 C 
HETATM    6  C5  UNL     1      25.849   3.873  49.754  1.00  0.00    -0.030 C 
HETATM    7  C6  UNL     1      25.204   2.778  50.465  1.00  0.00     0.027 C 
HETATM    8  C7  UNL     1      24.147   2.828  51.252  1.00  0.00     0.046 C 
HETATM    9  C14 UNL     1      23.725   4.212  51.390  1.00  0.00     0.255 C 
HETATM   10  O1  UNL     1      22.757   4.592  52.084  1.00  0.00    -0.267 OA
HETATM   11  N3  UNL     1      24.328   5.341  50.783  1.00  0.00    -0.338 N 
HETATM   12  C15 UNL     1      24.304   6.697  51.341  1.00  0.00     0.154 C 
HETATM   13  C16 UNL     1      25.007   5.102  49.520  1.00  0.00     0.170 C 
ENDROOT
BRANCH   8  14
HETATM   14  C8  UNL     1      23.572   1.696  51.922  1.00  0.00     0.023 A 
HETATM   15  C9  UNL     1      24.152   1.056  52.978  1.00  0.00     0.046 A 
HETATM   16 CL1  UNL     1      25.607   1.653  53.799  1.00  0.00    -0.083 Cl
HETATM   17  C10 UNL     1      23.711  -0.086  53.602  1.00  0.00     0.025 A 
HETATM   18  C11 UNL     1      22.559  -0.697  53.155  1.00  0.00     0.003 A 
HETATM   19  C12 UNL     1      21.914  -0.091  52.073  1.00  0.00     0.025 A 
HETATM   20  C13 UNL     1      22.431   1.051  51.511  1.00  0.00     0.046 A 
HETATM   21 CL2  UNL     1      21.451   1.501  50.140  1.00  0.00    -0.083 Cl
ENDBRANCH   8  14
BRANCH   4  22
HETATM   22  N2  UNL     1      28.423   6.055  48.860  1.00  0.00     0.092 N 
HETATM   23  H5  UNL     1      28.513   6.464  49.815  1.00  0.00     0.314 HD
HETATM   24  H6  UNL     1      29.166   5.373  48.607  1.00  0.00     0.314 HD
ENDBRANCH   4  22
TORSDOF 2
ENDMDL
MODEL 7
REMARK VINA RESULT:      -8.1      2.918      6.557
REMARK  2 active torsions:
REMARK  status: ('A' for Active; 'I' for Inactive)
REMARK    1  A    between atoms: C3_4  and  N2_5 
REMARK    2  A    between atoms: C7_9  and  C8_10 
ROOT
HETATM    1  C1  UNL     1      29.400   1.699  54.204  1.00  0.00     0.177 C 
HETATM    2  N1  UNL     1      28.127   1.845  53.574  1.00  0.00    -0.298 NA
HETATM    3  C2  UNL     1      27.469   0.861  53.090  1.00  0.00     0.070 C 
HETATM    4  C3  UNL     1      27.873  -0.566  53.081  1.00  0.00     0.290 C 
HETATM    5  C4  UNL     1      26.570  -1.257  53.130  1.00  0.00     0.023 C 
HETATM    6  C5  UNL     1      25.573  -0.474  52.758  1.00  0.00    -0.030 C 
HETATM    7  C6  UNL     1      24.131  -0.617  52.617  1.00  0.00     0.027 C 
HETATM    8  C7  UNL     1      23.217   0.333  52.599  1.00  0.00     0.046 C 
HETATM    9  C14 UNL     1      23.861   1.615  52.827  1.00  0.00     0.255 C 
HETATM   10  O1  UNL     1      23.261   2.711  52.881  1.00  0.00    -0.267 OA
HETATM   11  N3  UNL     1      25.245   1.838  53.031  1.00  0.00    -0.338 N 
HETATM   12  C15 UNL     1      25.803   2.950  53.807  1.00  0.00     0.154 C 
HETATM   13  C16 UNL     1      26.145   0.878  52.413  1.00  0.00     0.170 C 
ENDROOT
BRANCH   8  14
HETATM   14  C8  UNL     1      21.806   0.106  52.458  1.00  0.00     0.023 A 
HETATM   15  C9  UNL     1      21.083   0.445  51.351  1.00  0.00     0.046 A 
HETATM   16 CL1  UNL     1      21.821   1.039  49.851  1.00  0.00    -0.083 Cl
HETATM   17  C10 UNL     1      19.723   0.350  51.186  1.00  0.00     0.025 A 
HETATM   18  C11 UNL     1      18.951  -0.138  52.218  1.00  0.00     0.003 A 
HETATM   19  C12 UNL     1      19.630  -0.505  53.383  1.00  0.00     0.025 A 
HETATM   20  C13 UNL     1      20.995  -0.372  53.458  1.00  0.00     0.046 A 
HETATM   21 CL2  UNL     1      21.521  -0.829  55.057  1.00  0.00    -0.083 Cl
ENDBRANCH   8  14
BRANCH   4  22
HETATM   22  N2  UNL     1      28.724  -0.903  54.200  1.00  0.00     0.092 N 
HETATM   23  H5  UNL     1      28.210  -1.033  55.099  1.00  0.00     0.314 HD
HETATM   24  H6  UNL     1      29.311  -1.712  53.914  1.00  0.00     0.314 HD
ENDBRANCH   4  22
TORSDOF 2
ENDMDL
MODEL 8
REMARK VINA RESULT:      -7.8      3.003      6.794
REMARK  2 active torsions:
REMARK  status: ('A' for Active; 'I' for Inactive)
REMARK    1  A    between atoms: C3_4  and  N2_5 
REMARK    2  A    between atoms: C7_9  and  C8_10 
ROOT
HETATM    1  C1  UNL     1      30.012  -1.276  53.716  1.00  0.00     0.177 C 
HETATM    2  N1  UNL     1      28.592  -1.207  53.841  1.00  0.00    -0.298 NA
HETATM    3  C2  UNL     1      27.964  -0.122  54.100  1.00  0.00     0.070 C 
HETATM    4  C3  UNL     1      28.555   1.221  54.315  1.00  0.00     0.290 C 
HETATM    5  C4  UNL     1      27.481   2.111  53.832  1.00  0.00     0.023 C 
HETATM    6  C5  UNL     1      26.308   1.504  53.789  1.00  0.00    -0.030 C 
HETATM    7  C6  UNL     1      24.953   1.879  53.410  1.00  0.00     0.027 C 
HETATM    8  C7  UNL     1      23.959   1.088  53.058  1.00  0.00     0.046 C 
HETATM    9  C14 UNL     1      24.435  -0.284  53.020  1.00  0.00     0.255 C 
HETATM   10  O1  UNL     1      23.732  -1.271  52.706  1.00  0.00    -0.267 OA
HETATM   11  N3  UNL     1      25.747  -0.729  53.315  1.00  0.00    -0.338 N 
HETATM   12  C15 UNL     1      26.367  -1.929  52.744  1.00  0.00     0.154 C 
HETATM   13  C16 UNL     1      26.500   0.084  54.256  1.00  0.00     0.170 C 
ENDROOT
BRANCH   8  14
HETATM   14  C8  UNL     1      22.645   1.540  52.693  1.00  0.00     0.023 A 
HETATM   15  C9  UNL     1      22.397   2.473  51.729  1.00  0.00     0.046 A 
HETATM   16 CL1  UNL     1      23.651   3.119  50.653  1.00  0.00    -0.083 Cl
HETATM   17  C10 UNL     1      21.183   3.022  51.397  1.00  0.00     0.025 A 
HETATM   18  C11 UNL     1      20.053   2.623  52.079  1.00  0.00     0.003 A 
HETATM   19  C12 UNL     1      20.237   1.667  53.082  1.00  0.00     0.025 A 
HETATM   20  C13 UNL     1      21.493   1.175  53.346  1.00  0.00     0.046 A 
HETATM   21 CL2  UNL     1      21.398   0.076  54.697  1.00  0.00    -0.083 Cl
ENDBRANCH   8  14
BRANCH   4  22
HETATM   22  N2  UNL     1      29.793   1.401  53.591  1.00  0.00     0.092 N 
HETATM   23  H5  UNL     1      29.787   0.987  52.633  1.00  0.00     0.314 HD
HETATM   24  H6  UNL     1      30.032   2.411  53.626  1.00  0.00     0.314 HD
ENDBRANCH   4  22
TORSDOF 2
ENDMDL
MODEL 9
REMARK VINA RESULT:      -7.6      2.472      3.977
REMARK  2 active torsions:
REMARK  status: ('A' for Active; 'I' for Inactive)
REMARK    1  A    between atoms: C3_4  and  N2_5 
REMARK    2  A    between atoms: C7_9  and  C8_10 
ROOT
HETATM    1  C1  UNL     1      18.585   5.001  49.353  1.00  0.00     0.177 C 
HETATM    2  N1  UNL     1      19.476   4.513  50.355  1.00  0.00    -0.298 NA
HETATM    3  C2  UNL     1      19.811   3.282  50.455  1.00  0.00     0.070 C 
HETATM    4  C3  UNL     1      19.363   2.162  49.592  1.00  0.00     0.290 C 
HETATM    5  C4  UNL     1      20.523   1.251  49.640  1.00  0.00     0.023 C 
HETATM    6  C5  UNL     1      21.310   1.495  50.672  1.00  0.00    -0.030 C 
HETATM    7  C6  UNL     1      22.546   0.933  51.198  1.00  0.00     0.027 C 
HETATM    8  C7  UNL     1      23.417   1.499  52.009  1.00  0.00     0.046 C 
HETATM    9  C14 UNL     1      23.003   2.867  52.270  1.00  0.00     0.255 C 
HETATM   10  O1  UNL     1      23.629   3.674  52.992  1.00  0.00    -0.267 OA
HETATM   11  N3  UNL     1      21.851   3.511  51.754  1.00  0.00    -0.338 N 
HETATM   12  C15 UNL     1      21.737   4.955  51.525  1.00  0.00     0.154 C 
HETATM   13  C16 UNL     1      20.722   2.649  51.445  1.00  0.00     0.170 C 
ENDROOT
BRANCH   8  14
HETATM   14  C8  UNL     1      24.621   0.874  52.481  1.00  0.00     0.023 A 
HETATM   15  C9  UNL     1      25.862   1.117  51.969  1.00  0.00     0.046 A 
HETATM   16 CL1  UNL     1      26.190   2.387  50.774  1.00  0.00    -0.083 Cl
HETATM   17  C10 UNL     1      27.036   0.488  52.301  1.00  0.00     0.025 A 
HETATM   18  C11 UNL     1      27.021  -0.508  53.255  1.00  0.00     0.003 A 
HETATM   19  C12 UNL     1      25.779  -0.807  53.822  1.00  0.00     0.025 A 
HETATM   20  C13 UNL     1      24.655  -0.125  53.424  1.00  0.00     0.046 A 
HETATM   21 CL2  UNL     1      23.269  -0.788  54.248  1.00  0.00    -0.083 Cl
ENDBRANCH   8  14
BRANCH   4  22
HETATM   22  N2  UNL     1      19.049   2.593  48.249  1.00  0.00     0.092 N 
HETATM   23  H5  UNL     1      18.051   2.452  47.980  1.00  0.00     0.314 HD
HETATM   24  H6  UNL     1      19.395   3.568  48.144  1.00  0.00     0.314 HD
ENDBRANCH   4  22
TORSDOF 2
ENDMDL
