MODEL 1
REMARK VINA RESULT:      -8.0      0.000      0.000
REMARK  8 active torsions:
REMARK  status: ('A' for Active; 'I' for Inactive)
REMARK    1  A    between atoms: C2_2  and  C3_3 
REMARK    2  A    between atoms: C2_2  and  N4_19 
REMARK    3  A    between atoms: C4_4  and  N1_5 
REMARK    4  A    between atoms: N1_5  and  C6_7 
REMARK    5  A    between atoms: C10_13  and  O1_14 
REMARK    6  A    between atoms: O1_14  and  C11_15 
REMARK    7  A    between atoms: C11_15  and  O2_16 
REMARK       I    between atoms: N4_19  and  C14_20 
REMARK       I    between atoms: C14_20  and  N5_22 
REMARK    8  A    between atoms: N5_22  and  C15_23 
ROOT
HETATM    1  C3  UNL     1      26.901   5.653  48.892  1.00  0.00     0.016 C 
HETATM    2  C4  UNL     1      28.051   5.129  48.536  1.00  0.00     0.090 C 
ENDROOT
BRANCH   1   3
HETATM    3  C2  UNL     1      25.690   5.061  49.447  1.00  0.00     0.036 C 
HETATM    4  C1  UNL     1      24.478   5.059  48.863  1.00  0.00     0.104 C 
BRANCH   3   5
HETATM    5  N4  UNL     1      25.722   4.412  50.698  1.00  0.00    -0.335 N 
HETATM    6  C14 UNL     1      26.248   3.185  51.106  1.00  0.00     0.321 C 
HETATM    7  O3  UNL     1      26.810   2.532  50.154  1.00  0.00    -0.247 OA
HETATM    8  N5  UNL     1      26.254   2.575  52.374  1.00  0.00    -0.309 N 
HETATM    9  H16 UNL     1      25.769   3.161  53.120  1.00  0.00     0.170 HD
HETATM   10  H15 UNL     1      25.274   4.914  51.522  1.00  0.00     0.165 HD
BRANCH   8  11
HETATM   11  C15 UNL     1      26.844   1.309  52.623  1.00  0.00     0.036 A 
HETATM   12  C16 UNL     1      26.103   0.179  52.273  1.00  0.00     0.029 A 
HETATM   13  C17 UNL     1      26.719  -1.032  52.539  1.00  0.00     0.002 A 
HETATM   14  C18 UNL     1      27.988  -1.147  53.113  1.00  0.00     0.000 A 
HETATM   15  C19 UNL     1      28.636   0.020  53.422  1.00  0.00     0.002 A 
HETATM   16  C20 UNL     1      28.098   1.252  53.193  1.00  0.00     0.029 A 
ENDBRANCH   8  11
ENDBRANCH   3   5
ENDBRANCH   1   3
BRANCH   2  17
HETATM   17  N1  UNL     1      29.154   5.845  48.000  1.00  0.00    -0.345 N 
HETATM   18  C5  UNL     1      28.749   7.051  47.307  1.00  0.00     0.157 C 
BRANCH  17  19
HETATM   19  C6  UNL     1      30.564   5.642  47.998  1.00  0.00     0.146 A 
HETATM   20  N2  UNL     1      31.226   4.548  47.559  1.00  0.00    -0.223 NA
HETATM   21  C7  UNL     1      32.566   4.463  47.601  1.00  0.00     0.236 A 
HETATM   22  N3  UNL     1      33.328   5.440  48.076  1.00  0.00    -0.241 NA
HETATM   23  C8  UNL     1      32.795   6.579  48.543  1.00  0.00     0.077 A 
HETATM   24  C9  UNL     1      31.418   6.618  48.477  1.00  0.00     0.072 A 
HETATM   25  C13 UNL     1      32.744   7.936  49.134  1.00  0.00     0.070 A 
HETATM   26  C10 UNL     1      31.428   7.957  49.064  1.00  0.00     0.090 A 
BRANCH  26  27
HETATM   27  O1  UNL     1      30.706   9.036  49.493  1.00  0.00    -0.325 OA
BRANCH  27  28
HETATM   28  C11 UNL     1      30.357  10.154  48.730  1.00  0.00     0.344 C 
BRANCH  28  29
HETATM   29  O2  UNL     1      30.781  11.324  49.348  1.00  0.00    -0.371 OA
HETATM   30  C12 UNL     1      30.097  12.422  48.858  1.00  0.00     0.204 C 
ENDBRANCH  28  29
ENDBRANCH  27  28
ENDBRANCH  26  27
ENDBRANCH  17  19
ENDBRANCH   2  17
TORSDOF 8
ENDMDL
MODEL 2
REMARK VINA RESULT:      -7.9      6.683     10.867
REMARK  8 active torsions:
REMARK  status: ('A' for Active; 'I' for Inactive)
REMARK    1  A    between atoms: C2_2  and  C3_3 
REMARK    2  A    between atoms: C2_2  and  N4_19 
REMARK    3  A    between atoms: C4_4  and  N1_5 
REMARK    4  A    between atoms: N1_5  and  C6_7 
REMARK    5  A    between atoms: C10_13  and  O1_14 
REMARK    6  A    between atoms: O1_14  and  C11_15 
REMARK    7  A    between atoms: C11_15  and  O2_16 
REMARK       I    between atoms: N4_19  and  C14_20 
REMARK       I    between atoms: C14_20  and  N5_22 
REMARK    8  A    between atoms: N5_22  and  C15_23 
ROOT
HETATM    1  C3  UNL     1      22.462   2.392  51.273  1.00  0.00     0.016 C 
HETATM    2  C4  UNL     1      21.163   2.242  51.376  1.00  0.00     0.090 C 
ENDROOT
BRANCH   1   3
HETATM    3  C2  UNL     1      23.419   3.169  52.050  1.00  0.00     0.036 C 
HETATM    4  C1  UNL     1      23.651   4.488  51.920  1.00  0.00     0.104 C 
BRANCH   3   5
HETATM    5  N4  UNL     1      24.198   2.550  53.049  1.00  0.00    -0.335 N 
HETATM    6  C14 UNL     1      25.382   1.813  52.994  1.00  0.00     0.321 C 
HETATM    7  O3  UNL     1      25.842   1.681  51.804  1.00  0.00    -0.247 OA
HETATM    8  N5  UNL     1      26.126   1.209  54.025  1.00  0.00    -0.309 N 
HETATM    9  H16 UNL     1      25.691   1.348  54.988  1.00  0.00     0.170 HD
HETATM   10  H15 UNL     1      23.861   2.635  54.056  1.00  0.00     0.165 HD
BRANCH   8  11
HETATM   11  C15 UNL     1      27.326   0.489  53.797  1.00  0.00     0.036 A 
HETATM   12  C16 UNL     1      28.527   1.160  54.030  1.00  0.00     0.029 A 
HETATM   13  C17 UNL     1      29.671   0.417  53.790  1.00  0.00     0.002 A 
HETATM   14  C18 UNL     1      29.656  -0.909  53.349  1.00  0.00     0.000 A 
HETATM   15  C19 UNL     1      28.426  -1.481  53.150  1.00  0.00     0.002 A 
HETATM   16  C20 UNL     1      27.254  -0.817  53.362  1.00  0.00     0.029 A 
ENDBRANCH   8  11
ENDBRANCH   3   5
ENDBRANCH   1   3
BRANCH   2  17
HETATM   17  N1  UNL     1      20.355   1.439  50.528  1.00  0.00    -0.345 N 
HETATM   18  C5  UNL     1      21.026   1.081  49.296  1.00  0.00     0.157 C 
BRANCH  17  19
HETATM   19  C6  UNL     1      19.036   0.908  50.624  1.00  0.00     0.146 A 
HETATM   20  N2  UNL     1      18.002   1.144  49.785  1.00  0.00    -0.223 NA
HETATM   21  C7  UNL     1      16.795   0.586  49.970  1.00  0.00     0.236 A 
HETATM   22  N3  UNL     1      16.533  -0.231  50.983  1.00  0.00    -0.241 NA
HETATM   23  C8  UNL     1      17.473  -0.546  51.886  1.00  0.00     0.077 A 
HETATM   24  C9  UNL     1      18.694   0.051  51.653  1.00  0.00     0.072 A 
HETATM   25  C13 UNL     1      18.081  -1.184  53.077  1.00  0.00     0.070 A 
HETATM   26  C10 UNL     1      19.241  -0.605  52.840  1.00  0.00     0.090 A 
BRANCH  26  27
HETATM   27  O1  UNL     1      20.321  -0.807  53.654  1.00  0.00    -0.325 OA
BRANCH  27  28
HETATM   28  C11 UNL     1      20.959   0.159  54.437  1.00  0.00     0.344 C 
BRANCH  28  29
HETATM   29  O2  UNL     1      22.279   0.326  54.034  1.00  0.00    -0.371 OA
HETATM   30  C12 UNL     1      22.800  -0.855  53.536  1.00  0.00     0.204 C 
ENDBRANCH  28  29
ENDBRANCH  27  28
ENDBRANCH  26  27
ENDBRANCH  17  19
ENDBRANCH   2  17
TORSDOF 8
ENDMDL
MODEL 3
REMARK VINA RESULT:      -7.9      3.697      9.375
REMARK  8 active torsions:
REMARK  status: ('A' for Active; 'I' for Inactive)
REMARK    1  A    between atoms: C2_2  and  C3_3 
REMARK    2  A    between atoms: C2_2  and  N4_19 
REMARK    3  A    between atoms: C4_4  and  N1_5 
REMARK    4  A    between atoms: N1_5  and  C6_7 
REMARK    5  A    between atoms: C10_13  and  O1_14 
REMARK    6  A    between atoms: O1_14  and  C11_15 
REMARK    7  A    between atoms: C11_15  and  O2_16 
REMARK       I    between atoms: N4_19  and  C14_20 
REMARK       I    between atoms: C14_20  and  N5_22 
REMARK    8  A    between atoms: N5_22  and  C15_23 
ROOT
HETATM    1  C3  UNL     1      23.074   4.096  51.288  1.00  0.00     0.016 C 
HETATM    2  C4  UNL     1      22.542   3.295  52.181  1.00  0.00     0.090 C 
ENDROOT
BRANCH   1   3
HETATM    3  C2  UNL     1      23.144   5.549  51.200  1.00  0.00     0.036 C 
HETATM    4  C1  UNL     1      22.092   6.387  51.166  1.00  0.00     0.104 C 
BRANCH   3   5
HETATM    5  N4  UNL     1      24.393   6.201  51.150  1.00  0.00    -0.335 N 
HETATM    6  C14 UNL     1      25.229   6.551  50.088  1.00  0.00     0.321 C 
HETATM    7  O3  UNL     1      24.761   6.211  48.942  1.00  0.00    -0.247 OA
HETATM    8  N5  UNL     1      26.475   7.203  50.088  1.00  0.00    -0.309 N 
HETATM    9  H16 UNL     1      26.814   7.454  51.067  1.00  0.00     0.170 HD
HETATM   10  H15 UNL     1      24.823   6.508  52.075  1.00  0.00     0.165 HD
BRANCH   8  11
HETATM   11  C15 UNL     1      27.201   7.491  48.904  1.00  0.00     0.036 A 
HETATM   12  C16 UNL     1      28.111   6.529  48.464  1.00  0.00     0.029 A 
HETATM   13  C17 UNL     1      28.797   6.857  47.307  1.00  0.00     0.002 A 
HETATM   14  C18 UNL     1      28.613   8.053  46.608  1.00  0.00     0.000 A 
HETATM   15  C19 UNL     1      27.696   8.933  47.120  1.00  0.00     0.002 A 
HETATM   16  C20 UNL     1      26.981   8.686  48.254  1.00  0.00     0.029 A 
ENDBRANCH   8  11
ENDBRANCH   3   5
ENDBRANCH   1   3
BRANCH   2  17
HETATM   17  N1  UNL     1      22.551   1.876  52.127  1.00  0.00    -0.345 N 
HETATM   18  C5  UNL     1      22.467   1.371  50.773  1.00  0.00     0.157 C 
BRANCH  17  19
HETATM   19  C6  UNL     1      22.629   0.845  53.108  1.00  0.00     0.146 A 
HETATM   20  N2  UNL     1      21.610   0.345  53.842  1.00  0.00    -0.223 NA
HETATM   21  C7  UNL     1      21.797  -0.635  54.743  1.00  0.00     0.236 A 
HETATM   22  N3  UNL     1      22.987  -1.175  54.973  1.00  0.00    -0.241 NA
HETATM   23  C8  UNL     1      24.079  -0.767  54.312  1.00  0.00     0.077 A 
HETATM   24  C9  UNL     1      23.836   0.238  53.399  1.00  0.00     0.072 A 
HETATM   25  C13 UNL     1      25.502  -0.707  53.905  1.00  0.00     0.070 A 
HETATM   26  C10 UNL     1      25.253   0.253  53.038  1.00  0.00     0.090 A 
BRANCH  26  27
HETATM   27  O1  UNL     1      26.244   0.796  52.269  1.00  0.00    -0.325 OA
BRANCH  27  28
HETATM   28  C11 UNL     1      26.563   2.154  52.169  1.00  0.00     0.344 C 
BRANCH  28  29
HETATM   29  O2  UNL     1      27.938   2.342  52.226  1.00  0.00    -0.371 OA
HETATM   30  C12 UNL     1      28.385   2.358  53.536  1.00  0.00     0.204 C 
ENDBRANCH  28  29
ENDBRANCH  27  28
ENDBRANCH  26  27
ENDBRANCH  17  19
ENDBRANCH   2  17
TORSDOF 8
ENDMDL
MODEL 4
REMARK VINA RESULT:      -7.8      1.675      2.262
REMARK  8 active torsions:
REMARK  status: ('A' for Active; 'I' for Inactive)
REMARK    1  A    between atoms: C2_2  and  C3_3 
REMARK    2  A    between atoms: C2_2  and  N4_19 
REMARK    3  A    between atoms: C4_4  and  N1_5 
REMARK    4  A    between atoms: N1_5  and  C6_7 
REMARK    5  A    between atoms: C10_13  and  O1_14 
REMARK    6  A    between atoms: O1_14  and  C11_15 
REMARK    7  A    between atoms: C11_15  and  O2_16 
REMARK       I    between atoms: N4_19  and  C14_20 
REMARK       I    between atoms: C14_20  and  N5_22 
REMARK    8  A    between atoms: N5_22  and  C15_23 
ROOT
HETATM    1  C3  UNL     1      26.795   5.643  49.014  1.00  0.00     0.016 C 
HETATM    2  C4  UNL     1      26.926   6.646  48.178  1.00  0.00     0.090 C 
ENDROOT
BRANCH   1   3
HETATM    3  C2  UNL     1      25.621   4.959  49.542  1.00  0.00     0.036 C 
HETATM    4  C1  UNL     1      24.423   4.871  48.935  1.00  0.00     0.104 C 
BRANCH   3   5
HETATM    5  N4  UNL     1      25.678   4.304  50.788  1.00  0.00    -0.335 N 
HETATM    6  C14 UNL     1      26.287   3.116  51.199  1.00  0.00     0.321 C 
HETATM    7  O3  UNL     1      26.913   2.515  50.254  1.00  0.00    -0.247 OA
HETATM    8  N5  UNL     1      26.314   2.498  52.463  1.00  0.00    -0.309 N 
HETATM    9  H16 UNL     1      25.773   3.040  53.203  1.00  0.00     0.170 HD
HETATM   10  H15 UNL     1      25.178   4.765  51.607  1.00  0.00     0.165 HD
BRANCH   8  11
HETATM   11  C15 UNL     1      26.992   1.278  52.716  1.00  0.00     0.036 A 
HETATM   12  C16 UNL     1      28.265   1.359  53.280  1.00  0.00     0.029 A 
HETATM   13  C17 UNL     1      28.887   0.143  53.505  1.00  0.00     0.002 A 
HETATM   14  C18 UNL     1      28.306  -1.092  53.201  1.00  0.00     0.000 A 
HETATM   15  C19 UNL     1      27.052  -1.068  52.650  1.00  0.00     0.002 A 
HETATM   16  C20 UNL     1      26.374   0.088  52.397  1.00  0.00     0.029 A 
ENDBRANCH   8  11
ENDBRANCH   3   5
ENDBRANCH   1   3
BRANCH   2  17
HETATM   17  N1  UNL     1      28.157   7.213  47.755  1.00  0.00    -0.345 N 
HETATM   18  C5  UNL     1      28.055   7.860  46.463  1.00  0.00     0.157 C 
BRANCH  17  19
HETATM   19  C6  UNL     1      29.462   7.290  48.321  1.00  0.00     0.146 A 
HETATM   20  N2  UNL     1      30.363   6.287  48.423  1.00  0.00    -0.223 NA
HETATM   21  C7  UNL     1      31.573   6.471  48.975  1.00  0.00     0.236 A 
HETATM   22  N3  UNL     1      31.966   7.643  49.458  1.00  0.00    -0.241 NA
HETATM   23  C8  UNL     1      31.166   8.719  49.418  1.00  0.00     0.077 A 
HETATM   24  C9  UNL     1      29.937   8.479  48.841  1.00  0.00     0.072 A 
HETATM   25  C13 UNL     1      30.730  10.121  49.618  1.00  0.00     0.070 A 
HETATM   26  C10 UNL     1      29.560   9.874  49.065  1.00  0.00     0.090 A 
BRANCH  26  27
HETATM   27  O1  UNL     1      28.611  10.849  48.935  1.00  0.00    -0.325 OA
BRANCH  27  28
HETATM   28  C11 UNL     1      27.247  10.651  48.697  1.00  0.00     0.344 C 
BRANCH  28  29
HETATM   29  O2  UNL     1      26.554  11.853  48.768  1.00  0.00    -0.371 OA
HETATM   30  C12 UNL     1      25.720  12.012  47.676  1.00  0.00     0.204 C 
ENDBRANCH  28  29
ENDBRANCH  27  28
ENDBRANCH  26  27
ENDBRANCH  17  19
ENDBRANCH   2  17
TORSDOF 8
ENDMDL
MODEL 5
REMARK VINA RESULT:      -7.6      3.614      9.736
REMARK  8 active torsions:
REMARK  status: ('A' for Active; 'I' for Inactive)
REMARK    1  A    between atoms: C2_2  and  C3_3 
REMARK    2  A    between atoms: C2_2  and  N4_19 
REMARK    3  A    between atoms: C4_4  and  N1_5 
REMARK    4  A    between atoms: N1_5  and  C6_7 
REMARK    5  A    between atoms: C10_13  and  O1_14 
REMARK    6  A    between atoms: O1_14  and  C11_15 
REMARK    7  A    between atoms: C11_15  and  O2_16 
REMARK       I    between atoms: N4_19  and  C14_20 
REMARK       I    between atoms: C14_20  and  N5_22 
REMARK    8  A    between atoms: N5_22  and  C15_23 
ROOT
HETATM    1  C3  UNL     1      23.878   5.025  50.757  1.00  0.00     0.016 C 
HETATM    2  C4  UNL     1      23.862   4.057  51.643  1.00  0.00     0.090 C 
ENDROOT
BRANCH   1   3
HETATM    3  C2  UNL     1      23.859   6.476  50.898  1.00  0.00     0.036 C 
HETATM    4  C1  UNL     1      22.763   7.256  50.857  1.00  0.00     0.104 C 
BRANCH   3   5
HETATM    5  N4  UNL     1      25.058   7.188  51.106  1.00  0.00    -0.335 N 
HETATM    6  C14 UNL     1      25.952   7.799  50.225  1.00  0.00     0.321 C 
HETATM    7  O3  UNL     1      25.607   7.687  48.994  1.00  0.00    -0.247 OA
HETATM    8  N5  UNL     1      27.144   8.502  50.482  1.00  0.00    -0.309 N 
HETATM    9  H16 UNL     1      27.380   8.557  51.519  1.00  0.00     0.170 HD
HETATM   10  H15 UNL     1      25.386   7.314  52.111  1.00  0.00     0.165 HD
BRANCH   8  11
HETATM   11  C15 UNL     1      27.944   9.072  49.459  1.00  0.00     0.036 A 
HETATM   12  C16 UNL     1      27.650  10.380  49.072  1.00  0.00     0.029 A 
HETATM   13  C17 UNL     1      28.457  10.891  48.069  1.00  0.00     0.002 A 
HETATM   14  C18 UNL     1      29.497  10.175  47.470  1.00  0.00     0.000 A 
HETATM   15  C19 UNL     1      29.707   8.898  47.919  1.00  0.00     0.002 A 
HETATM   16  C20 UNL     1      28.957   8.322  48.901  1.00  0.00     0.029 A 
ENDBRANCH   8  11
ENDBRANCH   3   5
ENDBRANCH   1   3
BRANCH   2  17
HETATM   17  N1  UNL     1      23.882   2.668  51.348  1.00  0.00    -0.345 N 
HETATM   18  C5  UNL     1      23.184   2.351  50.119  1.00  0.00     0.157 C 
BRANCH  17  19
HETATM   19  C6  UNL     1      24.439   1.524  51.989  1.00  0.00     0.146 A 
HETATM   20  N2  UNL     1      25.711   1.078  51.891  1.00  0.00    -0.223 NA
HETATM   21  C7  UNL     1      26.133  -0.017  52.545  1.00  0.00     0.236 A 
HETATM   22  N3  UNL     1      25.334  -0.734  53.326  1.00  0.00    -0.241 NA
HETATM   23  C8  UNL     1      24.049  -0.398  53.508  1.00  0.00     0.077 A 
HETATM   24  C9  UNL     1      23.665   0.733  52.817  1.00  0.00     0.072 A 
HETATM   25  C13 UNL     1      22.662  -0.478  54.023  1.00  0.00     0.070 A 
HETATM   26  C10 UNL     1      22.312   0.603  53.357  1.00  0.00     0.090 A 
BRANCH  26  27
HETATM   27  O1  UNL     1      21.040   1.100  53.418  1.00  0.00    -0.325 OA
BRANCH  27  28
HETATM   28  C11 UNL     1      20.369   1.784  52.399  1.00  0.00     0.344 C 
BRANCH  28  29
HETATM   29  O2  UNL     1      20.135   3.104  52.763  1.00  0.00    -0.371 OA
HETATM   30  C12 UNL     1      20.145   3.935  51.657  1.00  0.00     0.204 C 
ENDBRANCH  28  29
ENDBRANCH  27  28
ENDBRANCH  26  27
ENDBRANCH  17  19
ENDBRANCH   2  17
TORSDOF 8
ENDMDL
MODEL 6
REMARK VINA RESULT:      -7.5      3.437      8.569
REMARK  8 active torsions:
REMARK  status: ('A' for Active; 'I' for Inactive)
REMARK    1  A    between atoms: C2_2  and  C3_3 
REMARK    2  A    between atoms: C2_2  and  N4_19 
REMARK    3  A    between atoms: C4_4  and  N1_5 
REMARK    4  A    between atoms: N1_5  and  C6_7 
REMARK    5  A    between atoms: C10_13  and  O1_14 
REMARK    6  A    between atoms: O1_14  and  C11_15 
REMARK    7  A    between atoms: C11_15  and  O2_16 
REMARK       I    between atoms: N4_19  and  C14_20 
REMARK       I    between atoms: C14_20  and  N5_22 
REMARK    8  A    between atoms: N5_22  and  C15_23 
ROOT
HETATM    1  C3  UNL     1      23.746   4.979  50.982  1.00  0.00     0.016 C 
HETATM    2  C4  UNL     1      22.964   4.126  50.364  1.00  0.00     0.090 C 
ENDROOT
BRANCH   1   3
HETATM    3  C2  UNL     1      23.811   6.435  50.962  1.00  0.00     0.036 C 
HETATM    4  C1  UNL     1      22.768   7.266  50.781  1.00  0.00     0.104 C 
BRANCH   3   5
HETATM    5  N4  UNL     1      25.042   7.097  51.149  1.00  0.00    -0.335 N 
HETATM    6  C14 UNL     1      25.872   7.801  50.274  1.00  0.00     0.321 C 
HETATM    7  O3  UNL     1      25.418   7.851  49.075  1.00  0.00    -0.247 OA
HETATM    8  N5  UNL     1      27.099   8.447  50.508  1.00  0.00    -0.309 N 
HETATM    9  H16 UNL     1      27.427   8.366  51.519  1.00  0.00     0.170 HD
HETATM   10  H15 UNL     1      25.459   7.089  52.128  1.00  0.00     0.165 HD
BRANCH   8  11
HETATM   11  C15 UNL     1      27.822   9.130  49.497  1.00  0.00     0.036 A 
HETATM   12  C16 UNL     1      28.917   8.470  48.938  1.00  0.00     0.029 A 
HETATM   13  C17 UNL     1      29.591   9.178  47.958  1.00  0.00     0.002 A 
HETATM   14  C18 UNL     1      29.226  10.461  47.537  1.00  0.00     0.000 A 
HETATM   15  C19 UNL     1      28.136  11.024  48.147  1.00  0.00     0.002 A 
HETATM   16  C20 UNL     1      27.419  10.393  49.120  1.00  0.00     0.029 A 
ENDBRANCH   8  11
ENDBRANCH   3   5
ENDBRANCH   1   3
BRANCH   2  17
HETATM   17  N1  UNL     1      23.025   2.712  50.485  1.00  0.00    -0.345 N 
HETATM   18  C5  UNL     1      22.635   2.033  49.266  1.00  0.00     0.157 C 
BRANCH  17  19
HETATM   19  C6  UNL     1      23.388   1.819  51.534  1.00  0.00     0.146 A 
HETATM   20  N2  UNL     1      22.550   1.088  52.304  1.00  0.00    -0.223 NA
HETATM   21  C7  UNL     1      23.003   0.271  53.269  1.00  0.00     0.236 A 
HETATM   22  N3  UNL     1      24.295   0.128  53.534  1.00  0.00    -0.241 NA
HETATM   23  C8  UNL     1      25.229   0.797  52.844  1.00  0.00     0.077 A 
HETATM   24  C9  UNL     1      24.715   1.621  51.864  1.00  0.00     0.072 A 
HETATM   25  C13 UNL     1      26.578   1.251  52.431  1.00  0.00     0.070 A 
HETATM   26  C10 UNL     1      26.070   2.033  51.500  1.00  0.00     0.090 A 
BRANCH  26  27
HETATM   27  O1  UNL     1      26.868   2.795  50.692  1.00  0.00    -0.325 OA
BRANCH  27  28
HETATM   28  C11 UNL     1      26.535   3.288  49.427  1.00  0.00     0.344 C 
BRANCH  28  29
HETATM   29  O2  UNL     1      26.679   4.669  49.383  1.00  0.00    -0.371 OA
HETATM   30  C12 UNL     1      27.739   5.034  48.572  1.00  0.00     0.204 C 
ENDBRANCH  28  29
ENDBRANCH  27  28
ENDBRANCH  26  27
ENDBRANCH  17  19
ENDBRANCH   2  17
TORSDOF 8
ENDMDL
MODEL 7
REMARK VINA RESULT:      -7.4      3.181      9.184
REMARK  8 active torsions:
REMARK  status: ('A' for Active; 'I' for Inactive)
REMARK    1  A    between atoms: C2_2  and  C3_3 
REMARK    2  A    between atoms: C2_2  and  N4_19 
REMARK    3  A    between atoms: C4_4  and  N1_5 
REMARK    4  A    between atoms: N1_5  and  C6_7 
REMARK    5  A    between atoms: C10_13  and  O1_14 
REMARK    6  A    between atoms: O1_14  and  C11_15 
REMARK    7  A    between atoms: C11_15  and  O2_16 
REMARK       I    between atoms: N4_19  and  C14_20 
REMARK       I    between atoms: C14_20  and  N5_22 
REMARK    8  A    between atoms: N5_22  and  C15_23 
ROOT
HETATM    1  C3  UNL     1      24.590   5.987  50.340  1.00  0.00     0.016 C 
HETATM    2  C4  UNL     1      25.517   5.094  50.088  1.00  0.00     0.090 C 
ENDROOT
BRANCH   1   3
HETATM    3  C2  UNL     1      24.645   7.437  50.482  1.00  0.00     0.036 C 
HETATM    4  C1  UNL     1      23.605   8.280  50.347  1.00  0.00     0.104 C 
BRANCH   3   5
HETATM    5  N4  UNL     1      25.861   8.077  50.796  1.00  0.00    -0.335 N 
HETATM    6  C14 UNL     1      26.915   8.533  50.002  1.00  0.00     0.321 C 
HETATM    7  O3  UNL     1      26.731   8.326  48.749  1.00  0.00    -0.247 OA
HETATM    8  N5  UNL     1      28.117   9.168  50.363  1.00  0.00    -0.309 N 
HETATM    9  H16 UNL     1      28.215   9.307  51.415  1.00  0.00     0.170 HD
HETATM   10  H15 UNL     1      26.059   8.276  51.823  1.00  0.00     0.165 HD
BRANCH   8  11
HETATM   11  C15 UNL     1      29.094   9.576  49.419  1.00  0.00     0.036 A 
HETATM   12  C16 UNL     1      30.126   8.681  49.141  1.00  0.00     0.029 A 
HETATM   13  C17 UNL     1      31.056   9.126  48.217  1.00  0.00     0.002 A 
HETATM   14  C18 UNL     1      30.991  10.373  47.590  1.00  0.00     0.000 A 
HETATM   15  C19 UNL     1      29.937  11.181  47.929  1.00  0.00     0.002 A 
HETATM   16  C20 UNL     1      28.981  10.818  48.831  1.00  0.00     0.029 A 
ENDBRANCH   8  11
ENDBRANCH   3   5
ENDBRANCH   1   3
BRANCH   2  17
HETATM   17  N1  UNL     1      25.307   3.694  49.980  1.00  0.00    -0.345 N 
HETATM   18  C5  UNL     1      26.542   2.958  49.804  1.00  0.00     0.157 C 
BRANCH  17  19
HETATM   19  C6  UNL     1      24.154   2.856  50.012  1.00  0.00     0.146 A 
HETATM   20  N2  UNL     1      23.264   2.662  49.013  1.00  0.00    -0.223 NA
HETATM   21  C7  UNL     1      22.208   1.843  49.150  1.00  0.00     0.236 A 
HETATM   22  N3  UNL     1      21.965   1.174  50.270  1.00  0.00    -0.241 NA
HETATM   23  C8  UNL     1      22.771   1.280  51.337  1.00  0.00     0.077 A 
HETATM   24  C9  UNL     1      23.841   2.130  51.145  1.00  0.00     0.072 A 
HETATM   25  C13 UNL     1      23.285   1.042  52.706  1.00  0.00     0.070 A 
HETATM   26  C10 UNL     1      24.301   1.858  52.507  1.00  0.00     0.090 A 
BRANCH  26  27
HETATM   27  O1  UNL     1      25.231   2.093  53.480  1.00  0.00    -0.325 OA
BRANCH  27  28
HETATM   28  C11 UNL     1      26.620   2.084  53.318  1.00  0.00     0.344 C 
BRANCH  28  29
HETATM   29  O2  UNL     1      27.247   1.616  54.466  1.00  0.00    -0.371 OA
HETATM   30  C12 UNL     1      26.834   0.331  54.770  1.00  0.00     0.204 C 
ENDBRANCH  28  29
ENDBRANCH  27  28
ENDBRANCH  26  27
ENDBRANCH  17  19
ENDBRANCH   2  17
TORSDOF 8
ENDMDL
MODEL 8
REMARK VINA RESULT:      -7.1      6.353      9.299
REMARK  8 active torsions:
REMARK  status: ('A' for Active; 'I' for Inactive)
REMARK    1  A    between atoms: C2_2  and  C3_3 
REMARK    2  A    between atoms: C2_2  and  N4_19 
REMARK    3  A    between atoms: C4_4  and  N1_5 
REMARK    4  A    between atoms: N1_5  and  C6_7 
REMARK    5  A    between atoms: C10_13  and  O1_14 
REMARK    6  A    between atoms: O1_14  and  C11_15 
REMARK    7  A    between atoms: C11_15  and  O2_16 
REMARK       I    between atoms: N4_19  and  C14_20 
REMARK       I    between atoms: C14_20  and  N5_22 
REMARK    8  A    between atoms: N5_22  and  C15_23 
ROOT
HETATM    1  C3  UNL     1      23.842   3.476  51.323  1.00  0.00     0.016 C 
HETATM    2  C4  UNL     1      24.559   2.799  52.190  1.00  0.00     0.090 C 
ENDROOT
BRANCH   1   3
HETATM    3  C2  UNL     1      22.444   3.888  51.324  1.00  0.00     0.036 C 
HETATM    4  C1  UNL     1      21.965   5.045  51.817  1.00  0.00     0.104 C 
BRANCH   3   5
HETATM    5  N4  UNL     1      21.454   3.051  50.769  1.00  0.00    -0.335 N 
HETATM    6  C14 UNL     1      20.564   2.141  51.342  1.00  0.00     0.321 C 
HETATM    7  O3  UNL     1      20.675   2.059  52.618  1.00  0.00    -0.247 OA
HETATM    8  N5  UNL     1      19.589   1.323  50.743  1.00  0.00    -0.309 N 
HETATM    9  H16 UNL     1      19.548   1.431  49.684  1.00  0.00     0.170 HD
HETATM   10  H15 UNL     1      21.319   3.086  49.714  1.00  0.00     0.165 HD
BRANCH   8  11
HETATM   11  C15 UNL     1      18.753   0.445  51.480  1.00  0.00     0.036 A 
HETATM   12  C16 UNL     1      19.341  -0.274  52.520  1.00  0.00     0.029 A 
HETATM   13  C17 UNL     1      18.486  -1.119  53.207  1.00  0.00     0.002 A 
HETATM   14  C18 UNL     1      17.128  -1.261  52.905  1.00  0.00     0.000 A 
HETATM   15  C19 UNL     1      16.644  -0.510  51.866  1.00  0.00     0.002 A 
HETATM   16  C20 UNL     1      17.421   0.343  51.140  1.00  0.00     0.029 A 
ENDBRANCH   8  11
ENDBRANCH   3   5
ENDBRANCH   1   3
BRANCH   2  17
HETATM   17  N1  UNL     1      25.932   2.468  52.046  1.00  0.00    -0.345 N 
HETATM   18  C5  UNL     1      26.411   2.659  50.692  1.00  0.00     0.157 C 
BRANCH  17  19
HETATM   19  C6  UNL     1      26.939   1.996  52.937  1.00  0.00     0.146 A 
HETATM   20  N2  UNL     1      28.225   2.411  53.002  1.00  0.00    -0.223 NA
HETATM   21  C7  UNL     1      29.094   1.896  53.887  1.00  0.00     0.236 A 
HETATM   22  N3  UNL     1      28.753   0.950  54.754  1.00  0.00    -0.241 NA
HETATM   23  C8  UNL     1      27.509   0.452  54.792  1.00  0.00     0.077 A 
HETATM   24  C9  UNL     1      26.655   1.013  53.865  1.00  0.00     0.072 A 
HETATM   25  C13 UNL     1      26.374  -0.389  55.237  1.00  0.00     0.070 A 
HETATM   26  C10 UNL     1      25.572   0.156  54.346  1.00  0.00     0.090 A 
BRANCH  26  27
HETATM   27  O1  UNL     1      24.263  -0.223  54.235  1.00  0.00    -0.325 OA
BRANCH  27  28
HETATM   28  C11 UNL     1      23.582  -0.506  53.047  1.00  0.00     0.344 C 
BRANCH  28  29
HETATM   29  O2  UNL     1      22.508  -1.355  53.286  1.00  0.00    -0.371 OA
HETATM   30  C12 UNL     1      22.149  -1.341  54.622  1.00  0.00     0.204 C 
ENDBRANCH  28  29
ENDBRANCH  27  28
ENDBRANCH  26  27
ENDBRANCH  17  19
ENDBRANCH   2  17
TORSDOF 8
ENDMDL
MODEL 9
REMARK VINA RESULT:      -7.1      4.186      9.990
REMARK  8 active torsions:
REMARK  status: ('A' for Active; 'I' for Inactive)
REMARK    1  A    between atoms: C2_2  and  C3_3 
REMARK    2  A    between atoms: C2_2  and  N4_19 
REMARK    3  A    between atoms: C4_4  and  N1_5 
REMARK    4  A    between atoms: N1_5  and  C6_7 
REMARK    5  A    between atoms: C10_13  and  O1_14 
REMARK    6  A    between atoms: O1_14  and  C11_15 
REMARK    7  A    between atoms: C11_15  and  O2_16 
REMARK       I    between atoms: N4_19  and  C14_20 
REMARK       I    between atoms: C14_20  and  N5_22 
REMARK    8  A    between atoms: N5_22  and  C15_23 
ROOT
HETATM    1  C3  UNL     1      22.974   2.759  50.408  1.00  0.00     0.016 C 
HETATM    2  C4  UNL     1      23.558   1.772  51.045  1.00  0.00     0.090 C 
ENDROOT
BRANCH   1   3
HETATM    3  C2  UNL     1      22.941   3.126  48.997  1.00  0.00     0.036 C 
HETATM    4  C1  UNL     1      22.647   2.300  47.977  1.00  0.00     0.104 C 
BRANCH   3   5
HETATM    5  N4  UNL     1      23.224   4.448  48.597  1.00  0.00    -0.335 N 
HETATM    6  C14 UNL     1      24.323   5.280  48.816  1.00  0.00     0.321 C 
HETATM    7  O3  UNL     1      25.247   4.727  49.514  1.00  0.00    -0.247 OA
HETATM    8  N5  UNL     1      24.561   6.601  48.394  1.00  0.00    -0.309 N 
HETATM    9  H16 UNL     1      23.757   7.008  47.825  1.00  0.00     0.170 HD
HETATM   10  H15 UNL     1      22.491   4.950  48.011  1.00  0.00     0.165 HD
BRANCH   8  11
HETATM   11  C15 UNL     1      25.749   7.313  48.703  1.00  0.00     0.036 A 
HETATM   12  C16 UNL     1      25.740   8.103  49.852  1.00  0.00     0.029 A 
HETATM   13  C17 UNL     1      26.920   8.780  50.109  1.00  0.00     0.002 A 
HETATM   14  C18 UNL     1      28.055   8.696  49.296  1.00  0.00     0.000 A 
HETATM   15  C19 UNL     1      27.965   7.892  48.190  1.00  0.00     0.002 A 
HETATM   16  C20 UNL     1      26.839   7.194  47.867  1.00  0.00     0.029 A 
ENDBRANCH   8  11
ENDBRANCH   3   5
ENDBRANCH   1   3
BRANCH   2  17
HETATM   17  N1  UNL     1      23.500   1.544  52.445  1.00  0.00    -0.345 N 
HETATM   18  C5  UNL     1      24.430   2.375  53.182  1.00  0.00     0.157 C 
BRANCH  17  19
HETATM   19  C6  UNL     1      22.729   0.685  53.281  1.00  0.00     0.146 A 
HETATM   20  N2  UNL     1      21.382   0.648  53.384  1.00  0.00    -0.223 NA
HETATM   21  C7  UNL     1      20.755  -0.208  54.207  1.00  0.00     0.236 A 
HETATM   22  N3  UNL     1      21.410  -1.071  54.974  1.00  0.00    -0.241 NA
HETATM   23  C8  UNL     1      22.750  -1.135  54.966  1.00  0.00     0.077 A 
HETATM   24  C9  UNL     1      23.346  -0.237  54.105  1.00  0.00     0.072 A 
HETATM   25  C13 UNL     1      24.110  -1.598  55.326  1.00  0.00     0.070 A 
HETATM   26  C10 UNL     1      24.664  -0.735  54.499  1.00  0.00     0.090 A 
BRANCH  26  27
HETATM   27  O1  UNL     1      26.020  -0.652  54.354  1.00  0.00    -0.325 OA
BRANCH  27  28
HETATM   28  C11 UNL     1      26.857   0.309  54.930  1.00  0.00     0.344 C 
BRANCH  28  29
HETATM   29  O2  UNL     1      28.188   0.051  54.622  1.00  0.00    -0.371 OA
HETATM   30  C12 UNL     1      28.589   0.766  53.508  1.00  0.00     0.204 C 
ENDBRANCH  28  29
ENDBRANCH  27  28
ENDBRANCH  26  27
ENDBRANCH  17  19
ENDBRANCH   2  17
TORSDOF 8
ENDMDL
