MODEL 1
REMARK VINA RESULT:      -9.2      0.000      0.000
REMARK  5 active torsions:
REMARK  status: ('A' for Active; 'I' for Inactive)
REMARK    1  A    between atoms: C7_7  and  N1_8 
REMARK    2  A    between atoms: N1_8  and  C8_9 
REMARK    3  A    between atoms: C17_22  and  C18_23 
REMARK    4  A    between atoms: C18_23  and  C19_24 
REMARK    5  A    between atoms: C19_24  and  O3_25 
ROOT
HETATM    1  C1  UNL     1      29.653   7.781  46.445  1.00  0.00     0.018 C 
HETATM    2  C2  UNL     1      28.753   7.304  47.068  1.00  0.00    -0.078 C 
HETATM    3  C3  UNL     1      27.642   6.741  47.820  1.00  0.00     0.019 A 
HETATM    4  C4  UNL     1      26.450   7.385  47.787  1.00  0.00     0.021 A 
HETATM    5  C5  UNL     1      25.364   6.906  48.482  1.00  0.00     0.004 A 
HETATM    6  C6  UNL     1      25.579   5.751  49.195  1.00  0.00     0.029 A 
HETATM    7  C7  UNL     1      26.754   5.010  49.300  1.00  0.00     0.035 A 
HETATM    8  C22 UNL     1      27.791   5.576  48.561  1.00  0.00     0.050 A 
ENDROOT
BRANCH   7   9
HETATM    9  N1  UNL     1      26.913   3.829  50.033  1.00  0.00    -0.340 N 
HETATM   10  H5  UNL     1      27.954   3.749  50.132  1.00  0.00     0.167 HD
BRANCH   9  11
HETATM   11  C8  UNL     1      25.785   3.068  50.450  1.00  0.00     0.138 A 
HETATM   12  N2  UNL     1      24.666   3.209  49.716  1.00  0.00    -0.224 NA
HETATM   13  C9  UNL     1      23.568   2.548  50.007  1.00  0.00     0.235 A 
HETATM   14  N3  UNL     1      23.642   1.737  51.069  1.00  0.00    -0.245 NA
HETATM   15  C10 UNL     1      24.710   1.544  51.842  1.00  0.00     0.055 A 
HETATM   16  C11 UNL     1      25.909   2.240  51.556  1.00  0.00     0.020 A 
HETATM   17  C21 UNL     1      23.961   0.683  52.569  1.00  0.00     0.083 C 
HETATM   18  C12 UNL     1      26.970   2.072  52.312  1.00  0.00     0.059 C 
HETATM   19  C13 UNL     1      28.222   2.037  53.000  1.00  0.00     0.177 C 
HETATM   20  O1  UNL     1      28.719   0.877  53.501  1.00  0.00    -0.388 OA
HETATM   21  C14 UNL     1      28.211   0.234  54.587  1.00  0.00     0.194 C 
HETATM   22  C15 UNL     1      26.783   0.018  54.304  1.00  0.00     0.200 C 
HETATM   23  O2  UNL     1      25.947  -0.646  55.213  1.00  0.00    -0.361 OA
HETATM   24  C16 UNL     1      24.617  -0.745  54.697  1.00  0.00     0.138 C 
HETATM   25  C17 UNL     1      23.972  -0.199  53.694  1.00  0.00    -0.045 C 
BRANCH  25  26
HETATM   26  C18 UNL     1      22.609  -0.776  53.761  1.00  0.00     0.063 C 
BRANCH  26  27
HETATM   27  C19 UNL     1      21.507   0.271  53.796  1.00  0.00     0.171 C 
BRANCH  27  28
HETATM   28  O3  UNL     1      20.363  -0.101  53.147  1.00  0.00    -0.396 OA
HETATM   29  C20 UNL     1      20.250   0.347  51.842  1.00  0.00     0.201 C 
ENDBRANCH  27  28
ENDBRANCH  26  27
ENDBRANCH  25  26
ENDBRANCH   9  11
ENDBRANCH   7   9
TORSDOF 5
ENDMDL
MODEL 2
REMARK VINA RESULT:      -9.1      0.861      1.999
REMARK  5 active torsions:
REMARK  status: ('A' for Active; 'I' for Inactive)
REMARK    1  A    between atoms: C7_7  and  N1_8 
REMARK    2  A    between atoms: N1_8  and  C8_9 
REMARK    3  A    between atoms: C17_22  and  C18_23 
REMARK    4  A    between atoms: C18_23  and  C19_24 
REMARK    5  A    between atoms: C19_24  and  O3_25 
ROOT
HETATM    1  C1  UNL     1      22.868   8.432  49.179  1.00  0.00     0.018 C 
HETATM    2  C2  UNL     1      23.873   7.797  49.067  1.00  0.00    -0.078 C 
HETATM    3  C3  UNL     1      25.105   7.039  48.914  1.00  0.00     0.019 A 
HETATM    4  C4  UNL     1      26.040   7.499  48.047  1.00  0.00     0.021 A 
HETATM    5  C5  UNL     1      27.224   6.824  47.854  1.00  0.00     0.004 A 
HETATM    6  C6  UNL     1      27.377   5.675  48.592  1.00  0.00     0.029 A 
HETATM    7  C7  UNL     1      26.488   5.112  49.506  1.00  0.00     0.035 A 
HETATM    8  C22 UNL     1      25.325   5.870  49.629  1.00  0.00     0.050 A 
ENDROOT
BRANCH   7   9
HETATM    9  N1  UNL     1      26.703   3.941  50.240  1.00  0.00    -0.340 N 
HETATM   10  H5  UNL     1      27.744   3.930  50.369  1.00  0.00     0.167 HD
BRANCH   9  11
HETATM   11  C8  UNL     1      25.617   3.104  50.621  1.00  0.00     0.138 A 
HETATM   12  N2  UNL     1      24.502   3.195  49.872  1.00  0.00    -0.224 NA
HETATM   13  C9  UNL     1      23.442   2.463  50.130  1.00  0.00     0.235 A 
HETATM   14  N3  UNL     1      23.548   1.635  51.176  1.00  0.00    -0.245 NA
HETATM   15  C10 UNL     1      24.613   1.489  51.962  1.00  0.00     0.055 A 
HETATM   16  C11 UNL     1      25.772   2.261  51.711  1.00  0.00     0.020 A 
HETATM   17  C21 UNL     1      23.906   0.568  52.658  1.00  0.00     0.083 C 
HETATM   18  C12 UNL     1      26.830   2.140  52.481  1.00  0.00     0.059 C 
HETATM   19  C13 UNL     1      28.071   2.165  53.189  1.00  0.00     0.177 C 
HETATM   20  O1  UNL     1      28.629   1.025  53.673  1.00  0.00    -0.388 OA
HETATM   21  C14 UNL     1      28.143   0.329  54.737  1.00  0.00     0.194 C 
HETATM   22  C15 UNL     1      26.736   0.034  54.426  1.00  0.00     0.200 C 
HETATM   23  O2  UNL     1      25.927  -0.699  55.306  1.00  0.00    -0.361 OA
HETATM   24  C16 UNL     1      24.614  -0.866  54.765  1.00  0.00     0.138 C 
HETATM   25  C17 UNL     1      23.953  -0.337  53.763  1.00  0.00    -0.045 C 
BRANCH  25  26
HETATM   26  C18 UNL     1      22.626  -0.995  53.795  1.00  0.00     0.063 C 
BRANCH  26  27
HETATM   27  C19 UNL     1      21.689  -0.424  54.846  1.00  0.00     0.171 C 
BRANCH  27  28
HETATM   28  O3  UNL     1      20.619   0.254  54.332  1.00  0.00    -0.396 OA
HETATM   29  C20 UNL     1      19.882  -0.435  53.384  1.00  0.00     0.201 C 
ENDBRANCH  27  28
ENDBRANCH  26  27
ENDBRANCH  25  26
ENDBRANCH   9  11
ENDBRANCH   7   9
TORSDOF 5
ENDMDL
MODEL 3
REMARK VINA RESULT:      -8.6      2.072      2.977
REMARK  5 active torsions:
REMARK  status: ('A' for Active; 'I' for Inactive)
REMARK    1  A    between atoms: C7_7  and  N1_8 
REMARK    2  A    between atoms: N1_8  and  C8_9 
REMARK    3  A    between atoms: C17_22  and  C18_23 
REMARK    4  A    between atoms: C18_23  and  C19_24 
REMARK    5  A    between atoms: C19_24  and  O3_25 
ROOT
HETATM    1  C1  UNL     1      27.210   8.040  47.431  1.00  0.00     0.018 C 
HETATM    2  C2  UNL     1      26.888   7.106  48.101  1.00  0.00    -0.078 C 
HETATM    3  C3  UNL     1      26.511   5.954  48.905  1.00  0.00     0.019 A 
HETATM    4  C4  UNL     1      27.083   4.758  48.624  1.00  0.00     0.021 A 
HETATM    5  C5  UNL     1      26.763   3.630  49.345  1.00  0.00     0.004 A 
HETATM    6  C6  UNL     1      25.839   3.810  50.346  1.00  0.00     0.029 A 
HETATM    7  C7  UNL     1      25.191   4.985  50.720  1.00  0.00     0.035 A 
HETATM    8  C22 UNL     1      25.584   6.065  49.933  1.00  0.00     0.050 A 
ENDROOT
BRANCH   7   9
HETATM    9  N1  UNL     1      24.264   5.112  51.760  1.00  0.00    -0.340 N 
HETATM   10  H5  UNL     1      24.685   5.859  52.363  1.00  0.00     0.167 HD
BRANCH   9  11
HETATM   11  C8  UNL     1      23.087   4.312  51.796  1.00  0.00     0.138 A 
HETATM   12  N2  UNL     1      21.991   4.837  51.218  1.00  0.00    -0.224 NA
HETATM   13  C9  UNL     1      20.852   4.182  51.188  1.00  0.00     0.235 A 
HETATM   14  N3  UNL     1      20.862   2.974  51.764  1.00  0.00    -0.245 NA
HETATM   15  C10 UNL     1      21.902   2.389  52.353  1.00  0.00     0.055 A 
HETATM   16  C11 UNL     1      23.144   3.066  52.403  1.00  0.00     0.020 A 
HETATM   17  C21 UNL     1      21.092   1.337  52.617  1.00  0.00     0.083 C 
HETATM   18  C12 UNL     1      24.180   2.511  52.990  1.00  0.00     0.059 C 
HETATM   19  C13 UNL     1      25.415   2.093  53.575  1.00  0.00     0.177 C 
HETATM   20  O1  UNL     1      25.836   0.805  53.488  1.00  0.00    -0.388 OA
HETATM   21  C14 UNL     1      25.272  -0.230  54.168  1.00  0.00     0.194 C 
HETATM   22  C15 UNL     1      23.840  -0.210  53.832  1.00  0.00     0.200 C 
HETATM   23  O2  UNL     1      22.951  -1.163  54.347  1.00  0.00    -0.361 OA
HETATM   24  C16 UNL     1      21.627  -0.939  53.856  1.00  0.00     0.138 C 
HETATM   25  C17 UNL     1      21.033   0.041  53.217  1.00  0.00    -0.045 C 
BRANCH  25  26
HETATM   26  C18 UNL     1      19.638  -0.422  53.028  1.00  0.00     0.063 C 
BRANCH  26  27
HETATM   27  C19 UNL     1      19.000   0.078  51.742  1.00  0.00     0.171 C 
BRANCH  27  28
HETATM   28  O3  UNL     1      17.635   0.004  51.730  1.00  0.00    -0.396 OA
HETATM   29  C20 UNL     1      17.090  -1.006  52.504  1.00  0.00     0.201 C 
ENDBRANCH  27  28
ENDBRANCH  26  27
ENDBRANCH  25  26
ENDBRANCH   9  11
ENDBRANCH   7   9
TORSDOF 5
ENDMDL
MODEL 4
REMARK VINA RESULT:      -8.5      3.415      8.473
REMARK  5 active torsions:
REMARK  status: ('A' for Active; 'I' for Inactive)
REMARK    1  A    between atoms: C7_7  and  N1_8 
REMARK    2  A    between atoms: N1_8  and  C8_9 
REMARK    3  A    between atoms: C17_22  and  C18_23 
REMARK    4  A    between atoms: C18_23  and  C19_24 
REMARK    5  A    between atoms: C19_24  and  O3_25 
ROOT
HETATM    1  C1  UNL     1      15.901  -0.382  48.829  1.00  0.00     0.018 C 
HETATM    2  C2  UNL     1      16.515  -0.465  49.850  1.00  0.00    -0.078 C 
HETATM    3  C3  UNL     1      17.250  -0.585  51.099  1.00  0.00     0.019 A 
HETATM    4  C4  UNL     1      16.875  -1.546  51.977  1.00  0.00     0.021 A 
HETATM    5  C5  UNL     1      17.527  -1.706  53.178  1.00  0.00     0.004 A 
HETATM    6  C6  UNL     1      18.562  -0.833  53.411  1.00  0.00     0.029 A 
HETATM    7  C7  UNL     1      19.031   0.187  52.586  1.00  0.00     0.035 A 
HETATM    8  C22 UNL     1      18.307   0.265  51.397  1.00  0.00     0.050 A 
ENDROOT
BRANCH   7   9
HETATM    9  N1  UNL     1      20.102   1.042  52.870  1.00  0.00    -0.340 N 
HETATM   10  H5  UNL     1      19.662   1.993  52.837  1.00  0.00     0.167 HD
BRANCH   9  11
HETATM   11  C8  UNL     1      21.405   0.526  53.117  1.00  0.00     0.138 A 
HETATM   12  N2  UNL     1      21.477  -0.557  53.912  1.00  0.00    -0.224 NA
HETATM   13  C9  UNL     1      22.629  -1.119  54.202  1.00  0.00     0.235 A 
HETATM   14  N3  UNL     1      23.708  -0.545  53.657  1.00  0.00    -0.245 NA
HETATM   15  C10 UNL     1      23.718   0.524  52.863  1.00  0.00     0.055 A 
HETATM   16  C11 UNL     1      22.494   1.153  52.531  1.00  0.00     0.020 A 
HETATM   17  C21 UNL     1      25.065   0.405  52.810  1.00  0.00     0.083 C 
HETATM   18  C12 UNL     1      22.482   2.215  51.758  1.00  0.00     0.059 C 
HETATM   19  C13 UNL     1      22.249   3.369  50.947  1.00  0.00     0.177 C 
HETATM   20  O1  UNL     1      22.959   3.585  49.809  1.00  0.00    -0.388 OA
HETATM   21  C14 UNL     1      24.270   3.948  49.785  1.00  0.00     0.194 C 
HETATM   22  C15 UNL     1      24.992   2.934  50.569  1.00  0.00     0.200 C 
HETATM   23  O2  UNL     1      26.383   2.987  50.736  1.00  0.00    -0.361 OA
HETATM   24  C16 UNL     1      26.841   1.881  51.518  1.00  0.00     0.138 C 
HETATM   25  C17 UNL     1      26.257   0.971  52.262  1.00  0.00    -0.045 C 
BRANCH  25  26
HETATM   26  C18 UNL     1      27.367   0.131  52.772  1.00  0.00     0.063 C 
BRANCH  26  27
HETATM   27  C19 UNL     1      27.445   0.083  54.289  1.00  0.00     0.171 C 
BRANCH  27  28
HETATM   28  O3  UNL     1      28.629  -0.400  54.772  1.00  0.00    -0.396 OA
HETATM   29  C20 UNL     1      29.669  -0.443  53.859  1.00  0.00     0.201 C 
ENDBRANCH  27  28
ENDBRANCH  26  27
ENDBRANCH  25  26
ENDBRANCH   9  11
ENDBRANCH   7   9
TORSDOF 5
ENDMDL
MODEL 5
REMARK VINA RESULT:      -8.5      2.996      6.909
REMARK  5 active torsions:
REMARK  status: ('A' for Active; 'I' for Inactive)
REMARK    1  A    between atoms: C7_7  and  N1_8 
REMARK    2  A    between atoms: N1_8  and  C8_9 
REMARK    3  A    between atoms: C17_22  and  C18_23 
REMARK    4  A    between atoms: C18_23  and  C19_24 
REMARK    5  A    between atoms: C19_24  and  O3_25 
ROOT
HETATM    1  C1  UNL     1      28.747  -2.785  53.059  1.00  0.00     0.018 C 
HETATM    2  C2  UNL     1      28.595  -1.611  53.217  1.00  0.00    -0.078 C 
HETATM    3  C3  UNL     1      28.434  -0.179  53.416  1.00  0.00     0.019 A 
HETATM    4  C4  UNL     1      29.493   0.530  53.877  1.00  0.00     0.021 A 
HETATM    5  C5  UNL     1      29.402   1.886  54.091  1.00  0.00     0.004 A 
HETATM    6  C6  UNL     1      28.180   2.448  53.809  1.00  0.00     0.029 A 
HETATM    7  C7  UNL     1      27.030   1.820  53.336  1.00  0.00     0.035 A 
HETATM    8  C22 UNL     1      27.227   0.453  53.151  1.00  0.00     0.050 A 
ENDROOT
BRANCH   7   9
HETATM    9  N1  UNL     1      25.813   2.449  53.053  1.00  0.00    -0.340 N 
HETATM   10  H5  UNL     1      25.384   2.573  54.002  1.00  0.00     0.167 HD
BRANCH   9  11
HETATM   11  C8  UNL     1      25.440   2.759  51.715  1.00  0.00     0.138 A 
HETATM   12  N2  UNL     1      26.369   3.380  50.966  1.00  0.00    -0.224 NA
HETATM   13  C9  UNL     1      26.134   3.707  49.715  1.00  0.00     0.235 A 
HETATM   14  N3  UNL     1      24.923   3.382  49.248  1.00  0.00    -0.245 NA
HETATM   15  C10 UNL     1      23.954   2.768  49.925  1.00  0.00     0.055 A 
HETATM   16  C11 UNL     1      24.175   2.402  51.274  1.00  0.00     0.020 A 
HETATM   17  C21 UNL     1      23.196   2.848  48.807  1.00  0.00     0.083 C 
HETATM   18  C12 UNL     1      23.229   1.805  51.963  1.00  0.00     0.059 C 
HETATM   19  C13 UNL     1      22.344   1.159  52.881  1.00  0.00     0.177 C 
HETATM   20  O1  UNL     1      21.522   0.155  52.480  1.00  0.00    -0.388 OA
HETATM   21  C14 UNL     1      20.425   0.334  51.694  1.00  0.00     0.194 C 
HETATM   22  C15 UNL     1      20.895   1.029  50.486  1.00  0.00     0.200 C 
HETATM   23  O2  UNL     1      20.021   1.356  49.440  1.00  0.00    -0.361 OA
HETATM   24  C16 UNL     1      20.725   2.005  48.377  1.00  0.00     0.138 C 
HETATM   25  C17 UNL     1      21.920   2.530  48.246  1.00  0.00    -0.045 C 
BRANCH  25  26
HETATM   26  C18 UNL     1      21.964   3.027  46.850  1.00  0.00     0.063 C 
BRANCH  26  27
HETATM   27  C19 UNL     1      20.937   4.107  46.556  1.00  0.00     0.171 C 
BRANCH  27  28
HETATM   28  O3  UNL     1      21.215   5.314  47.134  1.00  0.00    -0.396 OA
HETATM   29  C20 UNL     1      20.181   5.874  47.865  1.00  0.00     0.201 C 
ENDBRANCH  27  28
ENDBRANCH  26  27
ENDBRANCH  25  26
ENDBRANCH   9  11
ENDBRANCH   7   9
TORSDOF 5
ENDMDL
MODEL 6
REMARK VINA RESULT:      -8.5      4.782      7.207
REMARK  5 active torsions:
REMARK  status: ('A' for Active; 'I' for Inactive)
REMARK    1  A    between atoms: C7_7  and  N1_8 
REMARK    2  A    between atoms: N1_8  and  C8_9 
REMARK    3  A    between atoms: C17_22  and  C18_23 
REMARK    4  A    between atoms: C18_23  and  C19_24 
REMARK    5  A    between atoms: C19_24  and  O3_25 
ROOT
HETATM    1  C1  UNL     1      28.746  -2.785  53.080  1.00  0.00     0.018 C 
HETATM    2  C2  UNL     1      28.191  -1.727  53.055  1.00  0.00    -0.078 C 
HETATM    3  C3  UNL     1      27.536  -0.429  53.034  1.00  0.00     0.019 A 
HETATM    4  C4  UNL     1      28.213   0.642  53.516  1.00  0.00     0.021 A 
HETATM    5  C5  UNL     1      27.645   1.895  53.529  1.00  0.00     0.004 A 
HETATM    6  C6  UNL     1      26.367   1.971  53.029  1.00  0.00     0.029 A 
HETATM    7  C7  UNL     1      25.581   0.943  52.512  1.00  0.00     0.035 A 
HETATM    8  C22 UNL     1      26.246  -0.281  52.542  1.00  0.00     0.050 A 
ENDROOT
BRANCH   7   9
HETATM    9  N1  UNL     1      24.286   1.081  52.003  1.00  0.00    -0.340 N 
HETATM   10  H5  UNL     1      24.427   1.682  51.155  1.00  0.00     0.167 HD
BRANCH   9  11
HETATM   11  C8  UNL     1      23.175   0.463  52.644  1.00  0.00     0.138 A 
HETATM   12  N2  UNL     1      23.421  -0.120  53.831  1.00  0.00    -0.224 NA
HETATM   13  C9  UNL     1      22.468  -0.715  54.513  1.00  0.00     0.235 A 
HETATM   14  N3  UNL     1      21.254  -0.697  53.950  1.00  0.00    -0.245 NA
HETATM   15  C10 UNL     1      20.933  -0.141  52.784  1.00  0.00     0.055 A 
HETATM   16  C11 UNL     1      21.936   0.507  52.024  1.00  0.00     0.020 A 
HETATM   17  C21 UNL     1      19.664  -0.561  52.994  1.00  0.00     0.083 C 
HETATM   18  C12 UNL     1      21.643   1.053  50.865  1.00  0.00     0.059 C 
HETATM   19  C13 UNL     1      21.539   1.699  49.595  1.00  0.00     0.177 C 
HETATM   20  O1  UNL     1      20.455   2.452  49.274  1.00  0.00    -0.388 OA
HETATM   21  C14 UNL     1      19.221   1.941  49.010  1.00  0.00     0.194 C 
HETATM   22  C15 UNL     1      18.859   1.121  50.176  1.00  0.00     0.200 C 
HETATM   23  O2  UNL     1      17.628   0.455  50.251  1.00  0.00    -0.361 OA
HETATM   24  C16 UNL     1      17.511  -0.253  51.488  1.00  0.00     0.138 C 
HETATM   25  C17 UNL     1      18.343  -0.580  52.448  1.00  0.00    -0.045 C 
BRANCH  25  26
HETATM   26  C18 UNL     1      17.516  -1.318  53.432  1.00  0.00     0.063 C 
BRANCH  26  27
HETATM   27  C19 UNL     1      17.830  -2.803  53.498  1.00  0.00     0.171 C 
BRANCH  27  28
HETATM   28  O3  UNL     1      16.768  -3.583  53.864  1.00  0.00    -0.396 OA
HETATM   29  C20 UNL     1      16.779  -4.873  53.361  1.00  0.00     0.201 C 
ENDBRANCH  27  28
ENDBRANCH  26  27
ENDBRANCH  25  26
ENDBRANCH   9  11
ENDBRANCH   7   9
TORSDOF 5
ENDMDL
MODEL 7
REMARK VINA RESULT:      -8.4      3.218      7.675
REMARK  5 active torsions:
REMARK  status: ('A' for Active; 'I' for Inactive)
REMARK    1  A    between atoms: C7_7  and  N1_8 
REMARK    2  A    between atoms: N1_8  and  C8_9 
REMARK    3  A    between atoms: C17_22  and  C18_23 
REMARK    4  A    between atoms: C18_23  and  C19_24 
REMARK    5  A    between atoms: C19_24  and  O3_25 
ROOT
HETATM    1  C1  UNL     1      15.923   4.334  51.431  1.00  0.00     0.018 C 
HETATM    2  C2  UNL     1      16.593   3.345  51.415  1.00  0.00    -0.078 C 
HETATM    3  C3  UNL     1      17.389   2.128  51.400  1.00  0.00     0.019 A 
HETATM    4  C4  UNL     1      16.767   0.949  51.644  1.00  0.00     0.021 A 
HETATM    5  C5  UNL     1      17.466  -0.236  51.650  1.00  0.00     0.004 A 
HETATM    6  C6  UNL     1      18.812  -0.130  51.397  1.00  0.00     0.029 A 
HETATM    7  C7  UNL     1      19.553   1.022  51.137  1.00  0.00     0.035 A 
HETATM    8  C22 UNL     1      18.754   2.164  51.152  1.00  0.00     0.050 A 
ENDROOT
BRANCH   7   9
HETATM    9  N1  UNL     1      20.926   1.068  50.874  1.00  0.00    -0.340 N 
HETATM   10  H5  UNL     1      20.968   1.461  49.902  1.00  0.00     0.167 HD
BRANCH   9  11
HETATM   11  C8  UNL     1      21.874   0.634  51.842  1.00  0.00     0.138 A 
HETATM   12  N2  UNL     1      21.440  -0.274  52.736  1.00  0.00    -0.224 NA
HETATM   13  C9  UNL     1      22.233  -0.749  53.670  1.00  0.00     0.235 A 
HETATM   14  N3  UNL     1      23.483  -0.271  53.668  1.00  0.00    -0.245 NA
HETATM   15  C10 UNL     1      23.985   0.625  52.821  1.00  0.00     0.055 A 
HETATM   16  C11 UNL     1      23.158   1.156  51.802  1.00  0.00     0.020 A 
HETATM   17  C21 UNL     1      25.156   0.523  53.490  1.00  0.00     0.083 C 
HETATM   18  C12 UNL     1      23.630   2.049  50.962  1.00  0.00     0.059 C 
HETATM   19  C13 UNL     1      23.939   3.020  49.960  1.00  0.00     0.177 C 
HETATM   20  O1  UNL     1      25.144   3.026  49.333  1.00  0.00    -0.388 OA
HETATM   21  C14 UNL     1      26.311   3.402  49.924  1.00  0.00     0.194 C 
HETATM   22  C15 UNL     1      26.445   2.571  51.131  1.00  0.00     0.200 C 
HETATM   23  O2  UNL     1      27.557   2.680  51.978  1.00  0.00    -0.361 OA
HETATM   24  C16 UNL     1      27.459   1.754  53.063  1.00  0.00     0.138 C 
HETATM   25  C17 UNL     1      26.505   0.994  53.545  1.00  0.00    -0.045 C 
BRANCH  25  26
HETATM   26  C18 UNL     1      27.126   0.289  54.692  1.00  0.00     0.063 C 
BRANCH  26  27
HETATM   27  C19 UNL     1      28.645   0.325  54.677  1.00  0.00     0.171 C 
BRANCH  27  28
HETATM   28  O3  UNL     1      29.233  -0.908  54.627  1.00  0.00    -0.396 OA
HETATM   29  C20 UNL     1      29.459  -1.406  53.355  1.00  0.00     0.201 C 
ENDBRANCH  27  28
ENDBRANCH  26  27
ENDBRANCH  25  26
ENDBRANCH   9  11
ENDBRANCH   7   9
TORSDOF 5
ENDMDL
MODEL 8
REMARK VINA RESULT:      -8.4      2.643      5.173
REMARK  5 active torsions:
REMARK  status: ('A' for Active; 'I' for Inactive)
REMARK    1  A    between atoms: C7_7  and  N1_8 
REMARK    2  A    between atoms: N1_8  and  C8_9 
REMARK    3  A    between atoms: C17_22  and  C18_23 
REMARK    4  A    between atoms: C18_23  and  C19_24 
REMARK    5  A    between atoms: C19_24  and  O3_25 
ROOT
HETATM    1  C1  UNL     1      22.488   7.713  44.140  1.00  0.00     0.018 C 
HETATM    2  C2  UNL     1      22.426   6.797  44.905  1.00  0.00    -0.078 C 
HETATM    3  C3  UNL     1      22.343   5.668  45.817  1.00  0.00     0.019 A 
HETATM    4  C4  UNL     1      21.821   4.505  45.357  1.00  0.00     0.021 A 
HETATM    5  C5  UNL     1      21.709   3.403  46.173  1.00  0.00     0.004 A 
HETATM    6  C6  UNL     1      22.156   3.573  47.461  1.00  0.00     0.029 A 
HETATM    7  C7  UNL     1      22.706   4.716  48.039  1.00  0.00     0.035 A 
HETATM    8  C22 UNL     1      22.777   5.771  47.132  1.00  0.00     0.050 A 
ENDROOT
BRANCH   7   9
HETATM    9  N1  UNL     1      23.158   4.828  49.358  1.00  0.00    -0.340 N 
HETATM   10  H5  UNL     1      22.484   5.509  49.783  1.00  0.00     0.167 HD
BRANCH   9  11
HETATM   11  C8  UNL     1      24.291   4.094  49.810  1.00  0.00     0.138 A 
HETATM   12  N2  UNL     1      25.490   4.513  49.364  1.00  0.00    -0.224 NA
HETATM   13  C9  UNL     1      26.602   3.913  49.723  1.00  0.00     0.235 A 
HETATM   14  N3  UNL     1      26.459   2.873  50.552  1.00  0.00    -0.245 NA
HETATM   15  C10 UNL     1      25.312   2.400  51.036  1.00  0.00     0.055 A 
HETATM   16  C11 UNL     1      24.095   3.023  50.669  1.00  0.00     0.020 A 
HETATM   17  C21 UNL     1      26.036   1.463  51.690  1.00  0.00     0.083 C 
HETATM   18  C12 UNL     1      22.951   2.566  51.126  1.00  0.00     0.059 C 
HETATM   19  C13 UNL     1      21.614   2.231  51.503  1.00  0.00     0.177 C 
HETATM   20  O1  UNL     1      21.318   1.826  52.765  1.00  0.00    -0.388 OA
HETATM   21  C14 UNL     1      21.667   0.616  53.281  1.00  0.00     0.194 C 
HETATM   22  C15 UNL     1      23.124   0.503  53.111  1.00  0.00     0.200 C 
HETATM   23  O2  UNL     1      23.830  -0.624  53.557  1.00  0.00    -0.361 OA
HETATM   24  C16 UNL     1      25.228  -0.481  53.293  1.00  0.00     0.138 C 
HETATM   25  C17 UNL     1      25.954   0.342  52.573  1.00  0.00    -0.045 C 
BRANCH  25  26
HETATM   26  C18 UNL     1      27.351  -0.109  52.776  1.00  0.00     0.063 C 
BRANCH  26  27
HETATM   27  C19 UNL     1      27.908   0.239  54.147  1.00  0.00     0.171 C 
BRANCH  27  28
HETATM   28  O3  UNL     1      28.866  -0.627  54.596  1.00  0.00    -0.396 OA
HETATM   29  C20 UNL     1      29.655  -1.200  53.613  1.00  0.00     0.201 C 
ENDBRANCH  27  28
ENDBRANCH  26  27
ENDBRANCH  25  26
ENDBRANCH   9  11
ENDBRANCH   7   9
TORSDOF 5
ENDMDL
MODEL 9
REMARK VINA RESULT:      -8.0      4.564      6.806
REMARK  5 active torsions:
REMARK  status: ('A' for Active; 'I' for Inactive)
REMARK    1  A    between atoms: C7_7  and  N1_8 
REMARK    2  A    between atoms: N1_8  and  C8_9 
REMARK    3  A    between atoms: C17_22  and  C18_23 
REMARK    4  A    between atoms: C18_23  and  C19_24 
REMARK    5  A    between atoms: C19_24  and  O3_25 
ROOT
HETATM    1  C1  UNL     1      29.219   2.442  53.923  1.00  0.00     0.018 C 
HETATM    2  C2  UNL     1      28.374   1.607  53.799  1.00  0.00    -0.078 C 
HETATM    3  C3  UNL     1      27.359   0.578  53.632  1.00  0.00     0.019 A 
HETATM    4  C4  UNL     1      27.577  -0.399  52.718  1.00  0.00     0.021 A 
HETATM    5  C5  UNL     1      26.652  -1.396  52.509  1.00  0.00     0.004 A 
HETATM    6  C6  UNL     1      25.518  -1.322  53.281  1.00  0.00     0.029 A 
HETATM    7  C7  UNL     1      25.190  -0.369  54.244  1.00  0.00     0.035 A 
HETATM    8  C22 UNL     1      26.189   0.592  54.380  1.00  0.00     0.050 A 
ENDROOT
BRANCH   7   9
HETATM    9  N1  UNL     1      24.021  -0.351  55.011  1.00  0.00    -0.340 N 
HETATM   10  H5  UNL     1      24.372  -0.122  55.973  1.00  0.00     0.167 HD
BRANCH   9  11
HETATM   11  C8  UNL     1      22.752  -0.610  54.421  1.00  0.00     0.138 A 
HETATM   12  N2  UNL     1      22.095  -1.694  54.872  1.00  0.00    -0.224 NA
HETATM   13  C9  UNL     1      20.913  -2.024  54.401  1.00  0.00     0.235 A 
HETATM   14  N3  UNL     1      20.418  -1.215  53.457  1.00  0.00    -0.245 NA
HETATM   15  C10 UNL     1      21.006  -0.128  52.961  1.00  0.00     0.055 A 
HETATM   16  C11 UNL     1      22.279   0.255  53.446  1.00  0.00     0.020 A 
HETATM   17  C21 UNL     1      19.924   0.027  52.163  1.00  0.00     0.083 C 
HETATM   18  C12 UNL     1      22.881   1.319  52.964  1.00  0.00     0.059 C 
HETATM   19  C13 UNL     1      23.701   2.424  52.577  1.00  0.00     0.177 C 
HETATM   20  O1  UNL     1      23.162   3.639  52.302  1.00  0.00    -0.388 OA
HETATM   21  C14 UNL     1      22.428   3.915  51.190  1.00  0.00     0.194 C 
HETATM   22  C15 UNL     1      21.335   2.931  51.165  1.00  0.00     0.200 C 
HETATM   23  O2  UNL     1      20.365   2.938  50.153  1.00  0.00    -0.361 OA
HETATM   24  C16 UNL     1      19.405   1.899  50.366  1.00  0.00     0.138 C 
HETATM   25  C17 UNL     1      19.339   0.848  51.150  1.00  0.00    -0.045 C 
BRANCH  25  26
HETATM   26  C18 UNL     1      18.036   0.219  50.830  1.00  0.00     0.063 C 
BRANCH  26  27
HETATM   27  C19 UNL     1      17.216  -0.138  52.058  1.00  0.00     0.171 C 
BRANCH  27  28
HETATM   28  O3  UNL     1      16.000   0.484  52.117  1.00  0.00    -0.396 OA
HETATM   29  C20 UNL     1      15.585   1.088  50.943  1.00  0.00     0.201 C 
ENDBRANCH  27  28
ENDBRANCH  26  27
ENDBRANCH  25  26
ENDBRANCH   9  11
ENDBRANCH   7   9
TORSDOF 5
ENDMDL
