MODEL 1
REMARK VINA RESULT:      -9.4      0.000      0.000
REMARK  1 active torsions:
REMARK  status: ('A' for Active; 'I' for Inactive)
REMARK    1  A    between atoms: C7_9  and  C8_10 
ROOT
HETATM    1 BR1  UNL     1      18.004   1.125  50.267  1.00  0.00    -0.050 Br
HETATM    2  C1  UNL     1      18.264  -0.037  51.752  1.00  0.00     0.023 A 
HETATM    3  C2  UNL     1      17.428  -0.877  52.331  1.00  0.00     0.022 A 
HETATM    4  C3  UNL     1      18.017  -1.592  53.454  1.00  0.00     0.031 A 
HETATM    5  C4  UNL     1      19.258  -1.138  53.523  1.00  0.00     0.040 A 
HETATM    6  N1  UNL     1      20.354  -1.414  54.378  1.00  0.00    -0.385 N 
HETATM    7  C5  UNL     1      21.341  -0.338  54.605  1.00  0.00     0.158 C 
HETATM    8  C6  UNL     1      21.921   0.128  53.322  1.00  0.00    -0.037 C 
HETATM    9  C7  UNL     1      23.070   0.364  52.710  1.00  0.00     0.048 C 
HETATM   10  C16 UNL     1      20.758   0.410  52.427  1.00  0.00     0.024 C 
HETATM   11  C17 UNL     1      19.539  -0.146  52.496  1.00  0.00     0.008 A 
HETATM   12  H3  UNL     1      20.444  -2.372  54.831  1.00  0.00     0.160 HD
ENDROOT
BRANCH   9  13
HETATM   13  C8  UNL     1      24.468   0.252  53.070  1.00  0.00     0.100 A 
HETATM   14  C9  UNL     1      25.393   1.106  52.672  1.00  0.00     0.048 A 
HETATM   15  C10 UNL     1      26.803   1.058  52.989  1.00  0.00    -0.031 A 
HETATM   16  C11 UNL     1      27.237   0.073  53.752  1.00  0.00     0.039 A 
HETATM   17  C15 UNL     1      27.845   2.014  52.546  1.00  0.00     0.040 C 
HETATM   18  C12 UNL     1      28.660  -0.069  54.138  1.00  0.00     0.059 C 
HETATM   19  N2  UNL     1      26.288  -0.873  54.208  1.00  0.00    -0.264 N 
HETATM   20  C13 UNL     1      29.181   1.286  54.562  1.00  0.00     0.006 C 
HETATM   21  C14 UNL     1      28.606   2.423  53.787  1.00  0.00     0.005 C 
HETATM   22  O1  UNL     1      24.975  -0.760  53.865  1.00  0.00    -0.238 OA
HETATM   23  H16 UNL     1      26.513  -1.692  54.815  1.00  0.00     0.194 HD
ENDBRANCH   9  13
TORSDOF 1
ENDMDL
MODEL 2
REMARK VINA RESULT:      -9.1      5.461      7.110
REMARK  1 active torsions:
REMARK  status: ('A' for Active; 'I' for Inactive)
REMARK    1  A    between atoms: C7_9  and  C8_10 
ROOT
HETATM    1 BR1  UNL     1      21.891   5.908  48.201  1.00  0.00    -0.050 Br
HETATM    2  C1  UNL     1      23.715   6.453  48.219  1.00  0.00     0.023 A 
HETATM    3  C2  UNL     1      24.276   7.562  47.776  1.00  0.00     0.022 A 
HETATM    4  C3  UNL     1      25.718   7.598  47.978  1.00  0.00     0.031 A 
HETATM    5  C4  UNL     1      25.999   6.448  48.569  1.00  0.00     0.040 A 
HETATM    6  N1  UNL     1      27.199   5.857  49.034  1.00  0.00    -0.385 N 
HETATM    7  C5  UNL     1      27.280   4.380  49.051  1.00  0.00     0.158 C 
HETATM    8  C6  UNL     1      26.187   3.799  49.867  1.00  0.00    -0.037 C 
HETATM    9  C7  UNL     1      25.945   2.952  50.853  1.00  0.00     0.048 C 
HETATM   10  C16 UNL     1      24.928   4.435  49.374  1.00  0.00     0.024 C 
HETATM   11  C17 UNL     1      24.812   5.632  48.779  1.00  0.00     0.008 A 
HETATM   12  H3  UNL     1      28.004   6.473  49.356  1.00  0.00     0.160 HD
ENDROOT
BRANCH   9  13
HETATM   13  C8  UNL     1      26.756   2.096  51.695  1.00  0.00     0.100 A 
HETATM   14  C9  UNL     1      26.510   0.812  51.880  1.00  0.00     0.048 A 
HETATM   15  C10 UNL     1      27.272  -0.100  52.704  1.00  0.00    -0.031 A 
HETATM   16  C11 UNL     1      28.324   0.370  53.346  1.00  0.00     0.039 A 
HETATM   17  C15 UNL     1      27.001  -1.542  52.915  1.00  0.00     0.040 C 
HETATM   18  C12 UNL     1      29.173  -0.478  54.214  1.00  0.00     0.059 C 
HETATM   19  N2  UNL     1      28.635   1.741  53.183  1.00  0.00    -0.264 N 
HETATM   20  C13 UNL     1      29.448  -1.780  53.494  1.00  0.00     0.006 C 
HETATM   21  C14 UNL     1      28.306  -2.263  52.665  1.00  0.00     0.005 C 
HETATM   22  O1  UNL     1      27.868   2.538  52.389  1.00  0.00    -0.238 OA
HETATM   23  H16 UNL     1      29.441   2.224  53.640  1.00  0.00     0.194 HD
ENDBRANCH   9  13
TORSDOF 1
ENDMDL
MODEL 3
REMARK VINA RESULT:      -8.5      1.764      2.290
REMARK  1 active torsions:
REMARK  status: ('A' for Active; 'I' for Inactive)
REMARK    1  A    between atoms: C7_9  and  C8_10 
ROOT
HETATM    1 BR1  UNL     1      19.639   2.770  48.471  1.00  0.00    -0.050 Br
HETATM    2  C1  UNL     1      19.372   1.522  49.883  1.00  0.00     0.023 A 
HETATM    3  C2  UNL     1      18.329   0.762  50.161  1.00  0.00     0.022 A 
HETATM    4  C3  UNL     1      18.520  -0.067  51.343  1.00  0.00     0.031 A 
HETATM    5  C4  UNL     1      19.737   0.234  51.766  1.00  0.00     0.040 A 
HETATM    6  N1  UNL     1      20.530  -0.207  52.854  1.00  0.00    -0.385 N 
HETATM    7  C5  UNL     1      21.526   0.734  53.410  1.00  0.00     0.158 C 
HETATM    8  C6  UNL     1      22.473   1.185  52.361  1.00  0.00    -0.037 C 
HETATM    9  C7  UNL     1      23.761   1.309  52.088  1.00  0.00     0.048 C 
HETATM   10  C16 UNL     1      21.627   1.641  51.216  1.00  0.00     0.024 C 
HETATM   11  C17 UNL     1      20.383   1.231  50.923  1.00  0.00     0.008 A 
HETATM   12  H3  UNL     1      20.397  -1.187  53.244  1.00  0.00     0.160 HD
ENDROOT
BRANCH   9  13
HETATM   13  C8  UNL     1      24.993   1.018  52.791  1.00  0.00     0.100 A 
HETATM   14  C9  UNL     1      25.639  -0.129  52.684  1.00  0.00     0.048 A 
HETATM   15  C10 UNL     1      26.869  -0.489  53.353  1.00  0.00    -0.031 A 
HETATM   16  C11 UNL     1      27.424   0.396  54.158  1.00  0.00     0.039 A 
HETATM   17  C15 UNL     1      27.598  -1.775  53.236  1.00  0.00     0.040 C 
HETATM   18  C12 UNL     1      28.683   0.129  54.892  1.00  0.00     0.059 C 
HETATM   19  N2  UNL     1      26.774   1.643  54.311  1.00  0.00    -0.264 N 
HETATM   20  C13 UNL     1      29.669  -0.509  53.938  1.00  0.00     0.006 C 
HETATM   21  C14 UNL     1      29.039  -1.422  52.941  1.00  0.00     0.005 C 
HETATM   22  O1  UNL     1      25.616   1.910  53.646  1.00  0.00    -0.238 OA
HETATM   23  H16 UNL     1      27.117   2.421  54.919  1.00  0.00     0.194 HD
ENDBRANCH   9  13
TORSDOF 1
ENDMDL
MODEL 4
REMARK VINA RESULT:      -8.4      4.467      7.761
REMARK  1 active torsions:
REMARK  status: ('A' for Active; 'I' for Inactive)
REMARK    1  A    between atoms: C7_9  and  C8_10 
ROOT
HETATM    1 BR1  UNL     1      23.375   7.517  47.303  1.00  0.00    -0.050 Br
HETATM    2  C1  UNL     1      25.027   6.860  47.981  1.00  0.00     0.023 A 
HETATM    3  C2  UNL     1      26.248   7.350  47.870  1.00  0.00     0.022 A 
HETATM    4  C3  UNL     1      27.256   6.540  48.539  1.00  0.00     0.031 A 
HETATM    5  C4  UNL     1      26.578   5.531  49.062  1.00  0.00     0.040 A 
HETATM    6  N1  UNL     1      26.947   4.399  49.830  1.00  0.00    -0.385 N 
HETATM    7  C5  UNL     1      26.114   3.183  49.713  1.00  0.00     0.158 C 
HETATM    8  C6  UNL     1      24.701   3.474  50.054  1.00  0.00    -0.037 C 
HETATM    9  C7  UNL     1      23.694   3.065  50.807  1.00  0.00     0.048 C 
HETATM   10  C16 UNL     1      24.324   4.672  49.244  1.00  0.00     0.024 C 
HETATM   11  C17 UNL     1      25.152   5.620  48.778  1.00  0.00     0.008 A 
HETATM   12  H3  UNL     1      27.800   4.444  50.464  1.00  0.00     0.160 HD
ENDROOT
BRANCH   9  13
HETATM   13  C8  UNL     1      23.497   2.002  51.771  1.00  0.00     0.100 A 
HETATM   14  C9  UNL     1      22.354   1.787  52.395  1.00  0.00     0.048 A 
HETATM   15  C10 UNL     1      22.086   0.750  53.367  1.00  0.00    -0.031 A 
HETATM   16  C11 UNL     1      23.063  -0.079  53.680  1.00  0.00     0.039 A 
HETATM   17  C15 UNL     1      20.804   0.504  54.070  1.00  0.00     0.040 C 
HETATM   18  C12 UNL     1      22.895  -1.175  54.662  1.00  0.00     0.059 C 
HETATM   19  N2  UNL     1      24.311   0.105  53.041  1.00  0.00    -0.264 N 
HETATM   20  C13 UNL     1      21.585  -1.878  54.378  1.00  0.00     0.006 C 
HETATM   21  C14 UNL     1      20.503  -0.968  53.905  1.00  0.00     0.005 C 
HETATM   22  O1  UNL     1      24.487   1.107  52.135  1.00  0.00    -0.238 OA
HETATM   23  H16 UNL     1      25.156  -0.487  53.207  1.00  0.00     0.194 HD
ENDBRANCH   9  13
TORSDOF 1
ENDMDL
MODEL 5
REMARK VINA RESULT:      -8.4      2.052      2.650
REMARK  1 active torsions:
REMARK  status: ('A' for Active; 'I' for Inactive)
REMARK    1  A    between atoms: C7_9  and  C8_10 
ROOT
HETATM    1 BR1  UNL     1      17.851  -1.913  53.441  1.00  0.00    -0.050 Br
HETATM    2  C1  UNL     1      18.248  -0.525  52.200  1.00  0.00     0.023 A 
HETATM    3  C2  UNL     1      17.448   0.156  51.401  1.00  0.00     0.022 A 
HETATM    4  C3  UNL     1      18.148   1.146  50.595  1.00  0.00     0.031 A 
HETATM    5  C4  UNL     1      19.417   1.026  50.950  1.00  0.00     0.040 A 
HETATM    6  N1  UNL     1      20.609   1.683  50.554  1.00  0.00    -0.385 N 
HETATM    7  C5  UNL     1      21.876   0.927  50.642  1.00  0.00     0.158 C 
HETATM    8  C6  UNL     1      22.108   0.441  52.024  1.00  0.00    -0.037 C 
HETATM    9  C7  UNL     1      23.008   0.412  52.993  1.00  0.00     0.048 C 
HETATM   10  C16 UNL     1      20.844  -0.243  52.434  1.00  0.00     0.024 C 
HETATM   11  C17 UNL     1      19.611  -0.001  51.963  1.00  0.00     0.008 A 
HETATM   12  H3  UNL     1      20.570   2.687  50.207  1.00  0.00     0.160 HD
ENDROOT
BRANCH   9  13
HETATM   13  C8  UNL     1      24.356   0.915  53.158  1.00  0.00     0.100 A 
HETATM   14  C9  UNL     1      25.274   0.313  53.892  1.00  0.00     0.048 A 
HETATM   15  C10 UNL     1      26.634   0.755  54.103  1.00  0.00    -0.031 A 
HETATM   16  C11 UNL     1      27.026   1.869  53.515  1.00  0.00     0.039 A 
HETATM   17  C15 UNL     1      27.668   0.083  54.926  1.00  0.00     0.040 C 
HETATM   18  C12 UNL     1      28.397   2.410  53.664  1.00  0.00     0.059 C 
HETATM   19  N2  UNL     1      26.084   2.557  52.715  1.00  0.00    -0.264 N 
HETATM   20  C13 UNL     1      29.383   1.273  53.504  1.00  0.00     0.006 C 
HETATM   21  C14 UNL     1      28.901  -0.025  54.058  1.00  0.00     0.005 C 
HETATM   22  O1  UNL     1      24.818   2.076  52.564  1.00  0.00    -0.238 OA
HETATM   23  H16 UNL     1      26.277   3.446  52.202  1.00  0.00     0.194 HD
ENDBRANCH   9  13
TORSDOF 1
ENDMDL
MODEL 6
REMARK VINA RESULT:      -8.2      5.410      8.436
REMARK  1 active torsions:
REMARK  status: ('A' for Active; 'I' for Inactive)
REMARK    1  A    between atoms: C7_9  and  C8_10 
ROOT
HETATM    1 BR1  UNL     1      24.718   9.058  47.097  1.00  0.00    -0.050 Br
HETATM    2  C1  UNL     1      26.380   8.235  47.531  1.00  0.00     0.023 A 
HETATM    3  C2  UNL     1      27.615   8.648  47.318  1.00  0.00     0.022 A 
HETATM    4  C3  UNL     1      28.624   7.719  47.805  1.00  0.00     0.031 A 
HETATM    5  C4  UNL     1      27.931   6.718  48.324  1.00  0.00     0.040 A 
HETATM    6  N1  UNL     1      28.293   5.503  48.957  1.00  0.00    -0.385 N 
HETATM    7  C5  UNL     1      27.361   4.361  48.845  1.00  0.00     0.158 C 
HETATM    8  C6  UNL     1      26.020   4.718  49.366  1.00  0.00    -0.037 C 
HETATM    9  C7  UNL     1      25.072   4.316  50.196  1.00  0.00     0.048 C 
HETATM   10  C16 UNL     1      25.651   6.003  48.698  1.00  0.00     0.024 C 
HETATM   11  C17 UNL     1      26.494   6.927  48.213  1.00  0.00     0.008 A 
HETATM   12  H3  UNL     1      29.210   5.437  49.491  1.00  0.00     0.160 HD
ENDROOT
BRANCH   9  13
HETATM   13  C8  UNL     1      24.900   3.193  51.093  1.00  0.00     0.100 A 
HETATM   14  C9  UNL     1      25.777   2.213  51.211  1.00  0.00     0.048 A 
HETATM   15  C10 UNL     1      25.672   1.064  52.081  1.00  0.00    -0.031 A 
HETATM   16  C11 UNL     1      24.603   0.956  52.847  1.00  0.00     0.039 A 
HETATM   17  C15 UNL     1      26.655  -0.038  52.217  1.00  0.00     0.040 C 
HETATM   18  C12 UNL     1      24.398  -0.180  53.774  1.00  0.00     0.059 C 
HETATM   19  N2  UNL     1      23.629   1.978  52.762  1.00  0.00    -0.264 N 
HETATM   20  C13 UNL     1      25.690  -0.434  54.518  1.00  0.00     0.006 C 
HETATM   21  C14 UNL     1      26.914  -0.199  53.699  1.00  0.00     0.005 C 
HETATM   22  O1  UNL     1      23.799   3.032  51.916  1.00  0.00    -0.238 OA
HETATM   23  H16 UNL     1      22.744   2.002  53.317  1.00  0.00     0.194 HD
ENDBRANCH   9  13
TORSDOF 1
ENDMDL
MODEL 7
REMARK VINA RESULT:      -8.1      4.596      5.810
REMARK  1 active torsions:
REMARK  status: ('A' for Active; 'I' for Inactive)
REMARK    1  A    between atoms: C7_9  and  C8_10 
ROOT
HETATM    1 BR1  UNL     1      19.618   0.224  52.171  1.00  0.00    -0.050 Br
HETATM    2  C1  UNL     1      21.342  -0.050  52.930  1.00  0.00     0.023 A 
HETATM    3  C2  UNL     1      21.764  -0.974  53.772  1.00  0.00     0.022 A 
HETATM    4  C3  UNL     1      23.172  -0.838  54.117  1.00  0.00     0.031 A 
HETATM    5  C4  UNL     1      23.580   0.221  53.436  1.00  0.00     0.040 A 
HETATM    6  N1  UNL     1      24.824   0.888  53.321  1.00  0.00    -0.385 N 
HETATM    7  C5  UNL     1      24.806   2.336  53.020  1.00  0.00     0.158 C 
HETATM    8  C6  UNL     1      24.072   2.605  51.760  1.00  0.00    -0.037 C 
HETATM    9  C7  UNL     1      24.169   3.227  50.597  1.00  0.00     0.048 C 
HETATM   10  C16 UNL     1      22.765   1.891  51.889  1.00  0.00     0.024 C 
HETATM   11  C17 UNL     1      22.511   0.811  52.643  1.00  0.00     0.008 A 
HETATM   12  H3  UNL     1      25.730   0.347  53.452  1.00  0.00     0.160 HD
ENDROOT
BRANCH   9  13
HETATM   13  C8  UNL     1      25.181   4.031  49.943  1.00  0.00     0.100 A 
HETATM   14  C9  UNL     1      24.922   5.172  49.332  1.00  0.00     0.048 A 
HETATM   15  C10 UNL     1      25.877   6.024  48.659  1.00  0.00    -0.031 A 
HETATM   16  C11 UNL     1      27.141   5.650  48.639  1.00  0.00     0.039 A 
HETATM   17  C15 UNL     1      25.591   7.306  47.972  1.00  0.00     0.040 C 
HETATM   18  C12 UNL     1      28.199   6.449  47.979  1.00  0.00     0.059 C 
HETATM   19  N2  UNL     1      27.477   4.434  49.279  1.00  0.00    -0.264 N 
HETATM   20  C13 UNL     1      28.015   7.901  48.362  1.00  0.00     0.006 C 
HETATM   21  C14 UNL     1      26.588   8.309  48.508  1.00  0.00     0.005 C 
HETATM   22  O1  UNL     1      26.519   3.684  49.892  1.00  0.00    -0.238 OA
HETATM   23  H16 UNL     1      28.442   4.036  49.328  1.00  0.00     0.194 HD
ENDBRANCH   9  13
TORSDOF 1
ENDMDL
MODEL 8
REMARK VINA RESULT:      -7.9      3.533      8.306
REMARK  1 active torsions:
REMARK  status: ('A' for Active; 'I' for Inactive)
REMARK    1  A    between atoms: C7_9  and  C8_10 
ROOT
HETATM    1 BR1  UNL     1      28.755  -2.583  53.074  1.00  0.00    -0.050 Br
HETATM    2  C1  UNL     1      28.788  -0.713  53.431  1.00  0.00     0.023 A 
HETATM    3  C2  UNL     1      29.795   0.071  53.766  1.00  0.00     0.022 A 
HETATM    4  C3  UNL     1      29.403   1.461  53.954  1.00  0.00     0.031 A 
HETATM    5  C4  UNL     1      28.102   1.475  53.714  1.00  0.00     0.040 A 
HETATM    6  N1  UNL     1      27.118   2.494  53.722  1.00  0.00    -0.385 N 
HETATM    7  C5  UNL     1      25.726   2.107  54.037  1.00  0.00     0.158 C 
HETATM    8  C6  UNL     1      25.240   1.066  53.099  1.00  0.00    -0.037 C 
HETATM    9  C7  UNL     1      24.242   0.766  52.284  1.00  0.00     0.048 C 
HETATM   10  C16 UNL     1      26.288   0.001  53.093  1.00  0.00     0.024 C 
HETATM   11  C17 UNL     1      27.591   0.155  53.370  1.00  0.00     0.008 A 
HETATM   12  H3  UNL     1      27.392   3.498  53.506  1.00  0.00     0.160 HD
ENDROOT
BRANCH   9  13
HETATM   13  C8  UNL     1      23.008   1.413  51.889  1.00  0.00     0.100 A 
HETATM   14  C9  UNL     1      21.918   0.753  51.543  1.00  0.00     0.048 A 
HETATM   15  C10 UNL     1      20.655   1.330  51.138  1.00  0.00    -0.031 A 
HETATM   16  C11 UNL     1      20.553   2.645  51.101  1.00  0.00     0.039 A 
HETATM   17  C15 UNL     1      19.428   0.594  50.749  1.00  0.00     0.040 C 
HETATM   18  C12 UNL     1      19.306   3.337  50.701  1.00  0.00     0.059 C 
HETATM   19  N2  UNL     1      21.691   3.403  51.462  1.00  0.00    -0.264 N 
HETATM   20  C13 UNL     1      18.140   2.668  51.397  1.00  0.00     0.006 C 
HETATM   21  C14 UNL     1      18.298   1.194  51.555  1.00  0.00     0.005 C 
HETATM   22  O1  UNL     1      22.848   2.786  51.833  1.00  0.00    -0.238 OA
HETATM   23  H16 UNL     1      21.730   4.447  51.471  1.00  0.00     0.194 HD
ENDBRANCH   9  13
TORSDOF 1
ENDMDL
MODEL 9
REMARK VINA RESULT:      -7.9      4.605      5.464
REMARK  1 active torsions:
REMARK  status: ('A' for Active; 'I' for Inactive)
REMARK    1  A    between atoms: C7_9  and  C8_10 
ROOT
HETATM    1 BR1  UNL     1      21.903  -1.406  54.618  1.00  0.00    -0.050 Br
HETATM    2  C1  UNL     1      20.889  -0.468  53.308  1.00  0.00     0.023 A 
HETATM    3  C2  UNL     1      19.585  -0.436  53.104  1.00  0.00     0.022 A 
HETATM    4  C3  UNL     1      19.200   0.413  51.986  1.00  0.00     0.031 A 
HETATM    5  C4  UNL     1      20.342   0.894  51.524  1.00  0.00     0.040 A 
HETATM    6  N1  UNL     1      20.676   1.770  50.462  1.00  0.00    -0.385 N 
HETATM    7  C5  UNL     1      21.999   1.609  49.823  1.00  0.00     0.158 C 
HETATM    8  C6  UNL     1      23.089   1.733  50.822  1.00  0.00    -0.037 C 
HETATM    9  C7  UNL     1      24.226   2.361  51.066  1.00  0.00     0.048 C 
HETATM   10  C16 UNL     1      22.724   0.811  51.939  1.00  0.00     0.024 C 
HETATM   11  C17 UNL     1      21.489   0.410  52.280  1.00  0.00     0.008 A 
HETATM   12  H3  UNL     1      19.982   2.513  50.149  1.00  0.00     0.160 HD
ENDROOT
BRANCH   9  13
HETATM   13  C8  UNL     1      25.025   3.348  50.371  1.00  0.00     0.100 A 
HETATM   14  C9  UNL     1      24.510   4.377  49.723  1.00  0.00     0.048 A 
HETATM   15  C10 UNL     1      25.243   5.398  49.007  1.00  0.00    -0.031 A 
HETATM   16  C11 UNL     1      26.559   5.320  48.983  1.00  0.00     0.039 A 
HETATM   17  C15 UNL     1      24.669   6.554  48.278  1.00  0.00     0.040 C 
HETATM   18  C12 UNL     1      27.405   6.313  48.281  1.00  0.00     0.059 C 
HETATM   19  N2  UNL     1      27.166   4.237  49.662  1.00  0.00    -0.264 N 
HETATM   20  C13 UNL     1      26.897   7.699  48.614  1.00  0.00     0.006 C 
HETATM   21  C14 UNL     1      25.415   7.777  48.764  1.00  0.00     0.005 C 
HETATM   22  O1  UNL     1      26.407   3.313  50.315  1.00  0.00    -0.238 OA
HETATM   23  H16 UNL     1      28.196   4.071  49.713  1.00  0.00     0.194 HD
ENDBRANCH   9  13
TORSDOF 1
ENDMDL
