MODEL 1
REMARK VINA RESULT:      -7.8      0.000      0.000
REMARK  5 active torsions:
REMARK  status: ('A' for Active; 'I' for Inactive)
REMARK    1  A    between atoms: O1_2  and  C2_3 
REMARK    2  A    between atoms: C6_9  and  N3_10 
REMARK    3  A    between atoms: N3_10  and  C7_11 
REMARK    4  A    between atoms: C7_11  and  C8_12 
REMARK    5  A    between atoms: C15_20  and  O2_21 
ROOT
HETATM    1  C2  UNL     1      25.607   0.065  54.226  1.00  0.00     0.103 A 
HETATM    2  C3  UNL     1      24.479   0.184  53.406  1.00  0.00     0.072 A 
HETATM    3  C4  UNL     1      24.403   1.094  52.345  1.00  0.00     0.075 A 
HETATM    4  N1  UNL     1      23.294   1.163  51.593  1.00  0.00    -0.241 NA
HETATM    5  C5  UNL     1      23.236   2.049  50.571  1.00  0.00     0.236 A 
HETATM    6  N2  UNL     1      24.315   2.852  50.333  1.00  0.00    -0.224 NA
HETATM    7  C6  UNL     1      25.408   2.765  51.093  1.00  0.00     0.141 A 
HETATM    8  C13 UNL     1      25.523   1.884  52.145  1.00  0.00     0.042 A 
HETATM    9  C14 UNL     1      26.655   1.815  52.910  1.00  0.00     0.057 A 
HETATM   10  C15 UNL     1      26.681   0.902  53.945  1.00  0.00     0.102 A 
ENDROOT
BRANCH   7  11
HETATM   11  N3  UNL     1      26.465   3.651  50.749  1.00  0.00    -0.349 N 
HETATM   12  H6  UNL     1      27.080   4.252  51.336  1.00  0.00     0.167 HD
BRANCH  11  13
HETATM   13  C7  UNL     1      26.833   3.823  49.386  1.00  0.00     0.102 C 
BRANCH  13  14
HETATM   14  C8  UNL     1      27.220   4.949  48.837  1.00  0.00    -0.003 A 
HETATM   15  C9  UNL     1      28.536   5.332  48.390  1.00  0.00     0.014 A 
HETATM   16  C10 UNL     1      28.483   6.557  47.896  1.00  0.00     0.002 A 
HETATM   17  C11 UNL     1      27.106   7.081  47.983  1.00  0.00     0.020 A 
HETATM   18  C12 UNL     1      26.379   6.102  48.547  1.00  0.00     0.022 A 
HETATM   19 BR1  UNL     1      24.508   6.292  48.880  1.00  0.00    -0.050 Br
ENDBRANCH  13  14
ENDBRANCH  11  13
ENDBRANCH   7  11
BRANCH  10  20
HETATM   20  O2  UNL     1      27.782   0.768  54.763  1.00  0.00    -0.353 OA
HETATM   21  C16 UNL     1      28.954   0.069  54.387  1.00  0.00     0.210 C 
ENDBRANCH  10  20
BRANCH   1  22
HETATM   22  O1  UNL     1      25.659  -0.836  55.263  1.00  0.00    -0.353 OA
HETATM   23  C1  UNL     1      24.446  -1.281  55.842  1.00  0.00     0.210 C 
ENDBRANCH   1  22
TORSDOF 5
ENDMDL
MODEL 2
REMARK VINA RESULT:      -7.8      4.994      6.523
REMARK  5 active torsions:
REMARK  status: ('A' for Active; 'I' for Inactive)
REMARK    1  A    between atoms: O1_2  and  C2_3 
REMARK    2  A    between atoms: C6_9  and  N3_10 
REMARK    3  A    between atoms: N3_10  and  C7_11 
REMARK    4  A    between atoms: C7_11  and  C8_12 
REMARK    5  A    between atoms: C15_20  and  O2_21 
ROOT
HETATM    1  C2  UNL     1      20.540  -0.312  53.243  1.00  0.00     0.103 A 
HETATM    2  C3  UNL     1      21.125  -0.874  54.384  1.00  0.00     0.072 A 
HETATM    3  C4  UNL     1      22.508  -0.901  54.595  1.00  0.00     0.075 A 
HETATM    4  N1  UNL     1      23.009  -1.455  55.709  1.00  0.00    -0.241 NA
HETATM    5  C5  UNL     1      24.350  -1.474  55.898  1.00  0.00     0.236 A 
HETATM    6  N2  UNL     1      25.158  -0.925  54.944  1.00  0.00    -0.224 NA
HETATM    7  C6  UNL     1      24.637  -0.379  53.844  1.00  0.00     0.141 A 
HETATM    8  C13 UNL     1      23.283  -0.332  53.599  1.00  0.00     0.042 A 
HETATM    9  C14 UNL     1      22.772   0.233  52.462  1.00  0.00     0.057 A 
HETATM   10  C15 UNL     1      21.402   0.235  52.300  1.00  0.00     0.102 A 
ENDROOT
BRANCH   7  11
HETATM   11  N3  UNL     1      25.576   0.160  52.923  1.00  0.00    -0.349 N 
HETATM   12  H6  UNL     1      25.669   1.111  52.510  1.00  0.00     0.167 HD
BRANCH  11  13
HETATM   13  C7  UNL     1      26.619  -0.659  52.410  1.00  0.00     0.102 C 
BRANCH  13  14
HETATM   14  C8  UNL     1      27.832  -0.746  52.900  1.00  0.00    -0.003 A 
HETATM   15  C9  UNL     1      28.645  -1.920  53.100  1.00  0.00     0.014 A 
HETATM   16  C10 UNL     1      29.805  -1.557  53.620  1.00  0.00     0.002 A 
HETATM   17  C11 UNL     1      29.843  -0.093  53.805  1.00  0.00     0.020 A 
HETATM   18  C12 UNL     1      28.655   0.360  53.367  1.00  0.00     0.022 A 
HETATM   19 BR1  UNL     1      28.205   2.216  53.396  1.00  0.00    -0.050 Br
ENDBRANCH  13  14
ENDBRANCH  11  13
ENDBRANCH   7  11
BRANCH  10  20
HETATM   20  O2  UNL     1      20.807   0.784  51.184  1.00  0.00    -0.353 OA
HETATM   21  C16 UNL     1      21.535   1.283  50.077  1.00  0.00     0.210 C 
ENDBRANCH  10  20
BRANCH   1  22
HETATM   22  O1  UNL     1      19.179  -0.297  53.056  1.00  0.00    -0.353 OA
HETATM   23  C1  UNL     1      18.436  -1.466  53.354  1.00  0.00     0.210 C 
ENDBRANCH   1  22
TORSDOF 5
ENDMDL
MODEL 3
REMARK VINA RESULT:      -7.5      1.717      2.323
REMARK  5 active torsions:
REMARK  status: ('A' for Active; 'I' for Inactive)
REMARK    1  A    between atoms: O1_2  and  C2_3 
REMARK    2  A    between atoms: C6_9  and  N3_10 
REMARK    3  A    between atoms: N3_10  and  C7_11 
REMARK    4  A    between atoms: C7_11  and  C8_12 
REMARK    5  A    between atoms: C15_20  and  O2_21 
ROOT
HETATM    1  C2  UNL     1      27.271  -0.282  53.550  1.00  0.00     0.103 A 
HETATM    2  C3  UNL     1      25.919  -0.644  53.511  1.00  0.00     0.072 A 
HETATM    3  C4  UNL     1      24.897   0.263  53.205  1.00  0.00     0.075 A 
HETATM    4  N1  UNL     1      23.619  -0.144  53.183  1.00  0.00    -0.241 NA
HETATM    5  C5  UNL     1      22.642   0.744  52.886  1.00  0.00     0.236 A 
HETATM    6  N2  UNL     1      22.988   2.038  52.615  1.00  0.00    -0.224 NA
HETATM    7  C6  UNL     1      24.266   2.419  52.642  1.00  0.00     0.141 A 
HETATM    8  C13 UNL     1      25.300   1.560  52.937  1.00  0.00     0.042 A 
HETATM    9  C14 UNL     1      26.603   1.976  52.959  1.00  0.00     0.057 A 
HETATM   10  C15 UNL     1      27.574   1.045  53.266  1.00  0.00     0.102 A 
ENDROOT
BRANCH   7  11
HETATM   11  N3  UNL     1      24.502   3.789  52.343  1.00  0.00    -0.349 N 
HETATM   12  H6  UNL     1      24.773   4.591  52.950  1.00  0.00     0.167 HD
BRANCH  11  13
HETATM   13  C7  UNL     1      24.375   4.257  51.006  1.00  0.00     0.102 C 
BRANCH  13  14
HETATM   14  C8  UNL     1      25.368   4.568  50.209  1.00  0.00    -0.003 A 
HETATM   15  C9  UNL     1      26.374   3.706  49.638  1.00  0.00     0.014 A 
HETATM   16  C10 UNL     1      27.187   4.431  48.890  1.00  0.00     0.002 A 
HETATM   17  C11 UNL     1      26.772   5.847  48.912  1.00  0.00     0.020 A 
HETATM   18  C12 UNL     1      25.688   5.896  49.705  1.00  0.00     0.022 A 
HETATM   19 BR1  UNL     1      24.763   7.530  50.059  1.00  0.00    -0.050 Br
ENDBRANCH  13  14
ENDBRANCH  11  13
ENDBRANCH   7  11
BRANCH  10  20
HETATM   20  O2  UNL     1      28.910   1.382  53.309  1.00  0.00    -0.353 OA
HETATM   21  C16 UNL     1      29.524   2.001  54.425  1.00  0.00     0.210 C 
ENDBRANCH  10  20
BRANCH   1  22
HETATM   22  O1  UNL     1      28.258  -1.188  53.853  1.00  0.00    -0.353 OA
HETATM   23  C1  UNL     1      28.419  -2.325  53.023  1.00  0.00     0.210 C 
ENDBRANCH   1  22
TORSDOF 5
ENDMDL
MODEL 4
REMARK VINA RESULT:      -7.4      2.889      5.966
REMARK  5 active torsions:
REMARK  status: ('A' for Active; 'I' for Inactive)
REMARK    1  A    between atoms: O1_2  and  C2_3 
REMARK    2  A    between atoms: C6_9  and  N3_10 
REMARK    3  A    between atoms: N3_10  and  C7_11 
REMARK    4  A    between atoms: C7_11  and  C8_12 
REMARK    5  A    between atoms: C15_20  and  O2_21 
ROOT
HETATM    1  C2  UNL     1      27.272   0.107  53.799  1.00  0.00     0.103 A 
HETATM    2  C3  UNL     1      27.546   1.014  52.768  1.00  0.00     0.072 A 
HETATM    3  C4  UNL     1      26.543   1.671  52.046  1.00  0.00     0.075 A 
HETATM    4  N1  UNL     1      26.869   2.530  51.068  1.00  0.00    -0.241 NA
HETATM    5  C5  UNL     1      25.887   3.157  50.378  1.00  0.00     0.236 A 
HETATM    6  N2  UNL     1      24.586   2.895  50.699  1.00  0.00    -0.224 NA
HETATM    7  C6  UNL     1      24.286   2.037  51.675  1.00  0.00     0.141 A 
HETATM    8  C13 UNL     1      25.242   1.372  52.410  1.00  0.00     0.042 A 
HETATM    9  C14 UNL     1      24.908   0.495  53.407  1.00  0.00     0.057 A 
HETATM   10  C15 UNL     1      25.933  -0.127  54.090  1.00  0.00     0.102 A 
ENDROOT
BRANCH   7  11
HETATM   11  N3  UNL     1      22.898   1.846  51.918  1.00  0.00    -0.349 N 
HETATM   12  H6  UNL     1      22.271   2.216  52.662  1.00  0.00     0.167 HD
BRANCH  11  13
HETATM   13  C7  UNL     1      22.132   1.020  51.050  1.00  0.00     0.102 C 
BRANCH  13  14
HETATM   14  C8  UNL     1      20.865   0.721  51.204  1.00  0.00    -0.003 A 
HETATM   15  C9  UNL     1      19.769   0.922  50.288  1.00  0.00     0.014 A 
HETATM   16  C10 UNL     1      18.657   0.475  50.843  1.00  0.00     0.002 A 
HETATM   17  C11 UNL     1      18.940  -0.063  52.188  1.00  0.00     0.020 A 
HETATM   18  C12 UNL     1      20.261   0.097  52.373  1.00  0.00     0.022 A 
HETATM   19 BR1  UNL     1      21.133  -0.450  53.983  1.00  0.00    -0.050 Br
ENDBRANCH  13  14
ENDBRANCH  11  13
ENDBRANCH   7  11
BRANCH  10  20
HETATM   20  O2  UNL     1      25.683  -1.022  55.108  1.00  0.00    -0.353 OA
HETATM   21  C16 UNL     1      24.396  -1.245  55.654  1.00  0.00     0.210 C 
ENDBRANCH  10  20
BRANCH   1  22
HETATM   22  O1  UNL     1      28.273  -0.527  54.495  1.00  0.00    -0.353 OA
HETATM   23  C1  UNL     1      29.536  -0.692  53.875  1.00  0.00     0.210 C 
ENDBRANCH   1  22
TORSDOF 5
ENDMDL
MODEL 5
REMARK VINA RESULT:      -7.3      3.671      5.452
REMARK  5 active torsions:
REMARK  status: ('A' for Active; 'I' for Inactive)
REMARK    1  A    between atoms: O1_2  and  C2_3 
REMARK    2  A    between atoms: C6_9  and  N3_10 
REMARK    3  A    between atoms: N3_10  and  C7_11 
REMARK    4  A    between atoms: C7_11  and  C8_12 
REMARK    5  A    between atoms: C15_20  and  O2_21 
ROOT
HETATM    1  C2  UNL     1      20.974   0.242  52.329  1.00  0.00     0.103 A 
HETATM    2  C3  UNL     1      21.112   0.796  51.051  1.00  0.00     0.072 A 
HETATM    3  C4  UNL     1      22.219   1.564  50.669  1.00  0.00     0.075 A 
HETATM    4  N1  UNL     1      22.295   2.069  49.429  1.00  0.00    -0.241 NA
HETATM    5  C5  UNL     1      23.371   2.810  49.076  1.00  0.00     0.236 A 
HETATM    6  N2  UNL     1      24.356   3.023  49.998  1.00  0.00    -0.224 NA
HETATM    7  C6  UNL     1      24.259   2.510  51.226  1.00  0.00     0.141 A 
HETATM    8  C13 UNL     1      23.189   1.750  51.640  1.00  0.00     0.042 A 
HETATM    9  C14 UNL     1      23.113   1.235  52.906  1.00  0.00     0.057 A 
HETATM   10  C15 UNL     1      22.002   0.486  53.233  1.00  0.00     0.102 A 
ENDROOT
BRANCH   7  11
HETATM   11  N3  UNL     1      25.344   2.799  52.097  1.00  0.00    -0.349 N 
HETATM   12  H6  UNL     1      25.410   3.409  52.939  1.00  0.00     0.167 HD
BRANCH  11  13
HETATM   13  C7  UNL     1      26.616   2.203  51.872  1.00  0.00     0.102 C 
BRANCH  13  14
HETATM   14  C8  UNL     1      27.010   1.046  52.345  1.00  0.00    -0.003 A 
HETATM   15  C9  UNL     1      26.495  -0.271  52.062  1.00  0.00     0.014 A 
HETATM   16  C10 UNL     1      27.185  -1.160  52.755  1.00  0.00     0.002 A 
HETATM   17  C11 UNL     1      28.222  -0.486  53.559  1.00  0.00     0.020 A 
HETATM   18  C12 UNL     1      28.093   0.825  53.294  1.00  0.00     0.022 A 
HETATM   19 BR1  UNL     1      29.222   2.139  54.100  1.00  0.00    -0.050 Br
ENDBRANCH  13  14
ENDBRANCH  11  13
ENDBRANCH   7  11
BRANCH  10  20
HETATM   20  O2  UNL     1      21.848  -0.069  54.486  1.00  0.00    -0.353 OA
HETATM   21  C16 UNL     1      22.541  -1.226  54.918  1.00  0.00     0.210 C 
ENDBRANCH  10  20
BRANCH   1  22
HETATM   22  O1  UNL     1      19.879  -0.508  52.681  1.00  0.00    -0.353 OA
HETATM   23  C1  UNL     1      18.605  -0.128  52.191  1.00  0.00     0.210 C 
ENDBRANCH   1  22
TORSDOF 5
ENDMDL
MODEL 6
REMARK VINA RESULT:      -7.3      3.189      6.584
REMARK  5 active torsions:
REMARK  status: ('A' for Active; 'I' for Inactive)
REMARK    1  A    between atoms: O1_2  and  C2_3 
REMARK    2  A    between atoms: C6_9  and  N3_10 
REMARK    3  A    between atoms: N3_10  and  C7_11 
REMARK    4  A    between atoms: C7_11  and  C8_12 
REMARK    5  A    between atoms: C15_20  and  O2_21 
ROOT
HETATM    1  C2  UNL     1      27.444   0.760  53.641  1.00  0.00     0.103 A 
HETATM    2  C3  UNL     1      26.854  -0.041  54.626  1.00  0.00     0.072 A 
HETATM    3  C4  UNL     1      25.500  -0.397  54.607  1.00  0.00     0.075 A 
HETATM    4  N1  UNL     1      24.992  -1.167  55.580  1.00  0.00    -0.241 NA
HETATM    5  C5  UNL     1      23.681  -1.502  55.549  1.00  0.00     0.236 A 
HETATM    6  N2  UNL     1      22.908  -1.043  54.521  1.00  0.00    -0.224 NA
HETATM    7  C6  UNL     1      23.435  -0.278  53.563  1.00  0.00     0.141 A 
HETATM    8  C13 UNL     1      24.761   0.094  53.544  1.00  0.00     0.042 A 
HETATM    9  C14 UNL     1      25.278   0.880  52.551  1.00  0.00     0.057 A 
HETATM   10  C15 UNL     1      26.618   1.203  52.614  1.00  0.00     0.102 A 
ENDROOT
BRANCH   7  11
HETATM   11  N3  UNL     1      22.534   0.139  52.546  1.00  0.00    -0.349 N 
HETATM   12  H6  UNL     1      22.624   0.157  51.509  1.00  0.00     0.167 HD
BRANCH  11  13
HETATM   13  C7  UNL     1      21.249   0.640  52.896  1.00  0.00     0.102 C 
BRANCH  13  14
HETATM   14  C8  UNL     1      20.132   0.382  52.262  1.00  0.00    -0.003 A 
HETATM   15  C9  UNL     1      18.954  -0.297  52.744  1.00  0.00     0.014 A 
HETATM   16  C10 UNL     1      18.056  -0.341  51.775  1.00  0.00     0.002 A 
HETATM   17  C11 UNL     1      18.583   0.316  50.563  1.00  0.00     0.020 A 
HETATM   18  C12 UNL     1      19.819   0.735  50.885  1.00  0.00     0.022 A 
HETATM   19 BR1  UNL     1      20.934   1.658  49.637  1.00  0.00    -0.050 Br
ENDBRANCH  13  14
ENDBRANCH  11  13
ENDBRANCH   7  11
BRANCH  10  20
HETATM   20  O2  UNL     1      27.217   1.990  51.653  1.00  0.00    -0.353 OA
HETATM   21  C16 UNL     1      26.494   2.804  50.749  1.00  0.00     0.210 C 
ENDBRANCH  10  20
BRANCH   1  22
HETATM   22  O1  UNL     1      28.775   1.097  53.679  1.00  0.00    -0.353 OA
HETATM   23  C1  UNL     1      29.743   0.065  53.616  1.00  0.00     0.210 C 
ENDBRANCH   1  22
TORSDOF 5
ENDMDL
MODEL 7
REMARK VINA RESULT:      -7.2      2.766      4.644
REMARK  5 active torsions:
REMARK  status: ('A' for Active; 'I' for Inactive)
REMARK    1  A    between atoms: O1_2  and  C2_3 
REMARK    2  A    between atoms: C6_9  and  N3_10 
REMARK    3  A    between atoms: N3_10  and  C7_11 
REMARK    4  A    between atoms: C7_11  and  C8_12 
REMARK    5  A    between atoms: C15_20  and  O2_21 
ROOT
HETATM    1  C2  UNL     1      25.972  -0.392  53.022  1.00  0.00     0.103 A 
HETATM    2  C3  UNL     1      26.695   0.441  52.160  1.00  0.00     0.072 A 
HETATM    3  C4  UNL     1      26.185   1.646  51.661  1.00  0.00     0.075 A 
HETATM    4  N1  UNL     1      26.926   2.402  50.838  1.00  0.00    -0.241 NA
HETATM    5  C5  UNL     1      26.418   3.565  50.363  1.00  0.00     0.236 A 
HETATM    6  N2  UNL     1      25.159   3.936  50.740  1.00  0.00    -0.224 NA
HETATM    7  C6  UNL     1      24.441   3.168  51.561  1.00  0.00     0.141 A 
HETATM    8  C13 UNL     1      24.906   1.977  52.073  1.00  0.00     0.042 A 
HETATM    9  C14 UNL     1      24.149   1.207  52.914  1.00  0.00     0.057 A 
HETATM   10  C15 UNL     1      24.696   0.028  53.378  1.00  0.00     0.102 A 
ENDROOT
BRANCH   7  11
HETATM   11  N3  UNL     1      23.146   3.658  51.882  1.00  0.00    -0.349 N 
HETATM   12  H6  UNL     1      22.757   4.053  52.764  1.00  0.00     0.167 HD
BRANCH  11  13
HETATM   13  C7  UNL     1      22.120   3.655  50.897  1.00  0.00     0.102 C 
BRANCH  13  14
HETATM   14  C8  UNL     1      22.063   2.858  49.859  1.00  0.00    -0.003 A 
HETATM   15  C9  UNL     1      22.526   3.089  48.512  1.00  0.00     0.014 A 
HETATM   16  C10 UNL     1      22.270   2.019  47.779  1.00  0.00     0.002 A 
HETATM   17  C11 UNL     1      21.609   0.987  48.600  1.00  0.00     0.020 A 
HETATM   18  C12 UNL     1      21.499   1.515  49.831  1.00  0.00     0.022 A 
HETATM   19 BR1  UNL     1      20.700   0.557  51.279  1.00  0.00    -0.050 Br
ENDBRANCH  13  14
ENDBRANCH  11  13
ENDBRANCH   7  11
BRANCH  10  20
HETATM   20  O2  UNL     1      24.001  -0.805  54.228  1.00  0.00    -0.353 OA
HETATM   21  C16 UNL     1      22.588  -0.871  54.274  1.00  0.00     0.210 C 
ENDBRANCH  10  20
BRANCH   1  22
HETATM   22  O1  UNL     1      26.493  -1.571  53.499  1.00  0.00    -0.353 OA
HETATM   23  C1  UNL     1      27.329  -2.339  52.652  1.00  0.00     0.210 C 
ENDBRANCH   1  22
TORSDOF 5
ENDMDL
MODEL 8
REMARK VINA RESULT:      -7.1      2.611      3.847
REMARK  5 active torsions:
REMARK  status: ('A' for Active; 'I' for Inactive)
REMARK    1  A    between atoms: O1_2  and  C2_3 
REMARK    2  A    between atoms: C6_9  and  N3_10 
REMARK    3  A    between atoms: N3_10  and  C7_11 
REMARK    4  A    between atoms: C7_11  and  C8_12 
REMARK    5  A    between atoms: C15_20  and  O2_21 
ROOT
HETATM    1  C2  UNL     1      22.503   0.261  53.352  1.00  0.00     0.103 A 
HETATM    2  C3  UNL     1      23.642  -0.539  53.498  1.00  0.00     0.072 A 
HETATM    3  C4  UNL     1      24.921  -0.117  53.115  1.00  0.00     0.075 A 
HETATM    4  N1  UNL     1      25.976  -0.930  53.279  1.00  0.00    -0.241 NA
HETATM    5  C5  UNL     1      27.206  -0.508  52.904  1.00  0.00     0.236 A 
HETATM    6  N2  UNL     1      27.339   0.740  52.365  1.00  0.00    -0.224 NA
HETATM    7  C6  UNL     1      26.276   1.530  52.211  1.00  0.00     0.141 A 
HETATM    8  C13 UNL     1      25.002   1.155  52.575  1.00  0.00     0.042 A 
HETATM    9  C14 UNL     1      23.927   1.985  52.407  1.00  0.00     0.057 A 
HETATM   10  C15 UNL     1      22.687   1.524  52.800  1.00  0.00     0.102 A 
ENDROOT
BRANCH   7  11
HETATM   11  N3  UNL     1      26.538   2.805  51.640  1.00  0.00    -0.349 N 
HETATM   12  H6  UNL     1      26.871   3.696  52.065  1.00  0.00     0.167 HD
BRANCH  11  13
HETATM   13  C7  UNL     1      26.344   3.014  50.247  1.00  0.00     0.102 C 
BRANCH  13  14
HETATM   14  C8  UNL     1      25.752   4.051  49.706  1.00  0.00    -0.003 A 
HETATM   15  C9  UNL     1      24.354   4.407  49.724  1.00  0.00     0.014 A 
HETATM   16  C10 UNL     1      24.189   5.534  49.055  1.00  0.00     0.002 A 
HETATM   17  C11 UNL     1      25.485   6.013  48.537  1.00  0.00     0.020 A 
HETATM   18  C12 UNL     1      26.395   5.110  48.940  1.00  0.00     0.022 A 
HETATM   19 BR1  UNL     1      28.250   5.281  48.518  1.00  0.00    -0.050 Br
ENDBRANCH  13  14
ENDBRANCH  11  13
ENDBRANCH   7  11
BRANCH  10  20
HETATM   20  O2  UNL     1      21.554   2.296  52.666  1.00  0.00    -0.353 OA
HETATM   21  C16 UNL     1      21.565   3.618  52.158  1.00  0.00     0.210 C 
ENDBRANCH  10  20
BRANCH   1  22
HETATM   22  O1  UNL     1      21.256  -0.173  53.735  1.00  0.00    -0.353 OA
HETATM   23  C1  UNL     1      21.112  -1.500  54.209  1.00  0.00     0.210 C 
ENDBRANCH   1  22
TORSDOF 5
ENDMDL
MODEL 9
REMARK VINA RESULT:      -6.9      3.161      4.542
REMARK  5 active torsions:
REMARK  status: ('A' for Active; 'I' for Inactive)
REMARK    1  A    between atoms: O1_2  and  C2_3 
REMARK    2  A    between atoms: C6_9  and  N3_10 
REMARK    3  A    between atoms: N3_10  and  C7_11 
REMARK    4  A    between atoms: C7_11  and  C8_12 
REMARK    5  A    between atoms: C15_20  and  O2_21 
ROOT
HETATM    1  C2  UNL     1      26.048  -0.372  53.671  1.00  0.00     0.103 A 
HETATM    2  C3  UNL     1      25.004  -0.894  54.443  1.00  0.00     0.072 A 
HETATM    3  C4  UNL     1      23.660  -0.566  54.227  1.00  0.00     0.075 A 
HETATM    4  N1  UNL     1      22.703  -1.100  55.001  1.00  0.00    -0.241 NA
HETATM    5  C5  UNL     1      21.408  -0.772  54.780  1.00  0.00     0.236 A 
HETATM    6  N2  UNL     1      21.112   0.097  53.769  1.00  0.00    -0.224 NA
HETATM    7  C6  UNL     1      22.081   0.615  53.012  1.00  0.00     0.141 A 
HETATM    8  C13 UNL     1      23.413   0.318  53.191  1.00  0.00     0.042 A 
HETATM    9  C14 UNL     1      24.389   0.863  52.401  1.00  0.00     0.057 A 
HETATM   10  C15 UNL     1      25.698   0.508  52.654  1.00  0.00     0.102 A 
ENDROOT
BRANCH   7  11
HETATM   11  N3  UNL     1      21.651   1.507  51.992  1.00  0.00    -0.349 N 
HETATM   12  H6  UNL     1      21.537   1.377  50.965  1.00  0.00     0.167 HD
BRANCH  11  13
HETATM   13  C7  UNL     1      21.285   2.841  52.321  1.00  0.00     0.102 C 
BRANCH  13  14
HETATM   14  C8  UNL     1      21.952   3.919  51.988  1.00  0.00    -0.003 A 
HETATM   15  C9  UNL     1      23.236   4.373  52.464  1.00  0.00     0.014 A 
HETATM   16  C10 UNL     1      23.538   5.511  51.864  1.00  0.00     0.002 A 
HETATM   17  C11 UNL     1      22.460   5.899  50.935  1.00  0.00     0.020 A 
HETATM   18  C12 UNL     1      21.531   4.933  51.031  1.00  0.00     0.022 A 
HETATM   19 BR1  UNL     1      19.916   4.973  50.011  1.00  0.00    -0.050 Br
ENDBRANCH  13  14
ENDBRANCH  11  13
ENDBRANCH   7  11
BRANCH  10  20
HETATM   20  O2  UNL     1      26.740   1.011  51.905  1.00  0.00    -0.353 OA
HETATM   21  C16 UNL     1      26.758   2.324  51.374  1.00  0.00     0.210 C 
ENDBRANCH  10  20
BRANCH   1  22
HETATM   22  O1  UNL     1      27.361  -0.707  53.902  1.00  0.00    -0.353 OA
HETATM   23  C1  UNL     1      28.111   0.065  54.822  1.00  0.00     0.210 C 
ENDBRANCH   1  22
TORSDOF 5
ENDMDL
