MODEL 1
REMARK VINA RESULT:      -9.2      0.000      0.000
REMARK  1 active torsions:
REMARK  status: ('A' for Active; 'I' for Inactive)
REMARK    1  A    between atoms: C16_22  and  O2_23 
ROOT
HETATM    1  O1  UNL     1      22.101  -0.135  52.428  1.00  0.00    -0.267 OA
HETATM    2  C1  UNL     1      22.616   0.300  53.466  1.00  0.00     0.263 C 
HETATM    3  N1  UNL     1      21.336   0.569  53.879  1.00  0.00    -0.322 N 
HETATM    4  C2  UNL     1      20.204   0.277  53.027  1.00  0.00     0.037 A 
HETATM    5  C3  UNL     1      19.204  -0.640  53.272  1.00  0.00     0.029 A 
HETATM    6  C4  UNL     1      18.193  -0.794  52.349  1.00  0.00     0.004 A 
HETATM    7  C5  UNL     1      18.149  -0.057  51.185  1.00  0.00     0.030 A 
HETATM    8  C6  UNL     1      19.140   0.863  50.926  1.00  0.00     0.051 A 
HETATM    9  C7  UNL     1      20.155   1.024  51.841  1.00  0.00     0.059 A 
HETATM   10  N2  UNL     1      19.120   1.637  49.736  1.00  0.00    -0.188 N 
HETATM   11  C8  UNL     1      19.970   2.757  49.537  1.00  0.00     0.727 A 
HETATM   12  N3  UNL     1      19.272   3.858  49.857  1.00  0.00    -0.075 NA
HETATM   13  C9  UNL     1      19.815   5.109  49.770  1.00  0.00     0.138 A 
HETATM   14  C10 UNL     1      21.126   5.094  49.327  1.00  0.00     0.048 A 
HETATM   15  C11 UNL     1      21.865   3.951  48.991  1.00  0.00     0.059 A 
HETATM   16  N4  UNL     1      21.246   2.765  49.108  1.00  0.00    -0.067 NA
HETATM   17  C12 UNL     1      23.250   4.101  48.530  1.00  0.00     0.106 C 
HETATM   18  C13 UNL     1      24.254   3.423  49.345  1.00  0.00     0.095 C 
HETATM   19  N5  UNL     1      25.490   3.774  49.531  1.00  0.00    -0.277 NA
HETATM   20  C14 UNL     1      26.291   2.929  50.393  1.00  0.00     0.114 C 
HETATM   21  C15 UNL     1      26.573   2.615  51.643  1.00  0.00     0.028 C 
HETATM   22  C16 UNL     1      27.193   1.950  52.838  1.00  0.00     0.176 C 
HETATM   23  C17 UNL     1      26.265   0.861  53.326  1.00  0.00    -0.018 A 
HETATM   24  C18 UNL     1      26.596  -0.443  53.928  1.00  0.00     0.060 A 
HETATM   25  S1  UNL     1      24.842  -1.130  54.185  1.00  0.00    -0.096 SA
HETATM   26  C19 UNL     1      24.045   0.242  53.539  1.00  0.00     0.073 A 
HETATM   27  C20 UNL     1      24.951   1.150  53.155  1.00  0.00     0.035 A 
HETATM   28  H1  UNL     1      20.832   0.950  54.685  1.00  0.00     0.169 HD
HETATM   29  H6  UNL     1      18.481   1.429  48.940  1.00  0.00     0.184 HD
ENDROOT
BRANCH  22  30
HETATM   30  O2  UNL     1      27.506   2.862  53.821  1.00  0.00    -0.387 OA
HETATM   31  H15 UNL     1      26.800   2.860  54.502  1.00  0.00     0.210 HD
ENDBRANCH  22  30
TORSDOF 1
ENDMDL
MODEL 2
REMARK VINA RESULT:      -8.6      2.047      6.245
REMARK  1 active torsions:
REMARK  status: ('A' for Active; 'I' for Inactive)
REMARK    1  A    between atoms: C16_22  and  O2_23 
ROOT
HETATM    1  O1  UNL     1      22.405   0.423  53.596  1.00  0.00    -0.267 OA
HETATM    2  C1  UNL     1      21.886  -0.456  52.896  1.00  0.00     0.263 C 
HETATM    3  N1  UNL     1      23.135  -1.023  52.844  1.00  0.00    -0.322 N 
HETATM    4  C2  UNL     1      24.259  -0.402  53.510  1.00  0.00     0.037 A 
HETATM    5  C3  UNL     1      24.977  -0.919  54.568  1.00  0.00     0.029 A 
HETATM    6  C4  UNL     1      26.027  -0.192  55.085  1.00  0.00     0.004 A 
HETATM    7  C5  UNL     1      26.384   1.038  54.577  1.00  0.00     0.030 A 
HETATM    8  C6  UNL     1      25.677   1.568  53.521  1.00  0.00     0.051 A 
HETATM    9  C7  UNL     1      24.627   0.851  52.997  1.00  0.00     0.059 A 
HETATM   10  N2  UNL     1      26.022   2.833  52.976  1.00  0.00    -0.188 N 
HETATM   11  C8  UNL     1      25.491   3.307  51.747  1.00  0.00     0.727 A 
HETATM   12  N3  UNL     1      26.386   3.032  50.785  1.00  0.00    -0.075 NA
HETATM   13  C9  UNL     1      26.169   3.368  49.478  1.00  0.00     0.138 A 
HETATM   14  C10 UNL     1      24.954   4.003  49.283  1.00  0.00     0.048 A 
HETATM   15  C11 UNL     1      24.012   4.294  50.280  1.00  0.00     0.059 A 
HETATM   16  N4  UNL     1      24.314   3.926  51.535  1.00  0.00    -0.067 NA
HETATM   17  C12 UNL     1      22.768   4.980  49.913  1.00  0.00     0.106 C 
HETATM   18  C13 UNL     1      21.541   4.247  50.215  1.00  0.00     0.095 C 
HETATM   19  N5  UNL     1      20.409   4.303  49.581  1.00  0.00    -0.277 NA
HETATM   20  C14 UNL     1      19.334   3.471  50.081  1.00  0.00     0.114 C 
HETATM   21  C15 UNL     1      18.837   2.249  50.116  1.00  0.00     0.028 C 
HETATM   22  C16 UNL     1      17.938   1.086  50.426  1.00  0.00     0.176 C 
HETATM   23  C17 UNL     1      18.518   0.321  51.593  1.00  0.00    -0.018 A 
HETATM   24  C18 UNL     1      17.818  -0.391  52.678  1.00  0.00     0.060 A 
HETATM   25  S1  UNL     1      19.315  -1.005  53.675  1.00  0.00    -0.096 SA
HETATM   26  C19 UNL     1      20.486  -0.314  52.632  1.00  0.00     0.073 A 
HETATM   27  C20 UNL     1      19.873   0.323  51.626  1.00  0.00     0.035 A 
HETATM   28  H1  UNL     1      23.614  -1.839  52.454  1.00  0.00     0.169 HD
HETATM   29  H6  UNL     1      26.685   3.486  53.444  1.00  0.00     0.184 HD
ENDROOT
BRANCH  22  30
HETATM   30  O2  UNL     1      17.734   0.294  49.319  1.00  0.00    -0.387 OA
HETATM   31  H15 UNL     1      18.236   0.660  48.560  1.00  0.00     0.210 HD
ENDBRANCH  22  30
TORSDOF 1
ENDMDL
MODEL 3
REMARK VINA RESULT:      -8.4      2.820      6.333
REMARK  1 active torsions:
REMARK  status: ('A' for Active; 'I' for Inactive)
REMARK    1  A    between atoms: C16_22  and  O2_23 
ROOT
HETATM    1  O1  UNL     1      24.776   2.834  51.302  1.00  0.00    -0.267 OA
HETATM    2  C1  UNL     1      24.549   4.025  51.547  1.00  0.00     0.263 C 
HETATM    3  N1  UNL     1      24.714   3.690  52.867  1.00  0.00    -0.322 N 
HETATM    4  C2  UNL     1      25.006   2.327  53.255  1.00  0.00     0.037 A 
HETATM    5  C3  UNL     1      26.161   1.871  53.854  1.00  0.00     0.029 A 
HETATM    6  C4  UNL     1      26.275   0.533  54.160  1.00  0.00     0.004 A 
HETATM    7  C5  UNL     1      25.268  -0.367  53.887  1.00  0.00     0.030 A 
HETATM    8  C6  UNL     1      24.108   0.072  53.290  1.00  0.00     0.051 A 
HETATM    9  C7  UNL     1      23.984   1.407  52.979  1.00  0.00     0.059 A 
HETATM   10  N2  UNL     1      23.053  -0.831  52.997  1.00  0.00    -0.188 N 
HETATM   11  C8  UNL     1      21.757  -0.396  52.612  1.00  0.00     0.727 A 
HETATM   12  N3  UNL     1      20.988  -0.391  53.712  1.00  0.00    -0.075 NA
HETATM   13  C9  UNL     1      19.673  -0.018  53.673  1.00  0.00     0.138 A 
HETATM   14  C10 UNL     1      19.255   0.339  52.403  1.00  0.00     0.048 A 
HETATM   15  C11 UNL     1      20.050   0.338  51.248  1.00  0.00     0.059 A 
HETATM   16  N4  UNL     1      21.330  -0.044  51.385  1.00  0.00    -0.067 NA
HETATM   17  C12 UNL     1      19.456   0.740  49.967  1.00  0.00     0.106 C 
HETATM   18  C13 UNL     1      20.086   1.890  49.323  1.00  0.00     0.095 C 
HETATM   19  N5  UNL     1      19.525   2.766  48.547  1.00  0.00    -0.277 NA
HETATM   20  C14 UNL     1      20.372   3.822  48.030  1.00  0.00     0.114 C 
HETATM   21  C15 UNL     1      20.955   4.974  48.303  1.00  0.00     0.028 C 
HETATM   22  C16 UNL     1      21.770   6.227  48.155  1.00  0.00     0.176 C 
HETATM   23  C17 UNL     1      23.138   5.990  48.754  1.00  0.00    -0.018 A 
HETATM   24  C18 UNL     1      24.445   6.520  48.326  1.00  0.00     0.060 A 
HETATM   25  S1  UNL     1      25.565   5.684  49.615  1.00  0.00    -0.096 SA
HETATM   26  C19 UNL     1      24.291   4.868  50.418  1.00  0.00     0.073 A 
HETATM   27  C20 UNL     1      23.126   5.156  49.824  1.00  0.00     0.035 A 
HETATM   28  H1  UNL     1      24.708   4.121  53.796  1.00  0.00     0.169 HD
HETATM   29  H6  UNL     1      23.167  -1.866  53.048  1.00  0.00     0.184 HD
ENDROOT
BRANCH  22  30
HETATM   30  O2  UNL     1      21.131   7.316  48.702  1.00  0.00    -0.387 OA
HETATM   31  H15 UNL     1      20.553   7.727  48.024  1.00  0.00     0.210 HD
ENDBRANCH  22  30
TORSDOF 1
ENDMDL
MODEL 4
REMARK VINA RESULT:      -8.4      2.427      3.592
REMARK  1 active torsions:
REMARK  status: ('A' for Active; 'I' for Inactive)
REMARK    1  A    between atoms: C16_22  and  O2_23 
ROOT
HETATM    1  O1  UNL     1      21.158   2.363  51.223  1.00  0.00    -0.267 OA
HETATM    2  C1  UNL     1      21.388   2.245  52.433  1.00  0.00     0.263 C 
HETATM    3  N1  UNL     1      20.495   3.273  52.609  1.00  0.00    -0.322 N 
HETATM    4  C2  UNL     1      19.848   3.896  51.475  1.00  0.00     0.037 A 
HETATM    5  C3  UNL     1      18.501   3.879  51.185  1.00  0.00     0.029 A 
HETATM    6  C4  UNL     1      18.049   4.529  50.057  1.00  0.00     0.004 A 
HETATM    7  C5  UNL     1      18.904   5.197  49.208  1.00  0.00     0.030 A 
HETATM    8  C6  UNL     1      20.253   5.223  49.484  1.00  0.00     0.051 A 
HETATM    9  C7  UNL     1      20.715   4.577  50.607  1.00  0.00     0.059 A 
HETATM   10  N2  UNL     1      21.158   5.904  48.627  1.00  0.00    -0.188 N 
HETATM   11  C8  UNL     1      22.505   6.167  48.991  1.00  0.00     0.727 A 
HETATM   12  N3  UNL     1      22.558   7.418  49.476  1.00  0.00    -0.075 NA
HETATM   13  C9  UNL     1      23.727   7.974  49.914  1.00  0.00     0.138 A 
HETATM   14  C10 UNL     1      24.806   7.115  49.797  1.00  0.00     0.048 A 
HETATM   15  C11 UNL     1      24.762   5.807  49.294  1.00  0.00     0.059 A 
HETATM   16  N4  UNL     1      23.568   5.347  48.887  1.00  0.00    -0.067 NA
HETATM   17  C12 UNL     1      25.999   5.020  49.230  1.00  0.00     0.106 C 
HETATM   18  C13 UNL     1      25.985   3.776  49.995  1.00  0.00     0.095 C 
HETATM   19  N5  UNL     1      26.993   3.181  50.556  1.00  0.00    -0.277 NA
HETATM   20  C14 UNL     1      26.717   1.948  51.264  1.00  0.00     0.114 C 
HETATM   21  C15 UNL     1      26.252   1.421  52.380  1.00  0.00     0.028 C 
HETATM   22  C16 UNL     1      25.832   0.413  53.412  1.00  0.00     0.176 C 
HETATM   23  C17 UNL     1      24.339   0.202  53.307  1.00  0.00    -0.018 A 
HETATM   24  C18 UNL     1      23.556  -1.028  53.524  1.00  0.00     0.060 A 
HETATM   25  S1  UNL     1      21.814  -0.368  53.147  1.00  0.00    -0.096 SA
HETATM   26  C19 UNL     1      22.327   1.231  52.805  1.00  0.00     0.073 A 
HETATM   27  C20 UNL     1      23.657   1.316  52.943  1.00  0.00     0.035 A 
HETATM   28  H1  UNL     1      20.066   3.823  53.358  1.00  0.00     0.169 HD
HETATM   29  H6  UNL     1      20.886   6.252  47.684  1.00  0.00     0.184 HD
ENDROOT
BRANCH  22  30
HETATM   30  O2  UNL     1      26.229   0.785  54.676  1.00  0.00    -0.387 OA
HETATM   31  H15 UNL     1      26.772   0.069  55.070  1.00  0.00     0.210 HD
ENDBRANCH  22  30
TORSDOF 1
ENDMDL
MODEL 5
REMARK VINA RESULT:      -8.3      1.056      1.186
REMARK  1 active torsions:
REMARK  status: ('A' for Active; 'I' for Inactive)
REMARK    1  A    between atoms: C16_22  and  O2_23 
ROOT
HETATM    1  O1  UNL     1      21.079  -0.496  52.624  1.00  0.00    -0.267 OA
HETATM    2  C1  UNL     1      21.558  -0.009  53.656  1.00  0.00     0.263 C 
HETATM    3  N1  UNL     1      20.260   0.209  54.045  1.00  0.00    -0.322 N 
HETATM    4  C2  UNL     1      19.156  -0.162  53.187  1.00  0.00     0.037 A 
HETATM    5  C3  UNL     1      18.198  -1.120  53.444  1.00  0.00     0.029 A 
HETATM    6  C4  UNL     1      17.209  -1.347  52.513  1.00  0.00     0.004 A 
HETATM    7  C5  UNL     1      17.146  -0.645  51.329  1.00  0.00     0.030 A 
HETATM    8  C6  UNL     1      18.094   0.316  51.057  1.00  0.00     0.051 A 
HETATM    9  C7  UNL     1      19.087   0.551  51.980  1.00  0.00     0.059 A 
HETATM   10  N2  UNL     1      18.053   1.056  49.846  1.00  0.00    -0.188 N 
HETATM   11  C8  UNL     1      18.850   2.210  49.628  1.00  0.00     0.727 A 
HETATM   12  N3  UNL     1      18.095   3.284  49.909  1.00  0.00    -0.075 NA
HETATM   13  C9  UNL     1      18.577   4.557  49.795  1.00  0.00     0.138 A 
HETATM   14  C10 UNL     1      19.894   4.595  49.369  1.00  0.00     0.048 A 
HETATM   15  C11 UNL     1      20.692   3.481  49.074  1.00  0.00     0.059 A 
HETATM   16  N4  UNL     1      20.130   2.270  49.215  1.00  0.00    -0.067 NA
HETATM   17  C12 UNL     1      22.075   3.687  48.626  1.00  0.00     0.106 C 
HETATM   18  C13 UNL     1      23.099   3.081  49.472  1.00  0.00     0.095 C 
HETATM   19  N5  UNL     1      24.314   3.496  49.664  1.00  0.00    -0.277 NA
HETATM   20  C14 UNL     1      25.142   2.714  50.558  1.00  0.00     0.114 C 
HETATM   21  C15 UNL     1      25.422   2.448  51.820  1.00  0.00     0.028 C 
HETATM   22  C16 UNL     1      26.058   1.846  53.041  1.00  0.00     0.176 C 
HETATM   23  C17 UNL     1      25.177   0.727  53.546  1.00  0.00    -0.018 A 
HETATM   24  C18 UNL     1      25.562  -0.543  54.188  1.00  0.00     0.060 A 
HETATM   25  S1  UNL     1      23.841  -1.308  54.442  1.00  0.00    -0.096 SA
HETATM   26  C19 UNL     1      22.986   0.006  53.748  1.00  0.00     0.073 A 
HETATM   27  C20 UNL     1      23.853   0.946  53.351  1.00  0.00     0.035 A 
HETATM   28  H1  UNL     1      19.727   0.586  54.834  1.00  0.00     0.169 HD
HETATM   29  H6  UNL     1      17.436   0.796  49.048  1.00  0.00     0.184 HD
ENDROOT
BRANCH  22  30
HETATM   30  O2  UNL     1      26.312   2.798  54.002  1.00  0.00    -0.387 OA
HETATM   31  H15 UNL     1      25.462   3.156  54.338  1.00  0.00     0.210 HD
ENDBRANCH  22  30
TORSDOF 1
ENDMDL
MODEL 6
REMARK VINA RESULT:      -8.2      2.830      5.943
REMARK  1 active torsions:
REMARK  status: ('A' for Active; 'I' for Inactive)
REMARK    1  A    between atoms: C16_22  and  O2_23 
ROOT
HETATM    1  O1  UNL     1      21.020   1.791  52.029  1.00  0.00    -0.267 OA
HETATM    2  C1  UNL     1      20.668   1.668  50.849  1.00  0.00     0.263 C 
HETATM    3  N1  UNL     1      20.567   0.325  51.116  1.00  0.00    -0.322 N 
HETATM    4  C2  UNL     1      20.887  -0.197  52.426  1.00  0.00     0.037 A 
HETATM    5  C3  UNL     1      20.016  -0.801  53.307  1.00  0.00     0.029 A 
HETATM    6  C4  UNL     1      20.491  -1.245  54.522  1.00  0.00     0.004 A 
HETATM    7  C5  UNL     1      21.813  -1.105  54.885  1.00  0.00     0.030 A 
HETATM    8  C6  UNL     1      22.696  -0.504  54.016  1.00  0.00     0.051 A 
HETATM    9  C7  UNL     1      22.232  -0.056  52.800  1.00  0.00     0.059 A 
HETATM   10  N2  UNL     1      24.064  -0.346  54.362  1.00  0.00    -0.188 N 
HETATM   11  C8  UNL     1      25.052   0.039  53.418  1.00  0.00     0.727 A 
HETATM   12  N3  UNL     1      25.648  -1.080  52.976  1.00  0.00    -0.075 NA
HETATM   13  C9  UNL     1      26.654  -1.046  52.051  1.00  0.00     0.138 A 
HETATM   14  C10 UNL     1      26.967   0.241  51.647  1.00  0.00     0.048 A 
HETATM   15  C11 UNL     1      26.351   1.415  52.101  1.00  0.00     0.059 A 
HETATM   16  N4  UNL     1      25.372   1.281  53.011  1.00  0.00    -0.067 NA
HETATM   17  C12 UNL     1      26.800   2.710  51.578  1.00  0.00     0.106 C 
HETATM   18  C13 UNL     1      25.775   3.495  50.895  1.00  0.00     0.095 C 
HETATM   19  N5  UNL     1      25.942   4.342  49.925  1.00  0.00    -0.277 NA
HETATM   20  C14 UNL     1      24.756   4.998  49.414  1.00  0.00     0.114 C 
HETATM   21  C15 UNL     1      23.699   4.870  48.635  1.00  0.00     0.028 C 
HETATM   22  C16 UNL     1      22.422   5.179  47.906  1.00  0.00     0.176 C 
HETATM   23  C17 UNL     1      21.263   4.605  48.689  1.00  0.00    -0.018 A 
HETATM   24  C18 UNL     1      19.896   5.132  48.847  1.00  0.00     0.060 A 
HETATM   25  S1  UNL     1      19.172   3.800  49.994  1.00  0.00    -0.096 SA
HETATM   26  C19 UNL     1      20.609   2.870  50.074  1.00  0.00     0.073 A 
HETATM   27  C20 UNL     1      21.563   3.452  49.337  1.00  0.00     0.035 A 
HETATM   28  H1  UNL     1      20.306  -0.552  50.656  1.00  0.00     0.169 HD
HETATM   29  H6  UNL     1      24.422  -0.504  55.327  1.00  0.00     0.184 HD
ENDROOT
BRANCH  22  30
HETATM   30  O2  UNL     1      22.459   4.731  46.605  1.00  0.00    -0.387 OA
HETATM   31  H15 UNL     1      22.487   3.750  46.600  1.00  0.00     0.210 HD
ENDBRANCH  22  30
TORSDOF 1
ENDMDL
MODEL 7
REMARK VINA RESULT:      -8.2      8.702     11.511
REMARK  1 active torsions:
REMARK  status: ('A' for Active; 'I' for Inactive)
REMARK    1  A    between atoms: C16_22  and  O2_23 
ROOT
HETATM    1  O1  UNL     1      29.799   6.514  47.326  1.00  0.00    -0.267 OA
HETATM    2  C1  UNL     1      30.322   5.923  48.279  1.00  0.00     0.263 C 
HETATM    3  N1  UNL     1      29.181   6.232  48.977  1.00  0.00    -0.322 N 
HETATM    4  C2  UNL     1      28.115   6.989  48.358  1.00  0.00     0.037 A 
HETATM    5  C3  UNL     1      26.837   6.545  48.092  1.00  0.00     0.029 A 
HETATM    6  C4  UNL     1      25.940   7.403  47.495  1.00  0.00     0.004 A 
HETATM    7  C5  UNL     1      26.279   8.694  47.155  1.00  0.00     0.030 A 
HETATM    8  C6  UNL     1      27.551   9.153  47.414  1.00  0.00     0.051 A 
HETATM    9  C7  UNL     1      28.456   8.305  48.010  1.00  0.00     0.059 A 
HETATM   10  N2  UNL     1      27.930  10.478  47.075  1.00  0.00    -0.188 N 
HETATM   11  C8  UNL     1      29.135  11.072  47.536  1.00  0.00     0.727 A 
HETATM   12  N3  UNL     1      28.837  11.801  48.624  1.00  0.00    -0.075 NA
HETATM   13  C9  UNL     1      29.791  12.503  49.306  1.00  0.00     0.138 A 
HETATM   14  C10 UNL     1      31.053  12.371  48.751  1.00  0.00     0.048 A 
HETATM   15  C11 UNL     1      31.374  11.613  47.617  1.00  0.00     0.059 A 
HETATM   16  N4  UNL     1      30.370  10.957  47.014  1.00  0.00    -0.067 NA
HETATM   17  C12 UNL     1      32.764  11.577  47.148  1.00  0.00     0.106 C 
HETATM   18  C13 UNL     1      33.375  10.251  47.112  1.00  0.00     0.095 C 
HETATM   19  N5  UNL     1      34.629   9.954  47.269  1.00  0.00    -0.277 NA
HETATM   20  C14 UNL     1      34.986   8.552  47.190  1.00  0.00     0.114 C 
HETATM   21  C15 UNL     1      35.008   7.401  47.835  1.00  0.00     0.028 C 
HETATM   22  C16 UNL     1      35.226   5.949  48.148  1.00  0.00     0.176 C 
HETATM   23  C17 UNL     1      33.929   5.204  47.930  1.00  0.00    -0.018 A 
HETATM   24  C18 UNL     1      33.716   3.831  47.436  1.00  0.00     0.060 A 
HETATM   25  S1  UNL     1      31.816   3.774  47.462  1.00  0.00    -0.096 SA
HETATM   26  C19 UNL     1      31.623   5.372  48.049  1.00  0.00     0.073 A 
HETATM   27  C20 UNL     1      32.825   5.935  48.224  1.00  0.00     0.035 A 
HETATM   28  H1  UNL     1      28.761   6.094  49.901  1.00  0.00     0.169 HD
HETATM   29  H6  UNL     1      27.346  11.093  46.470  1.00  0.00     0.184 HD
ENDROOT
BRANCH  22  30
HETATM   30  O2  UNL     1      35.734   5.773  49.415  1.00  0.00    -0.387 OA
HETATM   31  H15 UNL     1      36.629   6.172  49.464  1.00  0.00     0.210 HD
ENDBRANCH  22  30
TORSDOF 1
ENDMDL
MODEL 8
REMARK VINA RESULT:      -8.1      2.021      3.044
REMARK  1 active torsions:
REMARK  status: ('A' for Active; 'I' for Inactive)
REMARK    1  A    between atoms: C16_22  and  O2_23 
ROOT
HETATM    1  O1  UNL     1      22.293   0.530  51.961  1.00  0.00    -0.267 OA
HETATM    2  C1  UNL     1      23.012   1.304  52.606  1.00  0.00     0.263 C 
HETATM    3  N1  UNL     1      22.142   1.098  53.647  1.00  0.00    -0.322 N 
HETATM    4  C2  UNL     1      20.992   0.234  53.492  1.00  0.00     0.037 A 
HETATM    5  C3  UNL     1      20.760  -0.954  54.152  1.00  0.00     0.029 A 
HETATM    6  C4  UNL     1      19.605  -1.656  53.885  1.00  0.00     0.004 A 
HETATM    7  C5  UNL     1      18.671  -1.207  52.977  1.00  0.00     0.030 A 
HETATM    8  C6  UNL     1      18.888  -0.023  52.309  1.00  0.00     0.051 A 
HETATM    9  C7  UNL     1      20.038   0.686  52.567  1.00  0.00     0.059 A 
HETATM   10  N2  UNL     1      17.944   0.465  51.368  1.00  0.00    -0.188 N 
HETATM   11  C8  UNL     1      17.999   1.782  50.840  1.00  0.00     0.727 A 
HETATM   12  N3  UNL     1      17.160   2.543  51.561  1.00  0.00    -0.075 NA
HETATM   13  C9  UNL     1      16.985   3.873  51.299  1.00  0.00     0.138 A 
HETATM   14  C10 UNL     1      17.753   4.316  50.236  1.00  0.00     0.048 A 
HETATM   15  C11 UNL     1      18.633   3.531  49.478  1.00  0.00     0.059 A 
HETATM   16  N4  UNL     1      18.738   2.234  49.810  1.00  0.00    -0.067 NA
HETATM   17  C12 UNL     1      19.376   4.148  48.373  1.00  0.00     0.106 C 
HETATM   18  C13 UNL     1      20.831   4.082  48.489  1.00  0.00     0.095 C 
HETATM   19  N5  UNL     1      21.700   4.928  48.027  1.00  0.00    -0.277 NA
HETATM   20  C14 UNL     1      23.097   4.636  48.276  1.00  0.00     0.114 C 
HETATM   21  C15 UNL     1      24.070   4.679  49.166  1.00  0.00     0.028 C 
HETATM   22  C16 UNL     1      25.421   4.533  49.806  1.00  0.00     0.176 C 
HETATM   23  C17 UNL     1      25.438   3.260  50.622  1.00  0.00    -0.018 A 
HETATM   24  C18 UNL     1      26.551   2.323  50.861  1.00  0.00     0.060 A 
HETATM   25  S1  UNL     1      25.659   1.040  51.943  1.00  0.00    -0.096 SA
HETATM   26  C19 UNL     1      24.145   1.842  51.916  1.00  0.00     0.073 A 
HETATM   27  C20 UNL     1      24.242   2.960  51.186  1.00  0.00     0.035 A 
HETATM   28  H1  UNL     1      22.003   1.372  54.623  1.00  0.00     0.169 HD
HETATM   29  H6  UNL     1      17.155  -0.114  51.010  1.00  0.00     0.184 HD
ENDROOT
BRANCH  22  30
HETATM   30  O2  UNL     1      25.755   5.644  50.547  1.00  0.00    -0.387 OA
HETATM   31  H15 UNL     1      26.649   5.951  50.286  1.00  0.00     0.210 HD
ENDBRANCH  22  30
TORSDOF 1
ENDMDL
MODEL 9
REMARK VINA RESULT:      -7.9      3.303      5.360
REMARK  1 active torsions:
REMARK  status: ('A' for Active; 'I' for Inactive)
REMARK    1  A    between atoms: C16_22  and  O2_23 
ROOT
HETATM    1  O1  UNL     1      19.183  -0.582  52.213  1.00  0.00    -0.267 OA
HETATM    2  C1  UNL     1      19.881  -0.065  53.093  1.00  0.00     0.263 C 
HETATM    3  N1  UNL     1      19.070  -0.715  53.990  1.00  0.00    -0.322 N 
HETATM    4  C2  UNL     1      17.969  -1.534  53.535  1.00  0.00     0.037 A 
HETATM    5  C3  UNL     1      17.836  -2.897  53.692  1.00  0.00     0.029 A 
HETATM    6  C4  UNL     1      16.714  -3.524  53.196  1.00  0.00     0.004 A 
HETATM    7  C5  UNL     1      15.718  -2.830  52.545  1.00  0.00     0.030 A 
HETATM    8  C6  UNL     1      15.834  -1.469  52.380  1.00  0.00     0.051 A 
HETATM    9  C7  UNL     1      16.951  -0.832  52.871  1.00  0.00     0.059 A 
HETATM   10  N2  UNL     1      14.823  -0.727  51.714  1.00  0.00    -0.188 N 
HETATM   11  C8  UNL     1      14.777   0.692  51.732  1.00  0.00     0.727 A 
HETATM   12  N3  UNL     1      13.926   1.058  52.705  1.00  0.00    -0.075 NA
HETATM   13  C9  UNL     1      13.661   2.371  52.976  1.00  0.00     0.138 A 
HETATM   14  C10 UNL     1      14.355   3.240  52.152  1.00  0.00     0.048 A 
HETATM   15  C11 UNL     1      15.247   2.869  51.135  1.00  0.00     0.059 A 
HETATM   16  N4  UNL     1      15.443   1.555  50.942  1.00  0.00    -0.067 NA
HETATM   17  C12 UNL     1      15.904   3.913  50.340  1.00  0.00     0.106 C 
HETATM   18  C13 UNL     1      17.363   3.911  50.397  1.00  0.00     0.095 C 
HETATM   19  N5  UNL     1      18.160   4.930  50.281  1.00  0.00    -0.277 NA
HETATM   20  C14 UNL     1      19.581   4.666  50.375  1.00  0.00     0.114 C 
HETATM   21  C15 UNL     1      20.588   4.435  51.197  1.00  0.00     0.028 C 
HETATM   22  C16 UNL     1      21.971   4.152  51.708  1.00  0.00     0.176 C 
HETATM   23  C17 UNL     1      22.099   2.669  51.973  1.00  0.00    -0.018 A 
HETATM   24  C18 UNL     1      23.275   1.794  51.814  1.00  0.00     0.060 A 
HETATM   25  S1  UNL     1      22.509   0.134  52.336  1.00  0.00    -0.096 SA
HETATM   26  C19 UNL     1      20.950   0.775  52.645  1.00  0.00     0.073 A 
HETATM   27  C20 UNL     1      20.948   2.091  52.398  1.00  0.00     0.035 A 
HETATM   28  H1  UNL     1      18.958  -0.845  54.999  1.00  0.00     0.169 HD
HETATM   29  H6  UNL     1      14.055  -1.180  51.175  1.00  0.00     0.184 HD
ENDROOT
BRANCH  22  30
HETATM   30  O2  UNL     1      22.270   4.917  52.813  1.00  0.00    -0.387 OA
HETATM   31  H15 UNL     1      21.690   4.651  53.558  1.00  0.00     0.210 HD
ENDBRANCH  22  30
TORSDOF 1
ENDMDL
