MODEL 1
REMARK VINA RESULT:      -7.9      0.000      0.000
REMARK  3 active torsions:
REMARK  status: ('A' for Active; 'I' for Inactive)
REMARK    1  A    between atoms: O1_1  and  C1_2 
REMARK    2  A    between atoms: C2_3  and  C3_4 
REMARK    3  A    between atoms: C4_5  and  C5_6 
ROOT
HETATM    1  C5  UNL     1      25.376   0.046  53.312  1.00  0.00     0.128 C 
HETATM    2  C6  UNL     1      24.068  -0.438  53.741  1.00  0.00     0.002 C 
HETATM    3  C7  UNL     1      22.762  -0.482  53.910  1.00  0.00    -0.000 C 
HETATM    4  C8  UNL     1      21.751   0.468  53.463  1.00  0.00     0.016 C 
HETATM    5  C9  UNL     1      21.325   1.549  52.874  1.00  0.00     0.083 C 
HETATM    6  N1  UNL     1      20.585   2.615  52.329  1.00  0.00    -0.398 N 
HETATM    7  C10 UNL     1      21.158   3.466  51.315  1.00  0.00     0.135 C 
HETATM    8  C11 UNL     1      21.349   2.806  50.010  1.00  0.00     0.024 C 
HETATM    9  C12 UNL     1      20.914   3.749  48.858  1.00  0.00     0.024 C 
HETATM   10  C13 UNL     1      21.712   3.125  47.601  1.00  0.00     0.061 C 
HETATM   11  C14 UNL     1      21.997   1.988  48.528  1.00  0.00     0.037 C 
HETATM   12  N2  UNL     1      21.568   0.782  48.805  1.00  0.00    -0.292 NA
HETATM   13  C15 UNL     1      20.621   1.487  49.875  1.00  0.00     0.165 C 
HETATM   14  C16 UNL     1      22.743   2.456  49.645  1.00  0.00    -0.004 C 
HETATM   15  C17 UNL     1      23.888   2.655  50.313  1.00  0.00     0.128 C 
HETATM   16  N3  UNL     1      24.345   3.206  51.514  1.00  0.00    -0.256 NA
HETATM   17  C18 UNL     1      24.968   2.604  52.425  1.00  0.00     0.203 C 
HETATM   18  N4  UNL     1      25.398   1.259  52.557  1.00  0.00    -0.373 N 
HETATM   19  H11 UNL     1      19.886   2.232  53.006  1.00  0.00     0.158 HD
HETATM   20  H22 UNL     1      25.984   1.257  51.668  1.00  0.00     0.161 HD
ENDROOT
BRANCH   1  21
HETATM   21  C4  UNL     1      26.213  -1.026  52.640  1.00  0.00    -0.002 C 
HETATM   22  C3  UNL     1      27.486  -1.440  52.709  1.00  0.00    -0.020 C 
BRANCH  22  23
HETATM   23  C2  UNL     1      27.818  -0.460  53.704  1.00  0.00     0.108 C 
HETATM   24  C1  UNL     1      28.863  -0.095  54.417  1.00  0.00     0.105 C 
BRANCH  24  25
HETATM   25  O1  UNL     1      28.541   0.954  55.230  1.00  0.00    -0.400 OA
HETATM   26  H1  UNL     1      27.689   0.919  55.785  1.00  0.00     0.209 HD
ENDBRANCH  24  25
ENDBRANCH  22  23
ENDBRANCH   1  21
TORSDOF 3
ENDMDL
MODEL 2
REMARK VINA RESULT:      -7.5      9.556     12.127
REMARK  3 active torsions:
REMARK  status: ('A' for Active; 'I' for Inactive)
REMARK    1  A    between atoms: O1_1  and  C1_2 
REMARK    2  A    between atoms: C2_3  and  C3_4 
REMARK    3  A    between atoms: C4_5  and  C5_6 
ROOT
HETATM    1  C5  UNL     1      29.616   8.223  48.276  1.00  0.00     0.128 C 
HETATM    2  C6  UNL     1      30.481   9.001  47.395  1.00  0.00     0.002 C 
HETATM    3  C7  UNL     1      31.565   9.378  46.747  1.00  0.00    -0.000 C 
HETATM    4  C8  UNL     1      32.893   8.778  46.761  1.00  0.00     0.016 C 
HETATM    5  C9  UNL     1      33.791   7.907  47.124  1.00  0.00     0.083 C 
HETATM    6  N1  UNL     1      34.948   7.132  47.329  1.00  0.00    -0.398 N 
HETATM    7  C10 UNL     1      34.853   5.798  47.871  1.00  0.00     0.135 C 
HETATM    8  C11 UNL     1      34.241   4.816  46.956  1.00  0.00     0.024 C 
HETATM    9  C12 UNL     1      35.031   3.482  46.987  1.00  0.00     0.024 C 
HETATM   10  C13 UNL     1      33.933   2.435  46.436  1.00  0.00     0.061 C 
HETATM   11  C14 UNL     1      33.147   3.658  46.092  1.00  0.00     0.037 C 
HETATM   12  N2  UNL     1      32.875   4.425  45.065  1.00  0.00    -0.292 NA
HETATM   13  C15 UNL     1      34.129   5.295  45.526  1.00  0.00     0.165 C 
HETATM   14  C16 UNL     1      32.857   4.391  47.275  1.00  0.00    -0.004 C 
HETATM   15  C17 UNL     1      32.054   4.749  48.288  1.00  0.00     0.128 C 
HETATM   16  N3  UNL     1      32.056   5.573  49.417  1.00  0.00    -0.256 NA
HETATM   17  C18 UNL     1      31.275   6.531  49.646  1.00  0.00     0.203 C 
HETATM   18  N4  UNL     1      30.198   7.080  48.906  1.00  0.00    -0.373 N 
HETATM   19  H11 UNL     1      35.376   8.004  46.941  1.00  0.00     0.158 HD
HETATM   20  H22 UNL     1      29.641   6.175  48.860  1.00  0.00     0.161 HD
ENDROOT
BRANCH   1  21
HETATM   21  C4  UNL     1      28.286   7.871  47.637  1.00  0.00    -0.002 C 
HETATM   22  C3  UNL     1      26.993   8.001  47.967  1.00  0.00    -0.020 C 
BRANCH  22  23
HETATM   23  C2  UNL     1      27.309   8.631  49.217  1.00  0.00     0.108 C 
HETATM   24  C1  UNL     1      26.677   9.209  50.217  1.00  0.00     0.105 C 
BRANCH  24  25
HETATM   25  O1  UNL     1      27.567   9.631  51.162  1.00  0.00    -0.400 OA
HETATM   26  H1  UNL     1      27.316   9.586  52.147  1.00  0.00     0.209 HD
ENDBRANCH  24  25
ENDBRANCH  22  23
ENDBRANCH   1  21
TORSDOF 3
ENDMDL
MODEL 3
REMARK VINA RESULT:      -7.1      2.109      2.525
REMARK  3 active torsions:
REMARK  status: ('A' for Active; 'I' for Inactive)
REMARK    1  A    between atoms: O1_1  and  C1_2 
REMARK    2  A    between atoms: C2_3  and  C3_4 
REMARK    3  A    between atoms: C4_5  and  C5_6 
ROOT
HETATM    1  C5  UNL     1      26.532   1.772  52.165  1.00  0.00     0.128 C 
HETATM    2  C6  UNL     1      25.569   2.217  53.167  1.00  0.00     0.002 C 
HETATM    3  C7  UNL     1      24.599   2.914  53.724  1.00  0.00    -0.000 C 
HETATM    4  C8  UNL     1      23.831   4.019  53.165  1.00  0.00     0.016 C 
HETATM    5  C9  UNL     1      23.495   4.875  52.243  1.00  0.00     0.083 C 
HETATM    6  N1  UNL     1      22.926   5.898  51.459  1.00  0.00    -0.398 N 
HETATM    7  C10 UNL     1      23.100   5.910  50.027  1.00  0.00     0.135 C 
HETATM    8  C11 UNL     1      22.377   4.836  49.321  1.00  0.00     0.024 C 
HETATM    9  C12 UNL     1      21.698   5.391  48.042  1.00  0.00     0.024 C 
HETATM   10  C13 UNL     1      21.497   4.049  47.167  1.00  0.00     0.061 C 
HETATM   11  C14 UNL     1      21.881   3.341  48.425  1.00  0.00     0.037 C 
HETATM   12  N2  UNL     1      21.333   2.716  49.437  1.00  0.00    -0.292 NA
HETATM   13  C15 UNL     1      21.341   4.132  50.169  1.00  0.00     0.165 C 
HETATM   14  C16 UNL     1      23.200   3.718  48.803  1.00  0.00    -0.004 C 
HETATM   15  C17 UNL     1      24.525   3.520  48.859  1.00  0.00     0.128 C 
HETATM   16  N3  UNL     1      25.680   4.139  49.345  1.00  0.00    -0.256 NA
HETATM   17  C18 UNL     1      26.482   3.669  50.192  1.00  0.00     0.203 C 
HETATM   18  N4  UNL     1      26.505   2.443  50.904  1.00  0.00    -0.373 N 
HETATM   19  H11 UNL     1      22.611   6.196  52.411  1.00  0.00     0.158 HD
HETATM   20  H22 UNL     1      26.508   1.827  50.036  1.00  0.00     0.161 HD
ENDROOT
BRANCH   1  21
HETATM   21  C4  UNL     1      26.538   0.267  51.979  1.00  0.00    -0.002 C 
HETATM   22  C3  UNL     1      27.159  -0.773  52.553  1.00  0.00    -0.020 C 
BRANCH  22  23
HETATM   23  C2  UNL     1      27.867   0.073  53.471  1.00  0.00     0.108 C 
HETATM   24  C1  UNL     1      28.522  -0.035  54.607  1.00  0.00     0.105 C 
BRANCH  24  25
HETATM   25  O1  UNL     1      28.992   1.183  55.005  1.00  0.00    -0.400 OA
HETATM   26  H1  UNL     1      29.930   1.260  55.393  1.00  0.00     0.209 HD
ENDBRANCH  24  25
ENDBRANCH  22  23
ENDBRANCH   1  21
TORSDOF 3
ENDMDL
MODEL 4
REMARK VINA RESULT:      -7.0      3.908      6.221
REMARK  3 active torsions:
REMARK  status: ('A' for Active; 'I' for Inactive)
REMARK    1  A    between atoms: O1_1  and  C1_2 
REMARK    2  A    between atoms: C2_3  and  C3_4 
REMARK    3  A    between atoms: C4_5  and  C5_6 
ROOT
HETATM    1  C5  UNL     1      25.231   6.651  50.308  1.00  0.00     0.128 C 
HETATM    2  C6  UNL     1      25.911   5.514  49.696  1.00  0.00     0.002 C 
HETATM    3  C7  UNL     1      26.266   4.266  49.464  1.00  0.00    -0.000 C 
HETATM    4  C8  UNL     1      25.822   3.050  50.134  1.00  0.00     0.016 C 
HETATM    5  C9  UNL     1      25.136   2.365  51.004  1.00  0.00     0.083 C 
HETATM    6  N1  UNL     1      24.539   1.381  51.815  1.00  0.00    -0.398 N 
HETATM    7  C10 UNL     1      23.333   1.668  52.552  1.00  0.00     0.135 C 
HETATM    8  C11 UNL     1      22.135   1.836  51.710  1.00  0.00     0.024 C 
HETATM    9  C12 UNL     1      20.921   1.105  52.342  1.00  0.00     0.024 C 
HETATM   10  C13 UNL     1      19.679   1.865  51.645  1.00  0.00     0.061 C 
HETATM   11  C14 UNL     1      20.724   2.460  50.759  1.00  0.00     0.037 C 
HETATM   12  N2  UNL     1      21.245   2.301  49.568  1.00  0.00    -0.292 NA
HETATM   13  C15 UNL     1      22.314   1.360  50.285  1.00  0.00     0.165 C 
HETATM   14  C16 UNL     1      21.637   3.221  51.539  1.00  0.00    -0.004 C 
HETATM   15  C17 UNL     1      22.098   4.374  52.045  1.00  0.00     0.128 C 
HETATM   16  N3  UNL     1      23.121   4.848  52.873  1.00  0.00    -0.256 NA
HETATM   17  C18 UNL     1      24.019   5.670  52.558  1.00  0.00     0.203 C 
HETATM   18  N4  UNL     1      24.299   6.359  51.351  1.00  0.00    -0.373 N 
HETATM   19  H11 UNL     1      25.360   0.846  51.448  1.00  0.00     0.158 HD
HETATM   20  H22 UNL     1      23.348   6.833  51.287  1.00  0.00     0.161 HD
ENDROOT
BRANCH   1  21
HETATM   21  C4  UNL     1      24.626   7.596  49.289  1.00  0.00    -0.002 C 
HETATM   22  C3  UNL     1      24.818   8.872  48.922  1.00  0.00    -0.020 C 
BRANCH  22  23
HETATM   23  C2  UNL     1      25.866   9.058  49.885  1.00  0.00     0.108 C 
HETATM   24  C1  UNL     1      27.095   9.527  49.927  1.00  0.00     0.105 C 
BRANCH  24  25
HETATM   25  O1  UNL     1      27.599   9.432  51.192  1.00  0.00    -0.400 OA
HETATM   26  H1  UNL     1      28.020  10.248  51.631  1.00  0.00     0.209 HD
ENDBRANCH  24  25
ENDBRANCH  22  23
ENDBRANCH   1  21
TORSDOF 3
ENDMDL
MODEL 5
REMARK VINA RESULT:      -7.0      3.534      5.224
REMARK  3 active torsions:
REMARK  status: ('A' for Active; 'I' for Inactive)
REMARK    1  A    between atoms: O1_1  and  C1_2 
REMARK    2  A    between atoms: C2_3  and  C3_4 
REMARK    3  A    between atoms: C4_5  and  C5_6 
ROOT
HETATM    1  C5  UNL     1      22.444   1.571  51.855  1.00  0.00     0.128 C 
HETATM    2  C6  UNL     1      22.348   1.402  50.408  1.00  0.00     0.002 C 
HETATM    3  C7  UNL     1      22.242   1.717  49.132  1.00  0.00    -0.000 C 
HETATM    4  C8  UNL     1      22.134   3.036  48.523  1.00  0.00     0.016 C 
HETATM    5  C9  UNL     1      22.072   4.337  48.527  1.00  0.00     0.083 C 
HETATM    6  N1  UNL     1      21.983   5.708  48.223  1.00  0.00    -0.398 N 
HETATM    7  C10 UNL     1      22.393   6.703  49.184  1.00  0.00     0.135 C 
HETATM    8  C11 UNL     1      23.848   6.752  49.421  1.00  0.00     0.024 C 
HETATM    9  C12 UNL     1      24.338   8.222  49.480  1.00  0.00     0.024 C 
HETATM   10  C13 UNL     1      25.726   8.075  50.291  1.00  0.00     0.061 C 
HETATM   11  C14 UNL     1      25.531   6.610  50.076  1.00  0.00     0.037 C 
HETATM   12  N2  UNL     1      25.934   5.644  49.288  1.00  0.00    -0.292 NA
HETATM   13  C15 UNL     1      24.663   5.998  48.393  1.00  0.00     0.165 C 
HETATM   14  C16 UNL     1      24.327   6.189  50.705  1.00  0.00    -0.004 C 
HETATM   15  C17 UNL     1      23.641   5.641  51.719  1.00  0.00     0.128 C 
HETATM   16  N3  UNL     1      22.326   5.341  52.083  1.00  0.00    -0.256 NA
HETATM   17  C18 UNL     1      21.860   4.201  52.338  1.00  0.00     0.203 C 
HETATM   18  N4  UNL     1      22.449   2.912  52.348  1.00  0.00    -0.373 N 
HETATM   19  H11 UNL     1      21.616   5.298  47.334  1.00  0.00     0.158 HD
HETATM   20  H22 UNL     1      23.200   3.154  53.063  1.00  0.00     0.161 HD
ENDROOT
BRANCH   1  21
HETATM   21  C4  UNL     1      23.570   0.763  52.470  1.00  0.00    -0.002 C 
HETATM   22  C3  UNL     1      23.681  -0.145  53.452  1.00  0.00    -0.020 C 
BRANCH  22  23
HETATM   23  C2  UNL     1      22.278  -0.092  53.746  1.00  0.00     0.108 C 
HETATM   24  C1  UNL     1      21.463  -0.427  54.725  1.00  0.00     0.105 C 
BRANCH  24  25
HETATM   25  O1  UNL     1      20.175  -0.110  54.401  1.00  0.00    -0.400 OA
HETATM   26  H1  UNL     1      19.784  -0.428  53.517  1.00  0.00     0.209 HD
ENDBRANCH  24  25
ENDBRANCH  22  23
ENDBRANCH   1  21
TORSDOF 3
ENDMDL
MODEL 6
REMARK VINA RESULT:      -6.8      4.083      6.169
REMARK  3 active torsions:
REMARK  status: ('A' for Active; 'I' for Inactive)
REMARK    1  A    between atoms: O1_1  and  C1_2 
REMARK    2  A    between atoms: C2_3  and  C3_4 
REMARK    3  A    between atoms: C4_5  and  C5_6 
ROOT
HETATM    1  C5  UNL     1      25.780   6.659  49.662  1.00  0.00     0.128 C 
HETATM    2  C6  UNL     1      26.435   5.385  49.384  1.00  0.00     0.002 C 
HETATM    3  C7  UNL     1      26.660   4.086  49.384  1.00  0.00    -0.000 C 
HETATM    4  C8  UNL     1      25.879   3.023  50.002  1.00  0.00     0.016 C 
HETATM    5  C9  UNL     1      24.887   2.535  50.691  1.00  0.00     0.083 C 
HETATM    6  N1  UNL     1      23.953   1.735  51.377  1.00  0.00    -0.398 N 
HETATM    7  C10 UNL     1      22.642   2.244  51.697  1.00  0.00     0.135 C 
HETATM    8  C11 UNL     1      21.764   2.432  50.527  1.00  0.00     0.024 C 
HETATM    9  C12 UNL     1      20.331   1.927  50.838  1.00  0.00     0.024 C 
HETATM   10  C13 UNL     1      19.455   2.721  49.739  1.00  0.00     0.061 C 
HETATM   11  C14 UNL     1      20.780   3.079  49.149  1.00  0.00     0.037 C 
HETATM   12  N2  UNL     1      21.586   2.711  48.184  1.00  0.00    -0.292 NA
HETATM   13  C15 UNL     1      22.266   1.760  49.268  1.00  0.00     0.165 C 
HETATM   14  C16 UNL     1      21.536   3.830  50.090  1.00  0.00    -0.004 C 
HETATM   15  C17 UNL     1      21.996   4.982  50.601  1.00  0.00     0.128 C 
HETATM   16  N3  UNL     1      22.802   5.443  51.646  1.00  0.00    -0.256 NA
HETATM   17  C18 UNL     1      23.859   6.115  51.535  1.00  0.00     0.203 C 
HETATM   18  N4  UNL     1      24.561   6.608  50.406  1.00  0.00    -0.373 N 
HETATM   19  H11 UNL     1      24.759   1.071  51.319  1.00  0.00     0.158 HD
HETATM   20  H22 UNL     1      23.744   7.171  50.022  1.00  0.00     0.161 HD
ENDROOT
BRANCH   1  21
HETATM   21  C4  UNL     1      25.625   7.525  48.427  1.00  0.00    -0.002 C 
HETATM   22  C3  UNL     1      25.962   8.775  48.077  1.00  0.00    -0.020 C 
BRANCH  22  23
HETATM   23  C2  UNL     1      26.564   9.038  49.353  1.00  0.00     0.108 C 
HETATM   24  C1  UNL     1      27.686   9.534  49.830  1.00  0.00     0.105 C 
BRANCH  24  25
HETATM   25  O1  UNL     1      27.669   9.525  51.195  1.00  0.00    -0.400 OA
HETATM   26  H1  UNL     1      27.239   8.745  51.688  1.00  0.00     0.209 HD
ENDBRANCH  24  25
ENDBRANCH  22  23
ENDBRANCH   1  21
TORSDOF 3
ENDMDL
MODEL 7
REMARK VINA RESULT:      -6.6      4.029      7.184
REMARK  3 active torsions:
REMARK  status: ('A' for Active; 'I' for Inactive)
REMARK    1  A    between atoms: O1_1  and  C1_2 
REMARK    2  A    between atoms: C2_3  and  C3_4 
REMARK    3  A    between atoms: C4_5  and  C5_6 
ROOT
HETATM    1  C5  UNL     1      24.592   6.207  50.306  1.00  0.00     0.128 C 
HETATM    2  C6  UNL     1      23.684   5.961  51.422  1.00  0.00     0.002 C 
HETATM    3  C7  UNL     1      23.028   5.306  52.359  1.00  0.00    -0.000 C 
HETATM    4  C8  UNL     1      23.079   3.887  52.687  1.00  0.00     0.016 C 
HETATM    5  C9  UNL     1      23.488   2.658  52.552  1.00  0.00     0.083 C 
HETATM    6  N1  UNL     1      23.735   1.275  52.643  1.00  0.00    -0.398 N 
HETATM    7  C10 UNL     1      24.913   0.697  52.042  1.00  0.00     0.135 C 
HETATM    8  C11 UNL     1      26.175   1.065  52.711  1.00  0.00     0.024 C 
HETATM    9  C12 UNL     1      27.097  -0.176  52.846  1.00  0.00     0.024 C 
HETATM   10  C13 UNL     1      28.547   0.509  53.029  1.00  0.00     0.061 C 
HETATM   11  C14 UNL     1      27.770   1.775  53.193  1.00  0.00     0.037 C 
HETATM   12  N2  UNL     1      27.320   2.567  54.135  1.00  0.00    -0.292 NA
HETATM   13  C15 UNL     1      25.987   1.695  54.074  1.00  0.00     0.165 C 
HETATM   14  C16 UNL     1      27.035   2.043  52.006  1.00  0.00    -0.004 C 
HETATM   15  C17 UNL     1      26.860   2.657  50.826  1.00  0.00     0.128 C 
HETATM   16  N3  UNL     1      25.939   2.716  49.776  1.00  0.00    -0.256 NA
HETATM   17  C18 UNL     1      25.320   3.736  49.379  1.00  0.00     0.203 C 
HETATM   18  N4  UNL     1      25.329   5.085  49.815  1.00  0.00    -0.373 N 
HETATM   19  H11 UNL     1      22.833   1.336  53.168  1.00  0.00     0.158 HD
HETATM   20  H22 UNL     1      26.373   5.228  49.669  1.00  0.00     0.161 HD
ENDROOT
BRANCH   1  21
HETATM   21  C4  UNL     1      25.505   7.395  50.538  1.00  0.00    -0.002 C 
HETATM   22  C3  UNL     1      25.686   8.598  49.973  1.00  0.00    -0.020 C 
BRANCH  22  23
HETATM   23  C2  UNL     1      24.652   8.370  49.005  1.00  0.00     0.108 C 
HETATM   24  C1  UNL     1      24.444   8.564  47.719  1.00  0.00     0.105 C 
BRANCH  24  25
HETATM   25  O1  UNL     1      23.206   8.113  47.363  1.00  0.00    -0.400 OA
HETATM   26  H1  UNL     1      22.691   7.502  47.994  1.00  0.00     0.209 HD
ENDBRANCH  24  25
ENDBRANCH  22  23
ENDBRANCH   1  21
TORSDOF 3
ENDMDL
MODEL 8
REMARK VINA RESULT:      -6.6      8.026      9.990
REMARK  3 active torsions:
REMARK  status: ('A' for Active; 'I' for Inactive)
REMARK    1  A    between atoms: O1_1  and  C1_2 
REMARK    2  A    between atoms: C2_3  and  C3_4 
REMARK    3  A    between atoms: C4_5  and  C5_6 
ROOT
HETATM    1  C5  UNL     1      25.999   6.445  49.102  1.00  0.00     0.128 C 
HETATM    2  C6  UNL     1      25.476   6.941  47.833  1.00  0.00     0.002 C 
HETATM    3  C7  UNL     1      25.191   7.782  46.859  1.00  0.00    -0.000 C 
HETATM    4  C8  UNL     1      25.497   9.203  46.760  1.00  0.00     0.016 C 
HETATM    5  C9  UNL     1      25.992  10.335  47.172  1.00  0.00     0.083 C 
HETATM    6  N1  UNL     1      26.415  11.667  47.347  1.00  0.00    -0.398 N 
HETATM    7  C10 UNL     1      27.436  11.993  48.312  1.00  0.00     0.135 C 
HETATM    8  C11 UNL     1      28.783  11.511  47.954  1.00  0.00     0.024 C 
HETATM    9  C12 UNL     1      29.844  12.605  48.244  1.00  0.00     0.024 C 
HETATM   10  C13 UNL     1      31.197  11.731  48.354  1.00  0.00     0.061 C 
HETATM   11  C14 UNL     1      30.355  10.622  47.814  1.00  0.00     0.037 C 
HETATM   12  N2  UNL     1      30.098  10.010  46.684  1.00  0.00    -0.292 NA
HETATM   13  C15 UNL     1      28.913  11.063  46.515  1.00  0.00     0.165 C 
HETATM   14  C16 UNL     1      29.291  10.345  48.714  1.00  0.00    -0.004 C 
HETATM   15  C17 UNL     1      28.721   9.645  49.707  1.00  0.00     0.128 C 
HETATM   16  N3  UNL     1      27.542   9.617  50.457  1.00  0.00    -0.256 NA
HETATM   17  C18 UNL     1      26.722   8.667  50.528  1.00  0.00     0.203 C 
HETATM   18  N4  UNL     1      26.694   7.385  49.923  1.00  0.00    -0.373 N 
HETATM   19  H11 UNL     1      25.696  11.798  46.599  1.00  0.00     0.158 HD
HETATM   20  H22 UNL     1      27.632   7.071  50.318  1.00  0.00     0.161 HD
ENDROOT
BRANCH   1  21
HETATM   21  C4  UNL     1      26.796   5.163  48.951  1.00  0.00    -0.002 C 
HETATM   22  C3  UNL     1      26.655   3.888  49.344  1.00  0.00    -0.020 C 
BRANCH  22  23
HETATM   23  C2  UNL     1      25.408   4.161  50.000  1.00  0.00     0.108 C 
HETATM   24  C1  UNL     1      24.475   3.504  50.657  1.00  0.00     0.105 C 
BRANCH  24  25
HETATM   25  O1  UNL     1      23.485   4.355  51.057  1.00  0.00    -0.400 OA
HETATM   26  H1  UNL     1      22.965   4.158  51.909  1.00  0.00     0.209 HD
ENDBRANCH  24  25
ENDBRANCH  22  23
ENDBRANCH   1  21
TORSDOF 3
ENDMDL
MODEL 9
REMARK VINA RESULT:      -6.6     11.529     13.346
REMARK  3 active torsions:
REMARK  status: ('A' for Active; 'I' for Inactive)
REMARK    1  A    between atoms: O1_1  and  C1_2 
REMARK    2  A    between atoms: C2_3  and  C3_4 
REMARK    3  A    between atoms: C4_5  and  C5_6 
ROOT
HETATM    1  C5  UNL     1      34.269   5.126  43.381  1.00  0.00     0.128 C 
HETATM    2  C6  UNL     1      34.752   4.222  44.420  1.00  0.00     0.002 C 
HETATM    3  C7  UNL     1      35.067   3.775  45.619  1.00  0.00    -0.000 C 
HETATM    4  C8  UNL     1      34.941   4.445  46.907  1.00  0.00     0.016 C 
HETATM    5  C9  UNL     1      34.629   5.431  47.698  1.00  0.00     0.083 C 
HETATM    6  N1  UNL     1      34.397   6.306  48.777  1.00  0.00    -0.398 N 
HETATM    7  C10 UNL     1      33.504   7.430  48.633  1.00  0.00     0.135 C 
HETATM    8  C11 UNL     1      32.083   7.061  48.501  1.00  0.00     0.024 C 
HETATM    9  C12 UNL     1      31.198   7.999  49.363  1.00  0.00     0.024 C 
HETATM   10  C13 UNL     1      29.756   7.834  48.656  1.00  0.00     0.061 C 
HETATM   11  C14 UNL     1      30.403   6.702  47.925  1.00  0.00     0.037 C 
HETATM   12  N2  UNL     1      30.490   5.396  47.965  1.00  0.00    -0.292 NA
HETATM   13  C15 UNL     1      31.785   5.623  48.866  1.00  0.00     0.165 C 
HETATM   14  C16 UNL     1      31.489   7.192  47.150  1.00  0.00    -0.004 C 
HETATM   15  C17 UNL     1      32.039   7.612  46.001  1.00  0.00     0.128 C 
HETATM   16  N3  UNL     1      33.258   8.083  45.506  1.00  0.00    -0.256 NA
HETATM   17  C18 UNL     1      33.952   7.557  44.599  1.00  0.00     0.203 C 
HETATM   18  N4  UNL     1      33.767   6.393  43.812  1.00  0.00    -0.373 N 
HETATM   19  H11 UNL     1      35.067   5.637  49.222  1.00  0.00     0.158 HD
HETATM   20  H22 UNL     1      32.830   6.697  43.409  1.00  0.00     0.161 HD
ENDROOT
BRANCH   1  21
HETATM   21  C4  UNL     1      33.304   4.460  42.419  1.00  0.00    -0.002 C 
HETATM   22  C3  UNL     1      33.275   4.208  41.102  1.00  0.00    -0.020 C 
BRANCH  22  23
HETATM   23  C2  UNL     1      34.554   4.824  40.891  1.00  0.00     0.108 C 
HETATM   24  C1  UNL     1      35.390   5.045  39.898  1.00  0.00     0.105 C 
BRANCH  24  25
HETATM   25  O1  UNL     1      36.494   5.711  40.345  1.00  0.00    -0.400 OA
HETATM   26  H1  UNL     1      36.388   6.473  41.011  1.00  0.00     0.209 HD
ENDBRANCH  24  25
ENDBRANCH  22  23
ENDBRANCH   1  21
TORSDOF 3
ENDMDL
