MODEL 1
REMARK VINA RESULT:      -8.2      0.000      0.000
REMARK  9 active torsions:
REMARK  status: ('A' for Active; 'I' for Inactive)
REMARK    1  A    between atoms: C2_2  and  C3_3 
REMARK    2  A    between atoms: C3_3  and  C4_4 
REMARK    3  A    between atoms: C3_3  and  C6_6 
REMARK    4  A    between atoms: C6_6  and  O1_7 
REMARK    5  A    between atoms: O1_7  and  C7_8 
REMARK    6  A    between atoms: C10_11  and  N1_12 
REMARK    7  A    between atoms: N1_12  and  C11_13 
REMARK    8  A    between atoms: C20_26  and  C21_27 
REMARK    9  A    between atoms: C21_27  and  N4_28 
ROOT
HETATM    1  C7  UNL     1      24.330  -0.144  53.346  1.00  0.00     0.077 A 
HETATM    2  C8  UNL     1      25.066   0.722  52.566  1.00  0.00     0.055 A 
HETATM    3  C9  UNL     1      26.288   1.282  52.852  1.00  0.00     0.041 A 
HETATM    4  C10 UNL     1      26.883   2.135  51.947  1.00  0.00     0.142 A 
HETATM    5  N2  UNL     1      28.073   2.612  52.353  1.00  0.00    -0.224 NA
HETATM    6  C17 UNL     1      28.627   2.281  53.536  1.00  0.00     0.236 A 
HETATM    7  N3  UNL     1      28.003   1.432  54.402  1.00  0.00    -0.241 NA
HETATM    8  C18 UNL     1      26.807   0.912  54.069  1.00  0.00     0.073 A 
HETATM    9  C19 UNL     1      26.177   0.056  54.941  1.00  0.00     0.044 A 
HETATM   10  C20 UNL     1      24.929  -0.476  54.580  1.00  0.00    -0.005 A 
ENDROOT
BRANCH   4  11
HETATM   11  N1  UNL     1      26.297   2.481  50.697  1.00  0.00    -0.340 N 
HETATM   12  H15 UNL     1      25.943   1.641  50.201  1.00  0.00     0.167 HD
BRANCH  11  13
HETATM   13  C11 UNL     1      26.176   3.783  50.131  1.00  0.00     0.035 A 
HETATM   14  C12 UNL     1      27.093   4.186  49.182  1.00  0.00     0.032 A 
HETATM   15  C13 UNL     1      26.959   5.446  48.641  1.00  0.00     0.046 A 
HETATM   16  C14 UNL     1      25.937   6.304  49.028  1.00  0.00     0.138 A 
HETATM   17  F1  UNL     1      25.827   7.537  48.482  1.00  0.00    -0.204 F 
HETATM   18  C15 UNL     1      25.045   5.855  49.980  1.00  0.00     0.074 A 
HETATM   19 CL1  UNL     1      23.774   6.965  50.437  1.00  0.00    -0.081 Cl
HETATM   20  C16 UNL     1      25.145   4.601  50.545  1.00  0.00     0.056 A 
ENDBRANCH  11  13
ENDBRANCH   4  11
BRANCH   1  21
HETATM   21  O1  UNL     1      23.170  -0.760  53.224  1.00  0.00    -0.350 OA
BRANCH  21  22
HETATM   22  C6  UNL     1      21.873  -0.674  52.984  1.00  0.00     0.180 C 
BRANCH  22  23
HETATM   23  C3  UNL     1      21.287   0.471  52.180  1.00  0.00     0.009 C 
BRANCH  23  24
HETATM   24  C2  UNL     1      21.697   0.545  50.776  1.00  0.00     0.002 C 
HETATM   25  C1  UNL     1      22.366   1.798  50.293  1.00  0.00     0.005 C 
ENDBRANCH  23  24
BRANCH  23  26
HETATM   26  C4  UNL     1      19.802   0.353  52.357  1.00  0.00     0.002 C 
HETATM   27  C5  UNL     1      18.959   0.382  51.129  1.00  0.00     0.005 C 
ENDBRANCH  23  26
ENDBRANCH  22  23
ENDBRANCH  21  22
ENDBRANCH   1  21
BRANCH  10  28
HETATM   28  C21 UNL     1      24.313  -1.406  55.596  1.00  0.00     0.152 C 
BRANCH  28  29
HETATM   29  N4  UNL     1      25.083  -1.290  56.787  1.00  0.00    -0.426 N 
HETATM   30  H23 UNL     1      25.912  -1.887  56.842  1.00  0.00     0.150 HD
HETATM   31  H24 UNL     1      25.131  -0.375  57.235  1.00  0.00     0.150 HD
ENDBRANCH  28  29
ENDBRANCH  10  28
TORSDOF 9
ENDMDL
MODEL 2
REMARK VINA RESULT:      -8.1      2.558      5.634
REMARK  9 active torsions:
REMARK  status: ('A' for Active; 'I' for Inactive)
REMARK    1  A    between atoms: C2_2  and  C3_3 
REMARK    2  A    between atoms: C3_3  and  C4_4 
REMARK    3  A    between atoms: C3_3  and  C6_6 
REMARK    4  A    between atoms: C6_6  and  O1_7 
REMARK    5  A    between atoms: O1_7  and  C7_8 
REMARK    6  A    between atoms: C10_11  and  N1_12 
REMARK    7  A    between atoms: N1_12  and  C11_13 
REMARK    8  A    between atoms: C20_26  and  C21_27 
REMARK    9  A    between atoms: C21_27  and  N4_28 
ROOT
HETATM    1  C7  UNL     1      25.974   1.053  52.236  1.00  0.00     0.077 A 
HETATM    2  C8  UNL     1      24.722   0.500  52.398  1.00  0.00     0.055 A 
HETATM    3  C9  UNL     1      24.251  -0.223  53.468  1.00  0.00     0.041 A 
HETATM    4  C10 UNL     1      22.960  -0.704  53.458  1.00  0.00     0.142 A 
HETATM    5  N2  UNL     1      22.631  -1.396  54.564  1.00  0.00    -0.224 NA
HETATM    6  C17 UNL     1      23.489  -1.594  55.583  1.00  0.00     0.236 A 
HETATM    7  N3  UNL     1      24.760  -1.099  55.551  1.00  0.00    -0.241 NA
HETATM    8  C18 UNL     1      25.166  -0.396  54.478  1.00  0.00     0.073 A 
HETATM    9  C19 UNL     1      26.447   0.103  54.443  1.00  0.00     0.044 A 
HETATM   10  C20 UNL     1      26.856   0.832  53.316  1.00  0.00    -0.005 A 
ENDROOT
BRANCH   4  11
HETATM   11  N1  UNL     1      22.054  -0.490  52.382  1.00  0.00    -0.340 N 
HETATM   12  H15 UNL     1      21.844  -1.375  51.883  1.00  0.00     0.167 HD
BRANCH  11  13
HETATM   13  C11 UNL     1      21.469   0.745  51.980  1.00  0.00     0.035 A 
HETATM   14  C12 UNL     1      21.094   1.653  52.949  1.00  0.00     0.032 A 
HETATM   15  C13 UNL     1      20.533   2.846  52.544  1.00  0.00     0.046 A 
HETATM   16  C14 UNL     1      20.342   3.144  51.200  1.00  0.00     0.138 A 
HETATM   17  F1  UNL     1      19.788   4.321  50.827  1.00  0.00    -0.204 F 
HETATM   18  C15 UNL     1      20.732   2.204  50.269  1.00  0.00     0.074 A 
HETATM   19 CL1  UNL     1      20.474   2.620  48.590  1.00  0.00    -0.081 Cl
HETATM   20  C16 UNL     1      21.297   0.999  50.634  1.00  0.00     0.056 A 
ENDBRANCH  11  13
ENDBRANCH   4  11
BRANCH   1  21
HETATM   21  O1  UNL     1      26.573   1.760  51.298  1.00  0.00    -0.350 OA
BRANCH  21  22
HETATM   22  C6  UNL     1      26.669   2.904  50.643  1.00  0.00     0.180 C 
BRANCH  22  23
HETATM   23  C3  UNL     1      25.611   3.340  49.646  1.00  0.00     0.009 C 
BRANCH  23  24
HETATM   24  C2  UNL     1      24.231   3.347  50.137  1.00  0.00     0.002 C 
HETATM   25  C1  UNL     1      23.924   4.109  51.392  1.00  0.00     0.005 C 
ENDBRANCH  23  24
BRANCH  23  26
HETATM   26  C4  UNL     1      26.069   4.680  49.151  1.00  0.00     0.002 C 
HETATM   27  C5  UNL     1      27.490   4.806  48.722  1.00  0.00     0.005 C 
ENDBRANCH  23  26
ENDBRANCH  22  23
ENDBRANCH  21  22
ENDBRANCH   1  21
BRANCH  10  28
HETATM   28  C21 UNL     1      28.275   1.343  53.366  1.00  0.00     0.152 C 
BRANCH  28  29
HETATM   29  N4  UNL     1      28.223   2.668  53.883  1.00  0.00    -0.426 N 
HETATM   30  H23 UNL     1      28.430   2.765  54.881  1.00  0.00     0.150 HD
HETATM   31  H24 UNL     1      28.506   3.430  53.268  1.00  0.00     0.150 HD
ENDBRANCH  28  29
ENDBRANCH  10  28
TORSDOF 9
ENDMDL
MODEL 3
REMARK VINA RESULT:      -8.0      2.379      5.042
REMARK  9 active torsions:
REMARK  status: ('A' for Active; 'I' for Inactive)
REMARK    1  A    between atoms: C2_2  and  C3_3 
REMARK    2  A    between atoms: C3_3  and  C4_4 
REMARK    3  A    between atoms: C3_3  and  C6_6 
REMARK    4  A    between atoms: C6_6  and  O1_7 
REMARK    5  A    between atoms: O1_7  and  C7_8 
REMARK    6  A    between atoms: C10_11  and  N1_12 
REMARK    7  A    between atoms: N1_12  and  C11_13 
REMARK    8  A    between atoms: C20_26  and  C21_27 
REMARK    9  A    between atoms: C21_27  and  N4_28 
ROOT
HETATM    1  C7  UNL     1      24.430  -0.390  53.510  1.00  0.00     0.077 A 
HETATM    2  C8  UNL     1      23.816   0.400  52.562  1.00  0.00     0.055 A 
HETATM    3  C9  UNL     1      22.498   0.785  52.510  1.00  0.00     0.041 A 
HETATM    4  C10 UNL     1      22.054   1.583  51.479  1.00  0.00     0.142 A 
HETATM    5  N2  UNL     1      20.744   1.882  51.550  1.00  0.00    -0.224 NA
HETATM    6  C17 UNL     1      19.947   1.440  52.541  1.00  0.00     0.236 A 
HETATM    7  N3  UNL     1      20.429   0.651  53.544  1.00  0.00    -0.241 NA
HETATM    8  C18 UNL     1      21.730   0.306  53.545  1.00  0.00     0.073 A 
HETATM    9  C19 UNL     1      22.218  -0.490  54.554  1.00  0.00     0.044 A 
HETATM   10  C20 UNL     1      23.576  -0.842  54.539  1.00  0.00    -0.005 A 
ENDROOT
BRANCH   4  11
HETATM   11  N1  UNL     1      22.898   2.052  50.434  1.00  0.00    -0.340 N 
HETATM   12  H15 UNL     1      22.905   1.397  49.630  1.00  0.00     0.167 HD
BRANCH  11  13
HETATM   13  C11 UNL     1      23.668   3.252  50.420  1.00  0.00     0.035 A 
HETATM   14  C12 UNL     1      23.188   4.360  51.087  1.00  0.00     0.032 A 
HETATM   15  C13 UNL     1      23.946   5.512  51.068  1.00  0.00     0.046 A 
HETATM   16  C14 UNL     1      25.162   5.575  50.399  1.00  0.00     0.138 A 
HETATM   17  F1  UNL     1      25.888   6.718  50.394  1.00  0.00    -0.204 F 
HETATM   18  C15 UNL     1      25.599   4.441  49.747  1.00  0.00     0.074 A 
HETATM   19 CL1  UNL     1      27.135   4.564  48.919  1.00  0.00    -0.081 Cl
HETATM   20  C16 UNL     1      24.870   3.270  49.743  1.00  0.00     0.056 A 
ENDBRANCH  11  13
ENDBRANCH   4  11
BRANCH   1  21
HETATM   21  O1  UNL     1      25.654  -0.842  53.705  1.00  0.00    -0.350 OA
BRANCH  21  22
HETATM   22  C6  UNL     1      26.951  -0.699  53.492  1.00  0.00     0.180 C 
BRANCH  22  23
HETATM   23  C3  UNL     1      27.771   0.331  54.245  1.00  0.00     0.009 C 
BRANCH  23  24
HETATM   24  C2  UNL     1      29.225   0.175  54.168  1.00  0.00     0.002 C 
HETATM   25  C1  UNL     1      29.778  -1.011  53.434  1.00  0.00     0.005 C 
ENDBRANCH  23  24
BRANCH  23  26
HETATM   26  C4  UNL     1      27.291   1.659  53.739  1.00  0.00     0.002 C 
HETATM   27  C5  UNL     1      27.270   1.866  52.264  1.00  0.00     0.005 C 
ENDBRANCH  23  26
ENDBRANCH  22  23
ENDBRANCH  21  22
ENDBRANCH   1  21
BRANCH  10  28
HETATM   28  C21 UNL     1      24.022  -1.715  55.686  1.00  0.00     0.152 C 
BRANCH  28  29
HETATM   29  N4  UNL     1      24.992  -0.975  56.419  1.00  0.00    -0.426 N 
HETATM   30  H23 UNL     1      24.726  -0.713  57.372  1.00  0.00     0.150 HD
HETATM   31  H24 UNL     1      25.976  -1.177  56.244  1.00  0.00     0.150 HD
ENDBRANCH  28  29
ENDBRANCH  10  28
TORSDOF 9
ENDMDL
MODEL 4
REMARK VINA RESULT:      -8.0      1.079      1.425
REMARK  9 active torsions:
REMARK  status: ('A' for Active; 'I' for Inactive)
REMARK    1  A    between atoms: C2_2  and  C3_3 
REMARK    2  A    between atoms: C3_3  and  C4_4 
REMARK    3  A    between atoms: C3_3  and  C6_6 
REMARK    4  A    between atoms: C6_6  and  O1_7 
REMARK    5  A    between atoms: O1_7  and  C7_8 
REMARK    6  A    between atoms: C10_11  and  N1_12 
REMARK    7  A    between atoms: N1_12  and  C11_13 
REMARK    8  A    between atoms: C20_26  and  C21_27 
REMARK    9  A    between atoms: C21_27  and  N4_28 
ROOT
HETATM    1  C7  UNL     1      24.068   0.009  53.071  1.00  0.00     0.077 A 
HETATM    2  C8  UNL     1      24.883   0.833  52.324  1.00  0.00     0.055 A 
HETATM    3  C9  UNL     1      26.114   1.338  52.668  1.00  0.00     0.041 A 
HETATM    4  C10 UNL     1      26.793   2.155  51.790  1.00  0.00     0.142 A 
HETATM    5  N2  UNL     1      27.982   2.580  52.253  1.00  0.00    -0.224 NA
HETATM    6  C17 UNL     1      28.459   2.233  53.465  1.00  0.00     0.236 A 
HETATM    7  N3  UNL     1      27.753   1.421  54.303  1.00  0.00    -0.241 NA
HETATM    8  C18 UNL     1      26.553   0.954  53.913  1.00  0.00     0.073 A 
HETATM    9  C19 UNL     1      25.840   0.136  54.757  1.00  0.00     0.044 A 
HETATM   10  C20 UNL     1      24.588  -0.340  54.336  1.00  0.00    -0.005 A 
ENDROOT
BRANCH   4  11
HETATM   11  N1  UNL     1      26.288   2.516  50.510  1.00  0.00    -0.340 N 
HETATM   12  H15 UNL     1      26.013   1.680  49.962  1.00  0.00     0.167 HD
BRANCH  11  13
HETATM   13  C11 UNL     1      26.148   3.831  49.977  1.00  0.00     0.035 A 
HETATM   14  C12 UNL     1      24.988   4.533  50.230  1.00  0.00     0.032 A 
HETATM   15  C13 UNL     1      24.870   5.805  49.711  1.00  0.00     0.046 A 
HETATM   16  C14 UNL     1      25.880   6.381  48.950  1.00  0.00     0.138 A 
HETATM   17  F1  UNL     1      25.740   7.631  48.451  1.00  0.00    -0.204 F 
HETATM   18  C15 UNL     1      27.020   5.638  48.725  1.00  0.00     0.074 A 
HETATM   19 CL1  UNL     1      28.267   6.401  47.764  1.00  0.00    -0.081 Cl
HETATM   20  C16 UNL     1      27.177   4.363  49.227  1.00  0.00     0.056 A 
ENDBRANCH  11  13
ENDBRANCH   4  11
BRANCH   1  21
HETATM   21  O1  UNL     1      22.889  -0.554  52.894  1.00  0.00    -0.350 OA
BRANCH  21  22
HETATM   22  C6  UNL     1      21.600  -0.404  52.644  1.00  0.00     0.180 C 
BRANCH  22  23
HETATM   23  C3  UNL     1      21.092   0.671  51.702  1.00  0.00     0.009 C 
BRANCH  23  24
HETATM   24  C2  UNL     1      21.624   0.633  50.338  1.00  0.00     0.002 C 
HETATM   25  C1  UNL     1      22.324   1.850  49.810  1.00  0.00     0.005 C 
ENDBRANCH  23  24
BRANCH  23  26
HETATM   26  C4  UNL     1      19.597   0.565  51.756  1.00  0.00     0.002 C 
HETATM   27  C5  UNL     1      19.011  -0.413  52.715  1.00  0.00     0.005 C 
ENDBRANCH  23  26
ENDBRANCH  22  23
ENDBRANCH  21  22
ENDBRANCH   1  21
BRANCH  10  28
HETATM   28  C21 UNL     1      23.879  -1.232  55.325  1.00  0.00     0.152 C 
BRANCH  28  29
HETATM   29  N4  UNL     1      24.791  -1.482  56.388  1.00  0.00    -0.426 N 
HETATM   30  H23 UNL     1      25.399  -2.296  56.272  1.00  0.00     0.150 HD
HETATM   31  H24 UNL     1      25.171  -0.679  56.888  1.00  0.00     0.150 HD
ENDBRANCH  28  29
ENDBRANCH  10  28
TORSDOF 9
ENDMDL
MODEL 5
REMARK VINA RESULT:      -7.9      2.165      4.646
REMARK  9 active torsions:
REMARK  status: ('A' for Active; 'I' for Inactive)
REMARK    1  A    between atoms: C2_2  and  C3_3 
REMARK    2  A    between atoms: C3_3  and  C4_4 
REMARK    3  A    between atoms: C3_3  and  C6_6 
REMARK    4  A    between atoms: C6_6  and  O1_7 
REMARK    5  A    between atoms: O1_7  and  C7_8 
REMARK    6  A    between atoms: C10_11  and  N1_12 
REMARK    7  A    between atoms: N1_12  and  C11_13 
REMARK    8  A    between atoms: C20_26  and  C21_27 
REMARK    9  A    between atoms: C21_27  and  N4_28 
ROOT
HETATM    1  C7  UNL     1      23.634   0.514  53.169  1.00  0.00     0.077 A 
HETATM    2  C8  UNL     1      23.811   1.714  52.513  1.00  0.00     0.055 A 
HETATM    3  C9  UNL     1      22.947   2.335  51.643  1.00  0.00     0.041 A 
HETATM    4  C10 UNL     1      23.292   3.542  51.075  1.00  0.00     0.142 A 
HETATM    5  N2  UNL     1      22.358   4.037  50.243  1.00  0.00    -0.224 NA
HETATM    6  C17 UNL     1      21.194   3.405  49.995  1.00  0.00     0.236 A 
HETATM    7  N3  UNL     1      20.893   2.210  50.580  1.00  0.00    -0.241 NA
HETATM    8  C18 UNL     1      21.777   1.649  51.425  1.00  0.00     0.073 A 
HETATM    9  C19 UNL     1      21.475   0.444  52.016  1.00  0.00     0.044 A 
HETATM   10  C20 UNL     1      22.409  -0.129  52.893  1.00  0.00    -0.005 A 
ENDROOT
BRANCH   4  11
HETATM   11  N1  UNL     1      24.520   4.209  51.342  1.00  0.00    -0.340 N 
HETATM   12  H15 UNL     1      24.688   4.298  52.362  1.00  0.00     0.167 HD
BRANCH  11  13
HETATM   13  C11 UNL     1      25.451   4.717  50.390  1.00  0.00     0.035 A 
HETATM   14  C12 UNL     1      26.362   3.851  49.819  1.00  0.00     0.032 A 
HETATM   15  C13 UNL     1      27.253   4.357  48.897  1.00  0.00     0.046 A 
HETATM   16  C14 UNL     1      27.251   5.700  48.539  1.00  0.00     0.138 A 
HETATM   17  F1  UNL     1      28.137   6.173  47.631  1.00  0.00    -0.204 F 
HETATM   18  C15 UNL     1      26.322   6.525  49.138  1.00  0.00     0.074 A 
HETATM   19 CL1  UNL     1      26.353   8.206  48.658  1.00  0.00    -0.081 Cl
HETATM   20  C16 UNL     1      25.414   6.057  50.065  1.00  0.00     0.056 A 
ENDBRANCH  11  13
ENDBRANCH   4  11
BRANCH   1  21
HETATM   21  O1  UNL     1      24.344  -0.205  54.016  1.00  0.00    -0.350 OA
BRANCH  21  22
HETATM   22  C6  UNL     1      25.500  -0.406  54.625  1.00  0.00     0.180 C 
BRANCH  22  23
HETATM   23  C3  UNL     1      26.821  -0.194  53.911  1.00  0.00     0.009 C 
BRANCH  23  24
HETATM   24  C2  UNL     1      26.892  -0.683  52.533  1.00  0.00     0.002 C 
HETATM   25  C1  UNL     1      26.837  -2.164  52.298  1.00  0.00     0.005 C 
ENDBRANCH  23  24
BRANCH  23  26
HETATM   26  C4  UNL     1      27.099   1.276  54.031  1.00  0.00     0.002 C 
HETATM   27  C5  UNL     1      27.527   1.998  52.800  1.00  0.00     0.005 C 
ENDBRANCH  23  26
ENDBRANCH  22  23
ENDBRANCH  21  22
ENDBRANCH   1  21
BRANCH  10  28
HETATM   28  C21 UNL     1      21.992  -1.449  53.495  1.00  0.00     0.152 C 
BRANCH  28  29
HETATM   29  N4  UNL     1      21.348  -1.158  54.730  1.00  0.00    -0.426 N 
HETATM   30  H23 UNL     1      21.522  -0.227  55.115  1.00  0.00     0.150 HD
HETATM   31  H24 UNL     1      20.432  -1.574  54.898  1.00  0.00     0.150 HD
ENDBRANCH  28  29
ENDBRANCH  10  28
TORSDOF 9
ENDMDL
MODEL 6
REMARK VINA RESULT:      -7.9      2.415      5.028
REMARK  9 active torsions:
REMARK  status: ('A' for Active; 'I' for Inactive)
REMARK    1  A    between atoms: C2_2  and  C3_3 
REMARK    2  A    between atoms: C3_3  and  C4_4 
REMARK    3  A    between atoms: C3_3  and  C6_6 
REMARK    4  A    between atoms: C6_6  and  O1_7 
REMARK    5  A    between atoms: O1_7  and  C7_8 
REMARK    6  A    between atoms: C10_11  and  N1_12 
REMARK    7  A    between atoms: N1_12  and  C11_13 
REMARK    8  A    between atoms: C20_26  and  C21_27 
REMARK    9  A    between atoms: C21_27  and  N4_28 
ROOT
HETATM    1  C7  UNL     1      23.882   0.970  53.111  1.00  0.00     0.077 A 
HETATM    2  C8  UNL     1      23.835   2.275  52.669  1.00  0.00     0.055 A 
HETATM    3  C9  UNL     1      22.745   2.967  52.198  1.00  0.00     0.041 A 
HETATM    4  C10 UNL     1      22.883   4.278  51.795  1.00  0.00     0.142 A 
HETATM    5  N2  UNL     1      21.739   4.833  51.356  1.00  0.00    -0.224 NA
HETATM    6  C17 UNL     1      20.571   4.164  51.317  1.00  0.00     0.236 A 
HETATM    7  N3  UNL     1      20.479   2.866  51.726  1.00  0.00    -0.241 NA
HETATM    8  C18 UNL     1      21.580   2.238  52.180  1.00  0.00     0.073 A 
HETATM    9  C19 UNL     1      21.489   0.930  52.592  1.00  0.00     0.044 A 
HETATM   10  C20 UNL     1      22.647   0.289  53.061  1.00  0.00    -0.005 A 
ENDROOT
BRANCH   4  11
HETATM   11  N1  UNL     1      24.117   4.983  51.841  1.00  0.00    -0.340 N 
HETATM   12  H15 UNL     1      24.266   5.426  52.767  1.00  0.00     0.167 HD
BRANCH  11  13
HETATM   13  C11 UNL     1      25.077   5.112  50.795  1.00  0.00     0.035 A 
HETATM   14  C12 UNL     1      25.778   3.995  50.390  1.00  0.00     0.032 A 
HETATM   15  C13 UNL     1      26.699   4.135  49.375  1.00  0.00     0.046 A 
HETATM   16  C14 UNL     1      26.930   5.361  48.762  1.00  0.00     0.138 A 
HETATM   17  F1  UNL     1      27.841   5.473  47.767  1.00  0.00    -0.204 F 
HETATM   18  C15 UNL     1      26.205   6.448  49.201  1.00  0.00     0.074 A 
HETATM   19 CL1  UNL     1      26.526   7.970  48.403  1.00  0.00    -0.081 Cl
HETATM   20  C16 UNL     1      25.274   6.349  50.215  1.00  0.00     0.056 A 
ENDBRANCH  11  13
ENDBRANCH   4  11
BRANCH   1  21
HETATM   21  O1  UNL     1      24.821   0.174  53.584  1.00  0.00    -0.350 OA
BRANCH  21  22
HETATM   22  C6  UNL     1      26.025   0.049  54.115  1.00  0.00     0.180 C 
BRANCH  22  23
HETATM   23  C3  UNL     1      27.282   0.290  53.301  1.00  0.00     0.009 C 
BRANCH  23  24
HETATM   24  C2  UNL     1      27.517   1.673  52.877  1.00  0.00     0.002 C 
HETATM   25  C1  UNL     1      28.577   2.465  53.582  1.00  0.00     0.005 C 
ENDBRANCH  23  24
BRANCH  23  26
HETATM   26  C4  UNL     1      28.399  -0.272  54.130  1.00  0.00     0.002 C 
HETATM   27  C5  UNL     1      29.346  -1.209  53.463  1.00  0.00     0.005 C 
ENDBRANCH  23  26
ENDBRANCH  22  23
ENDBRANCH  21  22
ENDBRANCH   1  21
BRANCH  10  28
HETATM   28  C21 UNL     1      22.453  -1.143  53.493  1.00  0.00     0.152 C 
BRANCH  28  29
HETATM   29  N4  UNL     1      22.398  -1.145  54.916  1.00  0.00    -0.426 N 
HETATM   30  H23 UNL     1      22.153  -0.253  55.353  1.00  0.00     0.150 HD
HETATM   31  H24 UNL     1      22.084  -1.998  55.378  1.00  0.00     0.150 HD
ENDBRANCH  28  29
ENDBRANCH  10  28
TORSDOF 9
ENDMDL
MODEL 7
REMARK VINA RESULT:      -7.9      3.582      6.577
REMARK  9 active torsions:
REMARK  status: ('A' for Active; 'I' for Inactive)
REMARK    1  A    between atoms: C2_2  and  C3_3 
REMARK    2  A    between atoms: C3_3  and  C4_4 
REMARK    3  A    between atoms: C3_3  and  C6_6 
REMARK    4  A    between atoms: C6_6  and  O1_7 
REMARK    5  A    between atoms: O1_7  and  C7_8 
REMARK    6  A    between atoms: C10_11  and  N1_12 
REMARK    7  A    between atoms: N1_12  and  C11_13 
REMARK    8  A    between atoms: C20_26  and  C21_27 
REMARK    9  A    between atoms: C21_27  and  N4_28 
ROOT
HETATM    1  C7  UNL     1      22.537   2.239  51.044  1.00  0.00     0.077 A 
HETATM    2  C8  UNL     1      23.195   1.256  51.753  1.00  0.00     0.055 A 
HETATM    3  C9  UNL     1      22.747   0.567  52.854  1.00  0.00     0.041 A 
HETATM    4  C10 UNL     1      23.547  -0.390  53.439  1.00  0.00     0.142 A 
HETATM    5  N2  UNL     1      22.987  -0.985  54.508  1.00  0.00    -0.224 NA
HETATM    6  C17 UNL     1      21.757  -0.670  54.958  1.00  0.00     0.236 A 
HETATM    7  N3  UNL     1      20.998   0.286  54.347  1.00  0.00    -0.241 NA
HETATM    8  C18 UNL     1      21.488   0.928  53.270  1.00  0.00     0.073 A 
HETATM    9  C19 UNL     1      20.725   1.891  52.654  1.00  0.00     0.044 A 
HETATM   10  C20 UNL     1      21.251   2.553  51.534  1.00  0.00    -0.005 A 
ENDROOT
BRANCH   4  11
HETATM   11  N1  UNL     1      24.844  -0.724  52.960  1.00  0.00    -0.340 N 
HETATM   12  H15 UNL     1      24.802  -1.480  52.251  1.00  0.00     0.167 HD
BRANCH  11  13
HETATM   13  C11 UNL     1      26.085  -0.144  53.352  1.00  0.00     0.035 A 
HETATM   14  C12 UNL     1      26.087   1.126  53.892  1.00  0.00     0.032 A 
HETATM   15  C13 UNL     1      27.294   1.672  54.271  1.00  0.00     0.046 A 
HETATM   16  C14 UNL     1      28.489   0.979  54.121  1.00  0.00     0.138 A 
HETATM   17  F1  UNL     1      29.663   1.537  54.500  1.00  0.00    -0.204 F 
HETATM   18  C15 UNL     1      28.436  -0.287  53.576  1.00  0.00     0.074 A 
HETATM   19 CL1  UNL     1      29.961  -1.124  53.406  1.00  0.00    -0.081 Cl
HETATM   20  C16 UNL     1      27.247  -0.868  53.185  1.00  0.00     0.056 A 
ENDBRANCH  11  13
ENDBRANCH   4  11
BRANCH   1  21
HETATM   21  O1  UNL     1      22.816   2.982  49.991  1.00  0.00    -0.350 OA
BRANCH  21  22
HETATM   22  C6  UNL     1      23.702   3.359  49.085  1.00  0.00     0.180 C 
BRANCH  22  23
HETATM   23  C3  UNL     1      24.812   4.338  49.418  1.00  0.00     0.009 C 
BRANCH  23  24
HETATM   24  C2  UNL     1      24.612   5.151  50.620  1.00  0.00     0.002 C 
HETATM   25  C1  UNL     1      24.937   6.613  50.555  1.00  0.00     0.005 C 
ENDBRANCH  23  24
BRANCH  23  26
HETATM   26  C4  UNL     1      26.063   3.511  49.465  1.00  0.00     0.002 C 
HETATM   27  C5  UNL     1      26.454   2.929  50.780  1.00  0.00     0.005 C 
ENDBRANCH  23  26
ENDBRANCH  22  23
ENDBRANCH  21  22
ENDBRANCH   1  21
BRANCH  10  28
HETATM   28  C21 UNL     1      20.344   3.592  50.922  1.00  0.00     0.152 C 
BRANCH  28  29
HETATM   29  N4  UNL     1      20.902   4.865  51.227  1.00  0.00    -0.426 N 
HETATM   30  H23 UNL     1      21.450   5.302  50.481  1.00  0.00     0.150 HD
HETATM   31  H24 UNL     1      20.374   5.480  51.845  1.00  0.00     0.150 HD
ENDBRANCH  28  29
ENDBRANCH  10  28
TORSDOF 9
ENDMDL
MODEL 8
REMARK VINA RESULT:      -7.8      3.776      6.094
REMARK  9 active torsions:
REMARK  status: ('A' for Active; 'I' for Inactive)
REMARK    1  A    between atoms: C2_2  and  C3_3 
REMARK    2  A    between atoms: C3_3  and  C4_4 
REMARK    3  A    between atoms: C3_3  and  C6_6 
REMARK    4  A    between atoms: C6_6  and  O1_7 
REMARK    5  A    between atoms: O1_7  and  C7_8 
REMARK    6  A    between atoms: C10_11  and  N1_12 
REMARK    7  A    between atoms: N1_12  and  C11_13 
REMARK    8  A    between atoms: C20_26  and  C21_27 
REMARK    9  A    between atoms: C21_27  and  N4_28 
ROOT
HETATM    1  C7  UNL     1      22.219   2.385  51.306  1.00  0.00     0.077 A 
HETATM    2  C8  UNL     1      23.548   2.260  51.651  1.00  0.00     0.055 A 
HETATM    3  C9  UNL     1      24.642   2.763  50.989  1.00  0.00     0.041 A 
HETATM    4  C10 UNL     1      25.909   2.538  51.483  1.00  0.00     0.142 A 
HETATM    5  N2  UNL     1      26.887   3.084  50.738  1.00  0.00    -0.224 NA
HETATM    6  C17 UNL     1      26.642   3.787  49.614  1.00  0.00     0.236 A 
HETATM    7  N3  UNL     1      25.371   3.986  49.162  1.00  0.00    -0.241 NA
HETATM    8  C18 UNL     1      24.337   3.471  49.851  1.00  0.00     0.073 A 
HETATM    9  C19 UNL     1      23.054   3.670  49.396  1.00  0.00     0.044 A 
HETATM   10  C20 UNL     1      21.987   3.124  50.126  1.00  0.00    -0.005 A 
ENDROOT
BRANCH   4  11
HETATM   11  N1  UNL     1      26.165   1.799  52.671  1.00  0.00    -0.340 N 
HETATM   12  H15 UNL     1      25.826   2.305  53.511  1.00  0.00     0.167 HD
BRANCH  11  13
HETATM   13  C11 UNL     1      26.797   0.526  52.777  1.00  0.00     0.035 A 
HETATM   14  C12 UNL     1      26.093  -0.602  52.408  1.00  0.00     0.032 A 
HETATM   15  C13 UNL     1      26.719  -1.825  52.512  1.00  0.00     0.046 A 
HETATM   16  C14 UNL     1      28.025  -1.940  52.975  1.00  0.00     0.138 A 
HETATM   17  F1  UNL     1      28.618  -3.153  53.068  1.00  0.00    -0.204 F 
HETATM   18  C15 UNL     1      28.687  -0.784  53.331  1.00  0.00     0.074 A 
HETATM   19 CL1  UNL     1      30.327  -0.975  53.907  1.00  0.00    -0.081 Cl
HETATM   20  C16 UNL     1      28.095   0.458  53.242  1.00  0.00     0.056 A 
ENDBRANCH  11  13
ENDBRANCH   4  11
BRANCH   1  21
HETATM   21  O1  UNL     1      21.075   1.975  51.818  1.00  0.00    -0.350 OA
BRANCH  21  22
HETATM   22  C6  UNL     1      20.429   1.446  52.842  1.00  0.00     0.180 C 
BRANCH  22  23
HETATM   23  C3  UNL     1      20.660   0.009  53.270  1.00  0.00     0.009 C 
BRANCH  23  24
HETATM   24  C2  UNL     1      21.400  -0.177  54.521  1.00  0.00     0.002 C 
HETATM   25  C1  UNL     1      22.139  -1.466  54.727  1.00  0.00     0.005 C 
ENDBRANCH  23  24
BRANCH  23  26
HETATM   26  C4  UNL     1      19.297  -0.617  53.292  1.00  0.00     0.002 C 
HETATM   27  C5  UNL     1      18.431  -0.421  52.095  1.00  0.00     0.005 C 
ENDBRANCH  23  26
ENDBRANCH  22  23
ENDBRANCH  21  22
ENDBRANCH   1  21
BRANCH  10  28
HETATM   28  C21 UNL     1      20.618   3.395  49.554  1.00  0.00     0.152 C 
BRANCH  28  29
HETATM   29  N4  UNL     1      20.174   2.187  48.946  1.00  0.00    -0.426 N 
HETATM   30  H23 UNL     1      20.056   1.389  49.575  1.00  0.00     0.150 HD
HETATM   31  H24 UNL     1      19.536   2.259  48.153  1.00  0.00     0.150 HD
ENDBRANCH  28  29
ENDBRANCH  10  28
TORSDOF 9
ENDMDL
MODEL 9
REMARK VINA RESULT:      -7.8      2.616      5.040
REMARK  9 active torsions:
REMARK  status: ('A' for Active; 'I' for Inactive)
REMARK    1  A    between atoms: C2_2  and  C3_3 
REMARK    2  A    between atoms: C3_3  and  C4_4 
REMARK    3  A    between atoms: C3_3  and  C6_6 
REMARK    4  A    between atoms: C6_6  and  O1_7 
REMARK    5  A    between atoms: O1_7  and  C7_8 
REMARK    6  A    between atoms: C10_11  and  N1_12 
REMARK    7  A    between atoms: N1_12  and  C11_13 
REMARK    8  A    between atoms: C20_26  and  C21_27 
REMARK    9  A    between atoms: C21_27  and  N4_28 
ROOT
HETATM    1  C7  UNL     1      23.182   0.392  52.924  1.00  0.00     0.077 A 
HETATM    2  C8  UNL     1      22.992   1.385  51.987  1.00  0.00     0.055 A 
HETATM    3  C9  UNL     1      21.884   2.178  51.812  1.00  0.00     0.041 A 
HETATM    4  C10 UNL     1      21.868   3.129  50.814  1.00  0.00     0.142 A 
HETATM    5  N2  UNL     1      20.723   3.833  50.754  1.00  0.00    -0.224 NA
HETATM    6  C17 UNL     1      19.692   3.622  51.595  1.00  0.00     0.236 A 
HETATM    7  N3  UNL     1      19.750   2.670  52.569  1.00  0.00    -0.241 NA
HETATM    8  C18 UNL     1      20.862   1.923  52.695  1.00  0.00     0.073 A 
HETATM    9  C19 UNL     1      20.923   0.961  53.677  1.00  0.00     0.044 A 
HETATM   10  C20 UNL     1      22.089   0.189  53.793  1.00  0.00    -0.005 A 
ENDROOT
BRANCH   4  11
HETATM   11  N1  UNL     1      22.960   3.351  49.930  1.00  0.00    -0.340 N 
HETATM   12  H15 UNL     1      23.022   2.606  49.211  1.00  0.00     0.167 HD
BRANCH  11  13
HETATM   13  C11 UNL     1      23.890   4.430  49.962  1.00  0.00     0.035 A 
HETATM   14  C12 UNL     1      23.550   5.586  50.635  1.00  0.00     0.032 A 
HETATM   15  C13 UNL     1      24.462   6.619  50.661  1.00  0.00     0.046 A 
HETATM   16  C14 UNL     1      25.697   6.519  50.031  1.00  0.00     0.138 A 
HETATM   17  F1  UNL     1      26.576   7.548  50.070  1.00  0.00    -0.204 F 
HETATM   18  C15 UNL     1      25.991   5.344  49.371  1.00  0.00     0.074 A 
HETATM   19 CL1  UNL     1      27.555   5.261  48.594  1.00  0.00    -0.081 Cl
HETATM   20  C16 UNL     1      25.105   4.288  49.323  1.00  0.00     0.056 A 
ENDBRANCH  11  13
ENDBRANCH   4  11
BRANCH   1  21
HETATM   21  O1  UNL     1      24.160  -0.442  53.222  1.00  0.00    -0.350 OA
BRANCH  21  22
HETATM   22  C6  UNL     1      25.368  -0.620  53.728  1.00  0.00     0.180 C 
BRANCH  22  23
HETATM   23  C3  UNL     1      26.617  -0.431  52.889  1.00  0.00     0.009 C 
BRANCH  23  24
HETATM   24  C2  UNL     1      26.478   0.435  51.716  1.00  0.00     0.002 C 
HETATM   25  C1  UNL     1      26.835   1.885  51.853  1.00  0.00     0.005 C 
ENDBRANCH  23  24
BRANCH  23  26
HETATM   26  C4  UNL     1      27.667   0.041  53.851  1.00  0.00     0.002 C 
HETATM   27  C5  UNL     1      28.994  -0.633  53.807  1.00  0.00     0.005 C 
ENDBRANCH  23  26
ENDBRANCH  22  23
ENDBRANCH  21  22
ENDBRANCH   1  21
BRANCH  10  28
HETATM   28  C21 UNL     1      22.066  -0.838  54.898  1.00  0.00     0.152 C 
BRANCH  28  29
HETATM   29  N4  UNL     1      21.600  -2.055  54.326  1.00  0.00    -0.426 N 
HETATM   30  H23 UNL     1      22.239  -2.513  53.671  1.00  0.00     0.150 HD
HETATM   31  H24 UNL     1      21.006  -2.653  54.900  1.00  0.00     0.150 HD
ENDBRANCH  28  29
ENDBRANCH  10  28
TORSDOF 9
ENDMDL
