MODEL 1
REMARK VINA RESULT:      -8.3      0.000      0.000
REMARK  4 active torsions:
REMARK  status: ('A' for Active; 'I' for Inactive)
REMARK       I    between atoms: C2_2  and  N1_4 
REMARK    1  A    between atoms: N1_4  and  C3_5 
REMARK    2  A    between atoms: C9_12  and  C10_13 
REMARK    3  A    between atoms: C12_16  and  N4_17 
REMARK    4  A    between atoms: N4_17  and  C13_18 
ROOT
HETATM    1  C10 UNL     1      23.475  -0.142  53.948  1.00  0.00     0.165 C 
HETATM    2  C11 UNL     1      22.387  -0.972  54.519  1.00  0.00     0.063 C 
HETATM    3  N3  UNL     1      21.550  -1.629  54.980  1.00  0.00    -0.197 NA
ENDROOT
BRANCH   1   4
HETATM    4  C9  UNL     1      23.035   0.581  52.758  1.00  0.00    -0.004 A 
HETATM    5  C8  UNL     1      21.821   0.387  51.993  1.00  0.00     0.120 A 
HETATM    6  N2  UNL     1      21.577   1.090  50.985  1.00  0.00    -0.299 NA
HETATM    7  C7  UNL     1      22.257   2.131  50.339  1.00  0.00     0.170 A 
HETATM    8  C6  UNL     1      23.571   2.479  51.008  1.00  0.00     0.054 A 
HETATM    9  C5  UNL     1      24.718   2.365  50.080  1.00  0.00     0.052 A 
HETATM   10  C12 UNL     1      23.710   1.556  52.184  1.00  0.00     0.034 A 
HETATM   11  P1  UNL     1      23.404   4.244  51.474  1.00  0.00    -0.041 P 
HETATM   12  C4  UNL     1      25.418   3.582  49.774  1.00  0.00     0.004 A 
HETATM   13  C3  UNL     1      25.568   4.894  49.908  1.00  0.00     0.032 A 
HETATM   14  C18 UNL     1      24.485   5.277  50.828  1.00  0.00     0.042 A 
BRANCH  13  15
HETATM   15  N1  UNL     1      26.441   5.922  49.432  1.00  0.00    -0.328 N 
HETATM   16  C2  UNL     1      27.611   5.528  48.746  1.00  0.00     0.218 C 
HETATM   17  C1  UNL     1      28.566   6.544  48.223  1.00  0.00     0.117 C 
HETATM   18  O1  UNL     1      27.893   4.319  48.550  1.00  0.00    -0.274 OA
HETATM   19  H4  UNL     1      26.225   6.944  49.584  1.00  0.00     0.169 HD
ENDBRANCH  13  15
BRANCH  10  20
HETATM   20  N4  UNL     1      24.979   1.961  52.752  1.00  0.00    -0.360 N 
HETATM   21  H13 UNL     1      25.272   2.923  53.094  1.00  0.00     0.165 HD
BRANCH  20  22
HETATM   22  C13 UNL     1      25.970   0.928  52.867  1.00  0.00     0.027 A 
HETATM   23  C14 UNL     1      26.135  -0.134  52.074  1.00  0.00     0.026 A 
HETATM   24  C15 UNL     1      27.241  -0.999  52.464  1.00  0.00    -0.001 A 
HETATM   25  C16 UNL     1      27.745  -0.419  53.529  1.00  0.00    -0.005 A 
HETATM   26  C17 UNL     1      27.040   0.819  53.907  1.00  0.00     0.130 A 
HETATM   27 BR1  UNL     1      28.227   2.338  53.593  1.00  0.00    -0.080 Br
ENDBRANCH  20  22
ENDBRANCH  10  20
ENDBRANCH   1   4
TORSDOF 4
ENDMDL
MODEL 2
REMARK VINA RESULT:      -8.2      3.006      4.879
REMARK  4 active torsions:
REMARK  status: ('A' for Active; 'I' for Inactive)
REMARK       I    between atoms: C2_2  and  N1_4 
REMARK    1  A    between atoms: N1_4  and  C3_5 
REMARK    2  A    between atoms: C9_12  and  C10_13 
REMARK    3  A    between atoms: C12_16  and  N4_17 
REMARK    4  A    between atoms: N4_17  and  C13_18 
ROOT
HETATM    1  C10 UNL     1      26.932  -1.823  52.694  1.00  0.00     0.165 C 
HETATM    2  C11 UNL     1      28.109  -2.617  53.122  1.00  0.00     0.063 C 
HETATM    3  N3  UNL     1      29.018  -3.254  53.456  1.00  0.00    -0.197 NA
ENDROOT
BRANCH   1   4
HETATM    4  C9  UNL     1      27.191  -0.387  52.772  1.00  0.00    -0.004 A 
HETATM    5  C8  UNL     1      28.431   0.280  53.110  1.00  0.00     0.120 A 
HETATM    6  N2  UNL     1      28.502   1.530  53.137  1.00  0.00    -0.299 NA
HETATM    7  C7  UNL     1      27.584   2.560  52.896  1.00  0.00     0.170 A 
HETATM    8  C6  UNL     1      26.207   2.046  52.522  1.00  0.00     0.054 A 
HETATM    9  C5  UNL     1      25.157   2.546  53.437  1.00  0.00     0.052 A 
HETATM   10  C12 UNL     1      26.293   0.547  52.537  1.00  0.00     0.034 A 
HETATM   11  P1  UNL     1      25.882   2.749  50.862  1.00  0.00    -0.041 P 
HETATM   12  C4  UNL     1      24.163   3.409  52.860  1.00  0.00     0.004 A 
HETATM   13  C3  UNL     1      23.663   4.060  51.817  1.00  0.00     0.032 A 
HETATM   14  C18 UNL     1      24.581   3.717  50.718  1.00  0.00     0.042 A 
BRANCH  13  15
HETATM   15  N1  UNL     1      22.558   4.920  51.526  1.00  0.00    -0.328 N 
HETATM   16  C2  UNL     1      22.837   6.273  51.226  1.00  0.00     0.218 C 
HETATM   17  C1  UNL     1      21.736   7.226  50.915  1.00  0.00     0.117 C 
HETATM   18  O1  UNL     1      24.010   6.723  51.210  1.00  0.00    -0.274 OA
HETATM   19  H4  UNL     1      21.564   4.565  51.532  1.00  0.00     0.169 HD
ENDBRANCH  13  15
BRANCH  10  20
HETATM   20  N4  UNL     1      24.948   0.154  52.171  1.00  0.00    -0.360 N 
HETATM   21  H13 UNL     1      24.476   0.221  51.222  1.00  0.00     0.165 HD
BRANCH  20  22
HETATM   22  C13 UNL     1      24.150  -0.400  53.229  1.00  0.00     0.027 A 
HETATM   23  C14 UNL     1      24.508  -0.597  54.501  1.00  0.00     0.026 A 
HETATM   24  C15 UNL     1      23.460  -1.180  55.328  1.00  0.00    -0.001 A 
HETATM   25  C16 UNL     1      22.445  -1.330  54.507  1.00  0.00    -0.005 A 
HETATM   26  C17 UNL     1      22.735  -0.877  53.135  1.00  0.00     0.130 A 
HETATM   27 BR1  UNL     1      21.672   0.720  52.763  1.00  0.00    -0.080 Br
ENDBRANCH  20  22
ENDBRANCH  10  20
ENDBRANCH   1   4
TORSDOF 4
ENDMDL
MODEL 3
REMARK VINA RESULT:      -7.6      2.805      5.923
REMARK  4 active torsions:
REMARK  status: ('A' for Active; 'I' for Inactive)
REMARK       I    between atoms: C2_2  and  N1_4 
REMARK    1  A    between atoms: N1_4  and  C3_5 
REMARK    2  A    between atoms: C9_12  and  C10_13 
REMARK    3  A    between atoms: C12_16  and  N4_17 
REMARK    4  A    between atoms: N4_17  and  C13_18 
ROOT
HETATM    1  C10 UNL     1      21.995   5.095  48.377  1.00  0.00     0.165 C 
HETATM    2  C11 UNL     1      21.433   4.290  47.265  1.00  0.00     0.063 C 
HETATM    3  N3  UNL     1      21.000   3.676  46.383  1.00  0.00    -0.197 NA
ENDROOT
BRANCH   1   4
HETATM    4  C9  UNL     1      21.737   4.478  49.675  1.00  0.00    -0.004 A 
HETATM    5  C8  UNL     1      20.465   4.312  50.348  1.00  0.00     0.120 A 
HETATM    6  N2  UNL     1      20.399   3.758  51.470  1.00  0.00    -0.299 NA
HETATM    7  C7  UNL     1      21.348   3.195  52.333  1.00  0.00     0.170 A 
HETATM    8  C6  UNL     1      22.760   3.277  51.788  1.00  0.00     0.054 A 
HETATM    9  C5  UNL     1      23.673   3.991  52.708  1.00  0.00     0.052 A 
HETATM   10  C12 UNL     1      22.664   3.961  50.455  1.00  0.00     0.034 A 
HETATM   11  P1  UNL     1      23.322   1.536  51.684  1.00  0.00    -0.041 P 
HETATM   12  C4  UNL     1      24.744   3.219  53.275  1.00  0.00     0.004 A 
HETATM   13  C3  UNL     1      25.392   2.068  53.414  1.00  0.00     0.032 A 
HETATM   14  C18 UNL     1      24.637   1.138  52.558  1.00  0.00     0.042 A 
BRANCH  13  15
HETATM   15  N1  UNL     1      26.532   1.563  54.114  1.00  0.00    -0.328 N 
HETATM   16  C2  UNL     1      27.805   1.771  53.536  1.00  0.00     0.218 C 
HETATM   17  C1  UNL     1      29.035   1.272  54.209  1.00  0.00     0.117 C 
HETATM   18  O1  UNL     1      27.950   2.377  52.446  1.00  0.00    -0.274 OA
HETATM   19  H4  UNL     1      26.434   1.051  55.032  1.00  0.00     0.169 HD
ENDBRANCH  13  15
BRANCH  10  20
HETATM   20  N4  UNL     1      24.045   3.991  50.019  1.00  0.00    -0.360 N 
HETATM   21  H13 UNL     1      24.671   3.176  49.752  1.00  0.00     0.165 HD
BRANCH  20  22
HETATM   22  C13 UNL     1      24.646   5.294  49.937  1.00  0.00     0.027 A 
HETATM   23  C14 UNL     1      24.532   6.299  50.811  1.00  0.00     0.026 A 
HETATM   24  C15 UNL     1      25.271   7.497  50.433  1.00  0.00    -0.001 A 
HETATM   25  C16 UNL     1      25.841   7.181  49.293  1.00  0.00    -0.005 A 
HETATM   26  C17 UNL     1      25.535   5.809  48.850  1.00  0.00     0.130 A 
HETATM   27 BR1  UNL     1      27.163   4.735  48.958  1.00  0.00    -0.080 Br
ENDBRANCH  20  22
ENDBRANCH  10  20
ENDBRANCH   1   4
TORSDOF 4
ENDMDL
MODEL 4
REMARK VINA RESULT:      -7.5      3.104      6.555
REMARK  4 active torsions:
REMARK  status: ('A' for Active; 'I' for Inactive)
REMARK       I    between atoms: C2_2  and  N1_4 
REMARK    1  A    between atoms: N1_4  and  C3_5 
REMARK    2  A    between atoms: C9_12  and  C10_13 
REMARK    3  A    between atoms: C12_16  and  N4_17 
REMARK    4  A    between atoms: N4_17  and  C13_18 
ROOT
HETATM    1  C10 UNL     1      26.415   3.366  49.847  1.00  0.00     0.165 C 
HETATM    2  C11 UNL     1      27.125   4.409  49.066  1.00  0.00     0.063 C 
HETATM    3  N3  UNL     1      27.698   5.214  48.461  1.00  0.00    -0.197 NA
ENDROOT
BRANCH   1   4
HETATM    4  C9  UNL     1      24.983   3.638  49.934  1.00  0.00    -0.004 A 
HETATM    5  C8  UNL     1      24.262   4.797  49.449  1.00  0.00     0.120 A 
HETATM    6  N2  UNL     1      23.022   4.892  49.598  1.00  0.00    -0.299 NA
HETATM    7  C7  UNL     1      22.048   4.070  50.180  1.00  0.00     0.170 A 
HETATM    8  C6  UNL     1      22.624   2.790  50.752  1.00  0.00     0.054 A 
HETATM    9  C5  UNL     1      22.322   2.636  52.193  1.00  0.00     0.052 A 
HETATM   10  C12 UNL     1      24.102   2.834  50.493  1.00  0.00     0.034 A 
HETATM   11  P1  UNL     1      21.759   1.448  49.854  1.00  0.00    -0.041 P 
HETATM   12  C4  UNL     1      21.480   1.530  52.556  1.00  0.00     0.004 A 
HETATM   13  C3  UNL     1      20.753   0.471  52.219  1.00  0.00     0.032 A 
HETATM   14  C18 UNL     1      20.890   0.406  50.754  1.00  0.00     0.042 A 
BRANCH  13  15
HETATM   15  N1  UNL     1      19.957  -0.526  52.865  1.00  0.00    -0.328 N 
HETATM   16  C2  UNL     1      18.555  -0.452  52.708  1.00  0.00     0.218 C 
HETATM   17  C1  UNL     1      17.664  -1.456  53.353  1.00  0.00     0.117 C 
HETATM   18  O1  UNL     1      18.007   0.450  52.028  1.00  0.00    -0.274 OA
HETATM   19  H4  UNL     1      20.394  -1.295  53.442  1.00  0.00     0.169 HD
ENDBRANCH  13  15
BRANCH  10  20
HETATM   20  N4  UNL     1      24.557   1.584  51.067  1.00  0.00    -0.360 N 
HETATM   21  H13 UNL     1      24.291   0.595  50.789  1.00  0.00     0.165 HD
BRANCH  20  22
HETATM   22  C13 UNL     1      25.490   1.699  52.154  1.00  0.00     0.027 A 
HETATM   23  C14 UNL     1      25.326   2.364  53.301  1.00  0.00     0.026 A 
HETATM   24  C15 UNL     1      26.469   2.283  54.201  1.00  0.00    -0.001 A 
HETATM   25  C16 UNL     1      27.338   1.540  53.555  1.00  0.00    -0.005 A 
HETATM   26  C17 UNL     1      26.856   1.093  52.236  1.00  0.00     0.130 A 
HETATM   27 BR1  UNL     1      26.565  -0.838  52.294  1.00  0.00    -0.080 Br
ENDBRANCH  20  22
ENDBRANCH  10  20
ENDBRANCH   1   4
TORSDOF 4
ENDMDL
MODEL 5
REMARK VINA RESULT:      -7.5      2.733      4.339
REMARK  4 active torsions:
REMARK  status: ('A' for Active; 'I' for Inactive)
REMARK       I    between atoms: C2_2  and  N1_4 
REMARK    1  A    between atoms: N1_4  and  C3_5 
REMARK    2  A    between atoms: C9_12  and  C10_13 
REMARK    3  A    between atoms: C12_16  and  N4_17 
REMARK    4  A    between atoms: N4_17  and  C13_18 
ROOT
HETATM    1  C10 UNL     1      23.268  -1.159  53.013  1.00  0.00     0.165 C 
HETATM    2  C11 UNL     1      22.310  -1.345  54.129  1.00  0.00     0.063 C 
HETATM    3  N3  UNL     1      21.550  -1.505  54.990  1.00  0.00    -0.197 NA
ENDROOT
BRANCH   1   4
HETATM    4  C9  UNL     1      24.202  -0.068  53.278  1.00  0.00    -0.004 A 
HETATM    5  C8  UNL     1      25.169   0.039  54.351  1.00  0.00     0.120 A 
HETATM    6  N2  UNL     1      25.909   1.045  54.451  1.00  0.00    -0.299 NA
HETATM    7  C7  UNL     1      26.053   2.224  53.707  1.00  0.00     0.170 A 
HETATM    8  C6  UNL     1      25.107   2.291  52.524  1.00  0.00     0.054 A 
HETATM    9  C5  UNL     1      24.244   3.493  52.567  1.00  0.00     0.052 A 
HETATM   10  C12 UNL     1      24.301   1.024  52.549  1.00  0.00     0.034 A 
HETATM   11  P1  UNL     1      26.199   2.441  51.061  1.00  0.00    -0.041 P 
HETATM   12  C4  UNL     1      24.427   4.451  51.512  1.00  0.00     0.004 A 
HETATM   13  C3  UNL     1      25.048   4.850  50.408  1.00  0.00     0.032 A 
HETATM   14  C18 UNL     1      26.017   3.773  50.144  1.00  0.00     0.042 A 
BRANCH  13  15
HETATM   15  N1  UNL     1      25.006   5.955  49.501  1.00  0.00    -0.328 N 
HETATM   16  C2  UNL     1      24.051   5.917  48.460  1.00  0.00     0.218 C 
HETATM   17  C1  UNL     1      23.951   7.032  47.479  1.00  0.00     0.117 C 
HETATM   18  O1  UNL     1      23.257   4.954  48.321  1.00  0.00    -0.274 OA
HETATM   19  H4  UNL     1      25.663   6.775  49.599  1.00  0.00     0.169 HD
ENDBRANCH  13  15
BRANCH  10  20
HETATM   20  N4  UNL     1      23.439   1.180  51.396  1.00  0.00    -0.360 N 
HETATM   21  H13 UNL     1      23.713   1.269  50.374  1.00  0.00     0.165 HD
BRANCH  20  22
HETATM   22  C13 UNL     1      22.030   1.219  51.670  1.00  0.00     0.027 A 
HETATM   23  C14 UNL     1      21.406   1.913  52.627  1.00  0.00     0.026 A 
HETATM   24  C15 UNL     1      19.959   1.734  52.639  1.00  0.00    -0.001 A 
HETATM   25  C16 UNL     1      19.726   0.903  51.650  1.00  0.00    -0.005 A 
HETATM   26  C17 UNL     1      20.949   0.486  50.940  1.00  0.00     0.130 A 
HETATM   27 BR1  UNL     1      20.925   1.253  49.143  1.00  0.00    -0.080 Br
ENDBRANCH  20  22
ENDBRANCH  10  20
ENDBRANCH   1   4
TORSDOF 4
ENDMDL
MODEL 6
REMARK VINA RESULT:      -7.3      3.309      4.961
REMARK  4 active torsions:
REMARK  status: ('A' for Active; 'I' for Inactive)
REMARK       I    between atoms: C2_2  and  N1_4 
REMARK    1  A    between atoms: N1_4  and  C3_5 
REMARK    2  A    between atoms: C9_12  and  C10_13 
REMARK    3  A    between atoms: C12_16  and  N4_17 
REMARK    4  A    between atoms: N4_17  and  C13_18 
ROOT
HETATM    1  C10 UNL     1      22.510  -0.607  53.267  1.00  0.00     0.165 C 
HETATM    2  C11 UNL     1      22.620  -1.238  54.604  1.00  0.00     0.063 C 
HETATM    3  N3  UNL     1      22.688  -1.741  55.647  1.00  0.00    -0.197 NA
ENDROOT
BRANCH   1   4
HETATM    4  C9  UNL     1      23.582   0.357  53.034  1.00  0.00    -0.004 A 
HETATM    5  C8  UNL     1      25.009   0.157  53.177  1.00  0.00     0.120 A 
HETATM    6  N2  UNL     1      25.815   1.086  52.940  1.00  0.00    -0.299 NA
HETATM    7  C7  UNL     1      25.670   2.417  52.526  1.00  0.00     0.170 A 
HETATM    8  C6  UNL     1      24.221   2.814  52.322  1.00  0.00     0.054 A 
HETATM    9  C5  UNL     1      23.839   3.977  53.153  1.00  0.00     0.052 A 
HETATM   10  C12 UNL     1      23.397   1.602  52.645  1.00  0.00     0.034 A 
HETATM   11  P1  UNL     1      24.121   3.327  50.566  1.00  0.00    -0.041 P 
HETATM   12  C4  UNL     1      23.480   5.177  52.449  1.00  0.00     0.004 A 
HETATM   13  C3  UNL     1      23.309   5.844  51.314  1.00  0.00     0.032 A 
HETATM   14  C18 UNL     1      23.651   4.858  50.275  1.00  0.00     0.042 A 
BRANCH  13  15
HETATM   15  N1  UNL     1      22.907   7.151  50.894  1.00  0.00    -0.328 N 
HETATM   16  C2  UNL     1      21.575   7.320  50.454  1.00  0.00     0.218 C 
HETATM   17  C1  UNL     1      21.087   8.652  50.002  1.00  0.00     0.117 C 
HETATM   18  O1  UNL     1      20.757   6.368  50.425  1.00  0.00    -0.274 OA
HETATM   19  H4  UNL     1      23.576   7.967  50.910  1.00  0.00     0.169 HD
ENDBRANCH  13  15
BRANCH  10  20
HETATM   20  N4  UNL     1      22.046   2.074  52.422  1.00  0.00    -0.360 N 
HETATM   21  H13 UNL     1      21.397   2.563  53.105  1.00  0.00     0.165 HD
BRANCH  20  22
HETATM   22  C13 UNL     1      21.516   1.854  51.105  1.00  0.00     0.027 A 
HETATM   23  C14 UNL     1      21.818   0.862  50.262  1.00  0.00     0.026 A 
HETATM   24  C15 UNL     1      21.101   0.923  48.995  1.00  0.00    -0.001 A 
HETATM   25  C16 UNL     1      20.347   1.994  49.100  1.00  0.00    -0.005 A 
HETATM   26  C17 UNL     1      20.504   2.692  50.389  1.00  0.00     0.130 A 
HETATM   27 BR1  UNL     1      18.852   2.498  51.413  1.00  0.00    -0.080 Br
ENDBRANCH  20  22
ENDBRANCH  10  20
ENDBRANCH   1   4
TORSDOF 4
ENDMDL
MODEL 7
REMARK VINA RESULT:      -7.2      3.338      5.376
REMARK  4 active torsions:
REMARK  status: ('A' for Active; 'I' for Inactive)
REMARK       I    between atoms: C2_2  and  N1_4 
REMARK    1  A    between atoms: N1_4  and  C3_5 
REMARK    2  A    between atoms: C9_12  and  C10_13 
REMARK    3  A    between atoms: C12_16  and  N4_17 
REMARK    4  A    between atoms: N4_17  and  C13_18 
ROOT
HETATM    1  C10 UNL     1      24.545   2.991  53.245  1.00  0.00     0.165 C 
HETATM    2  C11 UNL     1      25.737   2.294  53.787  1.00  0.00     0.063 C 
HETATM    3  N3  UNL     1      26.677   1.767  54.213  1.00  0.00    -0.197 NA
ENDROOT
BRANCH   1   4
HETATM    4  C9  UNL     1      23.554   2.048  52.732  1.00  0.00    -0.004 A 
HETATM    5  C8  UNL     1      23.207   0.744  53.256  1.00  0.00     0.120 A 
HETATM    6  N2  UNL     1      22.328   0.042  52.704  1.00  0.00    -0.299 NA
HETATM    7  C7  UNL     1      21.506   0.219  51.584  1.00  0.00     0.170 A 
HETATM    8  C6  UNL     1      21.732   1.549  50.893  1.00  0.00     0.054 A 
HETATM    9  C5  UNL     1      22.104   1.383  49.470  1.00  0.00     0.052 A 
HETATM   10  C12 UNL     1      22.803   2.258  51.671  1.00  0.00     0.034 A 
HETATM   11  P1  UNL     1      20.104   2.387  50.950  1.00  0.00    -0.041 P 
HETATM   12  C4  UNL     1      21.174   1.895  48.501  1.00  0.00     0.004 A 
HETATM   13  C3  UNL     1      20.028   2.495  48.204  1.00  0.00     0.032 A 
HETATM   14  C18 UNL     1      19.428   2.772  49.519  1.00  0.00     0.042 A 
BRANCH  13  15
HETATM   15  N1  UNL     1      19.309   2.903  47.037  1.00  0.00    -0.328 N 
HETATM   16  C2  UNL     1      19.610   4.169  46.487  1.00  0.00     0.218 C 
HETATM   17  C1  UNL     1      18.901   4.660  45.274  1.00  0.00     0.117 C 
HETATM   18  O1  UNL     1      20.478   4.925  46.991  1.00  0.00    -0.274 OA
HETATM   19  H4  UNL     1      18.575   2.286  46.596  1.00  0.00     0.169 HD
ENDBRANCH  13  15
BRANCH  10  20
HETATM   20  N4  UNL     1      22.945   3.502  50.944  1.00  0.00    -0.360 N 
HETATM   21  H13 UNL     1      22.216   4.255  50.773  1.00  0.00     0.165 HD
BRANCH  20  22
HETATM   22  C13 UNL     1      24.243   3.752  50.381  1.00  0.00     0.027 A 
HETATM   23  C14 UNL     1      25.156   2.849  50.010  1.00  0.00     0.026 A 
HETATM   24  C15 UNL     1      26.379   3.431  49.471  1.00  0.00    -0.001 A 
HETATM   25  C16 UNL     1      26.173   4.727  49.527  1.00  0.00    -0.005 A 
HETATM   26  C17 UNL     1      24.856   5.084  50.084  1.00  0.00     0.130 A 
HETATM   27 BR1  UNL     1      23.760   5.855  48.663  1.00  0.00    -0.080 Br
ENDBRANCH  20  22
ENDBRANCH  10  20
ENDBRANCH   1   4
TORSDOF 4
ENDMDL
MODEL 8
REMARK VINA RESULT:      -7.2      3.382      6.015
REMARK  4 active torsions:
REMARK  status: ('A' for Active; 'I' for Inactive)
REMARK       I    between atoms: C2_2  and  N1_4 
REMARK    1  A    between atoms: N1_4  and  C3_5 
REMARK    2  A    between atoms: C9_12  and  C10_13 
REMARK    3  A    between atoms: C12_16  and  N4_17 
REMARK    4  A    between atoms: N4_17  and  C13_18 
ROOT
HETATM    1  C10 UNL     1      25.027   2.613  53.422  1.00  0.00     0.165 C 
HETATM    2  C11 UNL     1      26.372   2.129  53.818  1.00  0.00     0.063 C 
HETATM    3  N3  UNL     1      27.430   1.770  54.127  1.00  0.00    -0.197 NA
ENDROOT
BRANCH   1   4
HETATM    4  C9  UNL     1      24.117   1.507  53.136  1.00  0.00    -0.004 A 
HETATM    5  C8  UNL     1      24.216   0.132  53.579  1.00  0.00     0.120 A 
HETATM    6  N2  UNL     1      23.351  -0.713  53.251  1.00  0.00    -0.299 NA
HETATM    7  C7  UNL     1      22.184  -0.658  52.478  1.00  0.00     0.170 A 
HETATM    8  C6  UNL     1      21.913   0.725  51.919  1.00  0.00     0.054 A 
HETATM    9  C5  UNL     1      21.812   0.721  50.443  1.00  0.00     0.052 A 
HETATM   10  C12 UNL     1      23.029   1.606  52.401  1.00  0.00     0.034 A 
HETATM   11  P1  UNL     1      20.271   1.184  52.590  1.00  0.00    -0.041 P 
HETATM   12  C4  UNL     1      20.534   1.070  49.888  1.00  0.00     0.004 A 
HETATM   13  C3  UNL     1      19.262   1.422  50.043  1.00  0.00     0.032 A 
HETATM   14  C18 UNL     1      19.096   1.491  51.504  1.00  0.00     0.042 A 
BRANCH  13  15
HETATM   15  N1  UNL     1      18.132   1.727  49.223  1.00  0.00    -0.328 N 
HETATM   16  C2  UNL     1      18.018   3.044  48.722  1.00  0.00     0.218 C 
HETATM   17  C1  UNL     1      16.866   3.433  47.862  1.00  0.00     0.117 C 
HETATM   18  O1  UNL     1      18.870   3.930  48.978  1.00  0.00    -0.274 OA
HETATM   19  H4  UNL     1      17.403   0.999  48.994  1.00  0.00     0.169 HD
ENDBRANCH  13  15
BRANCH  10  20
HETATM   20  N4  UNL     1      22.685   2.889  51.824  1.00  0.00    -0.360 N 
HETATM   21  H13 UNL     1      21.789   3.447  51.943  1.00  0.00     0.165 HD
BRANCH  20  22
HETATM   22  C13 UNL     1      23.686   3.485  50.983  1.00  0.00     0.027 A 
HETATM   23  C14 UNL     1      24.326   2.920  49.956  1.00  0.00     0.026 A 
HETATM   24  C15 UNL     1      25.289   3.798  49.304  1.00  0.00    -0.001 A 
HETATM   25  C16 UNL     1      25.209   4.924  49.976  1.00  0.00    -0.005 A 
HETATM   26  C17 UNL     1      24.229   4.875  51.077  1.00  0.00     0.130 A 
HETATM   27 BR1  UNL     1      22.732   6.049  50.636  1.00  0.00    -0.080 Br
ENDBRANCH  20  22
ENDBRANCH  10  20
ENDBRANCH   1   4
TORSDOF 4
ENDMDL
MODEL 9
REMARK VINA RESULT:      -7.1      2.872      6.564
REMARK  4 active torsions:
REMARK  status: ('A' for Active; 'I' for Inactive)
REMARK       I    between atoms: C2_2  and  N1_4 
REMARK    1  A    between atoms: N1_4  and  C3_5 
REMARK    2  A    between atoms: C9_12  and  C10_13 
REMARK    3  A    between atoms: C12_16  and  N4_17 
REMARK    4  A    between atoms: N4_17  and  C13_18 
ROOT
HETATM    1  C10 UNL     1      23.206   7.952  50.126  1.00  0.00     0.165 C 
HETATM    2  C11 UNL     1      22.166   8.798  49.491  1.00  0.00     0.063 C 
HETATM    3  N3  UNL     1      21.366   9.474  48.994  1.00  0.00    -0.197 NA
ENDROOT
BRANCH   1   4
HETATM    4  C9  UNL     1      22.667   6.665  50.558  1.00  0.00    -0.004 A 
HETATM    5  C8  UNL     1      21.293   6.211  50.508  1.00  0.00     0.120 A 
HETATM    6  N2  UNL     1      20.978   5.070  50.919  1.00  0.00    -0.299 NA
HETATM    7  C7  UNL     1      21.698   4.005  51.477  1.00  0.00     0.170 A 
HETATM    8  C6  UNL     1      23.179   4.302  51.609  1.00  0.00     0.054 A 
HETATM    9  C5  UNL     1      23.652   4.170  53.005  1.00  0.00     0.052 A 
HETATM   10  C12 UNL     1      23.385   5.691  51.079  1.00  0.00     0.034 A 
HETATM   11  P1  UNL     1      24.005   3.004  50.615  1.00  0.00    -0.041 P 
HETATM   12  C4  UNL     1      24.608   3.128  53.262  1.00  0.00     0.004 A 
HETATM   13  C3  UNL     1      25.352   2.113  52.840  1.00  0.00     0.032 A 
HETATM   14  C18 UNL     1      25.041   2.026  51.403  1.00  0.00     0.042 A 
BRANCH  13  15
HETATM   15  N1  UNL     1      26.292   1.181  53.382  1.00  0.00    -0.328 N 
HETATM   16  C2  UNL     1      27.667   1.447  53.193  1.00  0.00     0.218 C 
HETATM   17  C1  UNL     1      28.701   0.521  53.729  1.00  0.00     0.117 C 
HETATM   18  O1  UNL     1      28.069   2.463  52.573  1.00  0.00    -0.274 OA
HETATM   19  H4  UNL     1      25.977   0.322  53.907  1.00  0.00     0.169 HD
ENDBRANCH  13  15
BRANCH  10  20
HETATM   20  N4  UNL     1      24.811   5.881  51.244  1.00  0.00    -0.360 N 
HETATM   21  H13 UNL     1      25.414   5.647  52.086  1.00  0.00     0.165 HD
BRANCH  20  22
HETATM   22  C13 UNL     1      25.499   6.459  50.123  1.00  0.00     0.027 A 
HETATM   23  C14 UNL     1      26.052   7.672  50.046  1.00  0.00     0.026 A 
HETATM   24  C15 UNL     1      26.678   7.957  48.761  1.00  0.00    -0.001 A 
HETATM   25  C16 UNL     1      26.484   6.865  48.057  1.00  0.00    -0.005 A 
HETATM   26  C17 UNL     1      25.746   5.822  48.792  1.00  0.00     0.130 A 
HETATM   27 BR1  UNL     1      26.955   4.329  49.147  1.00  0.00    -0.080 Br
ENDBRANCH  20  22
ENDBRANCH  10  20
ENDBRANCH   1   4
TORSDOF 4
ENDMDL
